<?xml version="1.0" encoding="UTF-8"?>
<routes xmlns:xsi="http://www.w3.org/2001/XMLSchema-instance" xsi:noNamespaceSchemaLocation="http://sumo.dlr.de/xsd/routes_file.xsd">
  <flow id="JF0" begin="0" fromJunction="J0" toJunction="J13" end="360" vehsPerHour="8.947323060515739" departLane="free" arrivalSpeed="0.0"/>
  <flow id="JF1" begin="0" fromJunction="J0" toJunction="J14" end="360" vehsPerHour="39.74302410551391" departLane="free" arrivalSpeed="0.0"/>
  <flow id="JF2" begin="0" fromJunction="J0" toJunction="J16" end="360" vehsPerHour="25.271453731770347" departLane="free" arrivalSpeed="0.0"/>
  <flow id="JF3" begin="0" fromJunction="J0" toJunction="J3" end="360" vehsPerHour="61.72830017353656" departLane="free" arrivalSpeed="0.0"/>
  <flow id="JF4" begin="0" fromJunction="J0" toJunction="J6" end="360" vehsPerHour="9.188736009980436" departLane="free" arrivalSpeed="0.0"/>
  <flow id="JF5" begin="0" fromJunction="J0" toJunction="J7" end="360" vehsPerHour="39.02589148269692" departLane="free" arrivalSpeed="0.0"/>
  <flow id="JF6" begin="0" fromJunction="J0" toJunction="J8" end="360" vehsPerHour="26.031091297089723" departLane="free" arrivalSpeed="0.0"/>
  <flow id="JF7" begin="0" fromJunction="J0" toJunction="J9" end="360" vehsPerHour="0.7832606149109751" departLane="free" arrivalSpeed="0.0"/>
  <flow id="JF8" begin="0" fromJunction="J12" toJunction="J0" end="360" vehsPerHour="22.434239302675618" departLane="free" arrivalSpeed="0.0"/>
  <flow id="JF9" begin="0" fromJunction="J12" toJunction="J13" end="360" vehsPerHour="42.760043596031394" departLane="free" arrivalSpeed="0.0"/>
  <flow id="JF10" begin="0" fromJunction="J12" toJunction="J15" end="360" vehsPerHour="4.418515350864385" departLane="free" arrivalSpeed="0.0"/>
  <flow id="JF11" begin="0" fromJunction="J12" toJunction="J16" end="360" vehsPerHour="19.249591978426313" departLane="free" arrivalSpeed="0.0"/>
  <flow id="JF12" begin="0" fromJunction="J12" toJunction="J2" end="360" vehsPerHour="2.0877230243796188" departLane="free" arrivalSpeed="0.0"/>
  <flow id="JF13" begin="0" fromJunction="J12" toJunction="J7" end="360" vehsPerHour="60.048099184021744" departLane="free" arrivalSpeed="0.0"/>
  <flow id="JF14" begin="0" fromJunction="J12" toJunction="J8" end="360" vehsPerHour="32.1202791236012" departLane="free" arrivalSpeed="0.0"/>
  <flow id="JF15" begin="0" fromJunction="J12" toJunction="J9" end="360" vehsPerHour="12.019876244993625" departLane="free" arrivalSpeed="0.0"/>
  <flow id="JF16" begin="0" fromJunction="J13" toJunction="J0" end="360" vehsPerHour="32.26698648800198" departLane="free" arrivalSpeed="0.0"/>
  <flow id="JF17" begin="0" fromJunction="J13" toJunction="J14" end="360" vehsPerHour="32.611109836692656" departLane="free" arrivalSpeed="0.0"/>
  <flow id="JF18" begin="0" fromJunction="J13" toJunction="J15" end="360" vehsPerHour="21.324399940352006" departLane="free" arrivalSpeed="0.0"/>
  <flow id="JF19" begin="0" fromJunction="J13" toJunction="J16" end="360" vehsPerHour="33.89732684985861" departLane="free" arrivalSpeed="0.0"/>
  <flow id="JF20" begin="0" fromJunction="J13" toJunction="J7" end="360" vehsPerHour="11.699564685859924" departLane="free" arrivalSpeed="0.0"/>
  <flow id="JF21" begin="0" fromJunction="J13" toJunction="J8" end="360" vehsPerHour="26.78809331911056" departLane="free" arrivalSpeed="0.0"/>
  <flow id="JF22" begin="0" fromJunction="J13" toJunction="J9" end="360" vehsPerHour="8.4838703845976" departLane="free" arrivalSpeed="0.0"/>
  <flow id="JF23" begin="0" fromJunction="J14" toJunction="J12" end="360" vehsPerHour="39.11235436567653" departLane="free" arrivalSpeed="0.0"/>
  <flow id="JF24" begin="0" fromJunction="J14" toJunction="J13" end="360" vehsPerHour="37.60738960215554" departLane="free" arrivalSpeed="0.0"/>
  <flow id="JF25" begin="0" fromJunction="J14" toJunction="J15" end="360" vehsPerHour="64.5761903553396" departLane="free" arrivalSpeed="0.0"/>
  <flow id="JF26" begin="0" fromJunction="J14" toJunction="J16" end="360" vehsPerHour="19.498759421715615" departLane="free" arrivalSpeed="0.0"/>
  <flow id="JF27" begin="0" fromJunction="J14" toJunction="J2" end="360" vehsPerHour="11.114563153773105" departLane="free" arrivalSpeed="0.0"/>
  <flow id="JF28" begin="0" fromJunction="J14" toJunction="J3" end="360" vehsPerHour="65.84673501277385" departLane="free" arrivalSpeed="0.0"/>
  <flow id="JF29" begin="0" fromJunction="J14" toJunction="J6" end="360" vehsPerHour="36.51425653619407" departLane="free" arrivalSpeed="0.0"/>
  <flow id="JF30" begin="0" fromJunction="J14" toJunction="J7" end="360" vehsPerHour="17.14566465771104" departLane="free" arrivalSpeed="0.0"/>
  <flow id="JF31" begin="0" fromJunction="J15" toJunction="J0" end="360" vehsPerHour="56.14774904475309" departLane="free" arrivalSpeed="0.0"/>
  <flow id="JF32" begin="0" fromJunction="J15" toJunction="J12" end="360" vehsPerHour="27.50515619745816" departLane="free" arrivalSpeed="0.0"/>
  <flow id="JF33" begin="0" fromJunction="J15" toJunction="J13" end="360" vehsPerHour="33.389345856000176" departLane="free" arrivalSpeed="0.0"/>
  <flow id="JF34" begin="0" fromJunction="J15" toJunction="J14" end="360" vehsPerHour="16.093159655846204" departLane="free" arrivalSpeed="0.0"/>
  <flow id="JF35" begin="0" fromJunction="J15" toJunction="J3" end="360" vehsPerHour="20.296669039016592" departLane="free" arrivalSpeed="0.0"/>
  <flow id="JF36" begin="0" fromJunction="J15" toJunction="J7" end="360" vehsPerHour="55.952459151134455" departLane="free" arrivalSpeed="0.0"/>
  <flow id="JF37" begin="0" fromJunction="J15" toJunction="J8" end="360" vehsPerHour="66.35772581083204" departLane="free" arrivalSpeed="0.0"/>
  <flow id="JF38" begin="0" fromJunction="J16" toJunction="J0" end="360" vehsPerHour="71.86824689449429" departLane="free" arrivalSpeed="0.0"/>
  <flow id="JF39" begin="0" fromJunction="J16" toJunction="J12" end="360" vehsPerHour="38.34766518022976" departLane="free" arrivalSpeed="0.0"/>
  <flow id="JF40" begin="0" fromJunction="J16" toJunction="J14" end="360" vehsPerHour="109.86182665395789" departLane="free" arrivalSpeed="0.0"/>
  <flow id="JF41" begin="0" fromJunction="J16" toJunction="J2" end="360" vehsPerHour="66.33766552718653" departLane="free" arrivalSpeed="0.0"/>
  <flow id="JF42" begin="0" fromJunction="J16" toJunction="J6" end="360" vehsPerHour="117.42517777739515" departLane="free" arrivalSpeed="0.0"/>
  <flow id="JF43" begin="0" fromJunction="J16" toJunction="J7" end="360" vehsPerHour="9.231944509858186" departLane="free" arrivalSpeed="0.0"/>
  <flow id="JF44" begin="0" fromJunction="J16" toJunction="J8" end="360" vehsPerHour="15.928995883648646" departLane="free" arrivalSpeed="0.0"/>
  <flow id="JF45" begin="0" fromJunction="J16" toJunction="J9" end="360" vehsPerHour="19.82468067146332" departLane="free" arrivalSpeed="0.0"/>
  <flow id="JF46" begin="0" fromJunction="J2" toJunction="J12" end="360" vehsPerHour="71.5145775997971" departLane="free" arrivalSpeed="0.0"/>
  <flow id="JF47" begin="0" fromJunction="J2" toJunction="J13" end="360" vehsPerHour="34.78255427066926" departLane="free" arrivalSpeed="0.0"/>
  <flow id="JF48" begin="0" fromJunction="J2" toJunction="J14" end="360" vehsPerHour="70.21766358582826" departLane="free" arrivalSpeed="0.0"/>
  <flow id="JF49" begin="0" fromJunction="J2" toJunction="J15" end="360" vehsPerHour="25.60691432934583" departLane="free" arrivalSpeed="0.0"/>
  <flow id="JF50" begin="0" fromJunction="J2" toJunction="J6" end="360" vehsPerHour="122.66512490705998" departLane="free" arrivalSpeed="0.0"/>
  <flow id="JF51" begin="0" fromJunction="J2" toJunction="J7" end="360" vehsPerHour="111.6505577572127" departLane="free" arrivalSpeed="0.0"/>
  <flow id="JF52" begin="0" fromJunction="J2" toJunction="J8" end="360" vehsPerHour="62.53686455863783" departLane="free" arrivalSpeed="0.0"/>
  <flow id="JF53" begin="0" fromJunction="J2" toJunction="J9" end="360" vehsPerHour="88.95957446649292" departLane="free" arrivalSpeed="0.0"/>
  <flow id="JF54" begin="0" fromJunction="J3" toJunction="J0" end="360" vehsPerHour="14.843180689489085" departLane="free" arrivalSpeed="0.0"/>
  <flow id="JF55" begin="0" fromJunction="J3" toJunction="J12" end="360" vehsPerHour="19.263905498367663" departLane="free" arrivalSpeed="0.0"/>
  <flow id="JF56" begin="0" fromJunction="J3" toJunction="J14" end="360" vehsPerHour="26.07553779987002" departLane="free" arrivalSpeed="0.0"/>
  <flow id="JF57" begin="0" fromJunction="J3" toJunction="J15" end="360" vehsPerHour="66.74136363337325" departLane="free" arrivalSpeed="0.0"/>
  <flow id="JF58" begin="0" fromJunction="J3" toJunction="J16" end="360" vehsPerHour="45.852119226344904" departLane="free" arrivalSpeed="0.0"/>
  <flow id="JF59" begin="0" fromJunction="J3" toJunction="J2" end="360" vehsPerHour="39.86796030424671" departLane="free" arrivalSpeed="0.0"/>
  <flow id="JF60" begin="0" fromJunction="J3" toJunction="J8" end="360" vehsPerHour="48.088963151083405" departLane="free" arrivalSpeed="0.0"/>
  <flow id="JF61" begin="0" fromJunction="J6" toJunction="J0" end="360" vehsPerHour="67.08453084039935" departLane="free" arrivalSpeed="0.0"/>
  <flow id="JF62" begin="0" fromJunction="J6" toJunction="J12" end="360" vehsPerHour="14.127173549496097" departLane="free" arrivalSpeed="0.0"/>
  <flow id="JF63" begin="0" fromJunction="J6" toJunction="J14" end="360" vehsPerHour="27.34761768438363" departLane="free" arrivalSpeed="0.0"/>
  <flow id="JF64" begin="0" fromJunction="J6" toJunction="J2" end="360" vehsPerHour="67.44811761532975" departLane="free" arrivalSpeed="0.0"/>
  <flow id="JF65" begin="0" fromJunction="J6" toJunction="J3" end="360" vehsPerHour="43.70346534566515" departLane="free" arrivalSpeed="0.0"/>
  <flow id="JF66" begin="0" fromJunction="J6" toJunction="J9" end="360" vehsPerHour="26.43237280083977" departLane="free" arrivalSpeed="0.0"/>
  <flow id="JF67" begin="0" fromJunction="J7" toJunction="J14" end="360" vehsPerHour="11.700340377678213" departLane="free" arrivalSpeed="0.0"/>
  <flow id="JF68" begin="0" fromJunction="J7" toJunction="J15" end="360" vehsPerHour="43.636664870169994" departLane="free" arrivalSpeed="0.0"/>
  <flow id="JF69" begin="0" fromJunction="J7" toJunction="J16" end="360" vehsPerHour="52.94378561185942" departLane="free" arrivalSpeed="0.0"/>
  <flow id="JF70" begin="0" fromJunction="J7" toJunction="J2" end="360" vehsPerHour="33.713493650334286" departLane="free" arrivalSpeed="0.0"/>
  <flow id="JF71" begin="0" fromJunction="J7" toJunction="J3" end="360" vehsPerHour="44.17187555119977" departLane="free" arrivalSpeed="0.0"/>
  <flow id="JF72" begin="0" fromJunction="J7" toJunction="J8" end="360" vehsPerHour="51.94922927558994" departLane="free" arrivalSpeed="0.0"/>
  <flow id="JF73" begin="0" fromJunction="J7" toJunction="J9" end="360" vehsPerHour="44.571127630092924" departLane="free" arrivalSpeed="0.0"/>
  <flow id="JF74" begin="0" fromJunction="J8" toJunction="J0" end="360" vehsPerHour="53.50417517867647" departLane="free" arrivalSpeed="0.0"/>
  <flow id="JF75" begin="0" fromJunction="J8" toJunction="J12" end="360" vehsPerHour="47.64069306122003" departLane="free" arrivalSpeed="0.0"/>
  <flow id="JF76" begin="0" fromJunction="J8" toJunction="J13" end="360" vehsPerHour="46.861041961190516" departLane="free" arrivalSpeed="0.0"/>
  <flow id="JF77" begin="0" fromJunction="J8" toJunction="J14" end="360" vehsPerHour="13.904291173298006" departLane="free" arrivalSpeed="0.0"/>
  <flow id="JF78" begin="0" fromJunction="J8" toJunction="J15" end="360" vehsPerHour="55.512979076809245" departLane="free" arrivalSpeed="0.0"/>
  <flow id="JF79" begin="0" fromJunction="J8" toJunction="J16" end="360" vehsPerHour="25.010452499771954" departLane="free" arrivalSpeed="0.0"/>
  <flow id="JF80" begin="0" fromJunction="J8" toJunction="J2" end="360" vehsPerHour="58.13279648464011" departLane="free" arrivalSpeed="0.0"/>
  <flow id="JF81" begin="0" fromJunction="J8" toJunction="J6" end="360" vehsPerHour="31.644705526001577" departLane="free" arrivalSpeed="0.0"/>
  <flow id="JF82" begin="0" fromJunction="J8" toJunction="J7" end="360" vehsPerHour="18.137672564507334" departLane="free" arrivalSpeed="0.0"/>
  <flow id="JF83" begin="0" fromJunction="J9" toJunction="J0" end="360" vehsPerHour="53.921621983119465" departLane="free" arrivalSpeed="0.0"/>
  <flow id="JF84" begin="0" fromJunction="J9" toJunction="J12" end="360" vehsPerHour="12.00008308355172" departLane="free" arrivalSpeed="0.0"/>
  <flow id="JF85" begin="0" fromJunction="J9" toJunction="J13" end="360" vehsPerHour="62.54998853722995" departLane="free" arrivalSpeed="0.0"/>
  <flow id="JF86" begin="0" fromJunction="J9" toJunction="J15" end="360" vehsPerHour="34.66254450595833" departLane="free" arrivalSpeed="0.0"/>
  <flow id="JF87" begin="0" fromJunction="J9" toJunction="J16" end="360" vehsPerHour="45.43801828821254" departLane="free" arrivalSpeed="0.0"/>
  <flow id="JF88" begin="0" fromJunction="J9" toJunction="J3" end="360" vehsPerHour="52.94685526330369" departLane="free" arrivalSpeed="0.0"/>
  <flow id="JF89" begin="0" fromJunction="J9" toJunction="J6" end="360" vehsPerHour="20.666845806001728" departLane="free" arrivalSpeed="0.0"/>
  <flow id="JF90" begin="0" fromJunction="J9" toJunction="J7" end="360" vehsPerHour="9.024996648014827" departLane="free" arrivalSpeed="0.0"/>
  <flow id="JF91" begin="0" fromJunction="J9" toJunction="J8" end="360" vehsPerHour="25.81637519839192" departLane="free" arrivalSpeed="0.0"/>
  <flow id="JF92" begin="360" fromJunction="J0" toJunction="J12" end="720" vehsPerHour="29.200580864618995" departLane="free" arrivalSpeed="0.0"/>
  <flow id="JF93" begin="360" fromJunction="J0" toJunction="J13" end="720" vehsPerHour="1.123665790952974" departLane="free" arrivalSpeed="0.0"/>
  <flow id="JF94" begin="360" fromJunction="J0" toJunction="J14" end="720" vehsPerHour="9.377629734397535" departLane="free" arrivalSpeed="0.0"/>
  <flow id="JF95" begin="360" fromJunction="J0" toJunction="J15" end="720" vehsPerHour="56.11082444597377" departLane="free" arrivalSpeed="0.0"/>
  <flow id="JF96" begin="360" fromJunction="J0" toJunction="J2" end="720" vehsPerHour="44.98216132203186" departLane="free" arrivalSpeed="0.0"/>
  <flow id="JF97" begin="360" fromJunction="J0" toJunction="J3" end="720" vehsPerHour="43.75822816625416" departLane="free" arrivalSpeed="0.0"/>
  <flow id="JF98" begin="360" fromJunction="J0" toJunction="J6" end="720" vehsPerHour="7.258233568363674" departLane="free" arrivalSpeed="0.0"/>
  <flow id="JF99" begin="360" fromJunction="J0" toJunction="J8" end="720" vehsPerHour="52.06947578580207" departLane="free" arrivalSpeed="0.0"/>
  <flow id="JF100" begin="360" fromJunction="J12" toJunction="J0" end="720" vehsPerHour="63.53157353331369" departLane="free" arrivalSpeed="0.0"/>
  <flow id="JF101" begin="360" fromJunction="J12" toJunction="J14" end="720" vehsPerHour="12.337798659149298" departLane="free" arrivalSpeed="0.0"/>
  <flow id="JF102" begin="360" fromJunction="J12" toJunction="J15" end="720" vehsPerHour="12.476222922254069" departLane="free" arrivalSpeed="0.0"/>
  <flow id="JF103" begin="360" fromJunction="J12" toJunction="J16" end="720" vehsPerHour="64.0179458833526" departLane="free" arrivalSpeed="0.0"/>
  <flow id="JF104" begin="360" fromJunction="J12" toJunction="J2" end="720" vehsPerHour="65.02950090226264" departLane="free" arrivalSpeed="0.0"/>
  <flow id="JF105" begin="360" fromJunction="J12" toJunction="J3" end="720" vehsPerHour="21.09201994634548" departLane="free" arrivalSpeed="0.0"/>
  <flow id="JF106" begin="360" fromJunction="J12" toJunction="J6" end="720" vehsPerHour="53.60204101346223" departLane="free" arrivalSpeed="0.0"/>
  <flow id="JF107" begin="360" fromJunction="J12" toJunction="J7" end="720" vehsPerHour="38.90235515680997" departLane="free" arrivalSpeed="0.0"/>
  <flow id="JF108" begin="360" fromJunction="J12" toJunction="J8" end="720" vehsPerHour="15.217936471651914" departLane="free" arrivalSpeed="0.0"/>
  <flow id="JF109" begin="360" fromJunction="J12" toJunction="J9" end="720" vehsPerHour="38.33951975408494" departLane="free" arrivalSpeed="0.0"/>
  <flow id="JF110" begin="360" fromJunction="J13" toJunction="J12" end="720" vehsPerHour="16.356895349785653" departLane="free" arrivalSpeed="0.0"/>
  <flow id="JF111" begin="360" fromJunction="J13" toJunction="J14" end="720" vehsPerHour="38.77419383545831" departLane="free" arrivalSpeed="0.0"/>
  <flow id="JF112" begin="360" fromJunction="J13" toJunction="J2" end="720" vehsPerHour="20.0698663017494" departLane="free" arrivalSpeed="0.0"/>
  <flow id="JF113" begin="360" fromJunction="J13" toJunction="J3" end="720" vehsPerHour="32.59815654087328" departLane="free" arrivalSpeed="0.0"/>
  <flow id="JF114" begin="360" fromJunction="J13" toJunction="J6" end="720" vehsPerHour="53.4141650767994" departLane="free" arrivalSpeed="0.0"/>
  <flow id="JF115" begin="360" fromJunction="J13" toJunction="J7" end="720" vehsPerHour="43.97418999114332" departLane="free" arrivalSpeed="0.0"/>
  <flow id="JF116" begin="360" fromJunction="J13" toJunction="J8" end="720" vehsPerHour="57.00557345377638" departLane="free" arrivalSpeed="0.0"/>
  <flow id="JF117" begin="360" fromJunction="J13" toJunction="J9" end="720" vehsPerHour="64.97216160627808" departLane="free" arrivalSpeed="0.0"/>
  <flow id="JF118" begin="360" fromJunction="J14" toJunction="J0" end="720" vehsPerHour="17.637492226385362" departLane="free" arrivalSpeed="0.0"/>
  <flow id="JF119" begin="360" fromJunction="J14" toJunction="J12" end="720" vehsPerHour="55.88237276955089" departLane="free" arrivalSpeed="0.0"/>
  <flow id="JF120" begin="360" fromJunction="J14" toJunction="J13" end="720" vehsPerHour="35.495324808705774" departLane="free" arrivalSpeed="0.0"/>
  <flow id="JF121" begin="360" fromJunction="J14" toJunction="J15" end="720" vehsPerHour="65.09600261959156" departLane="free" arrivalSpeed="0.0"/>
  <flow id="JF122" begin="360" fromJunction="J14" toJunction="J2" end="720" vehsPerHour="46.04379804852958" departLane="free" arrivalSpeed="0.0"/>
  <flow id="JF123" begin="360" fromJunction="J14" toJunction="J3" end="720" vehsPerHour="49.866537108113214" departLane="free" arrivalSpeed="0.0"/>
  <flow id="JF124" begin="360" fromJunction="J14" toJunction="J6" end="720" vehsPerHour="59.97940045010619" departLane="free" arrivalSpeed="0.0"/>
  <flow id="JF125" begin="360" fromJunction="J14" toJunction="J8" end="720" vehsPerHour="50.490313445914644" departLane="free" arrivalSpeed="0.0"/>
  <flow id="JF126" begin="360" fromJunction="J14" toJunction="J9" end="720" vehsPerHour="34.56951495004725" departLane="free" arrivalSpeed="0.0"/>
  <flow id="JF127" begin="360" fromJunction="J15" toJunction="J0" end="720" vehsPerHour="63.27251285923496" departLane="free" arrivalSpeed="0.0"/>
  <flow id="JF128" begin="360" fromJunction="J15" toJunction="J13" end="720" vehsPerHour="16.652916534371048" departLane="free" arrivalSpeed="0.0"/>
  <flow id="JF129" begin="360" fromJunction="J15" toJunction="J14" end="720" vehsPerHour="57.501588513392505" departLane="free" arrivalSpeed="0.0"/>
  <flow id="JF130" begin="360" fromJunction="J15" toJunction="J2" end="720" vehsPerHour="7.897699276031331" departLane="free" arrivalSpeed="0.0"/>
  <flow id="JF131" begin="360" fromJunction="J15" toJunction="J3" end="720" vehsPerHour="36.33986309625186" departLane="free" arrivalSpeed="0.0"/>
  <flow id="JF132" begin="360" fromJunction="J15" toJunction="J6" end="720" vehsPerHour="32.235791650674706" departLane="free" arrivalSpeed="0.0"/>
  <flow id="JF133" begin="360" fromJunction="J15" toJunction="J7" end="720" vehsPerHour="46.42405048877652" departLane="free" arrivalSpeed="0.0"/>
  <flow id="JF134" begin="360" fromJunction="J15" toJunction="J8" end="720" vehsPerHour="67.22738419687651" departLane="free" arrivalSpeed="0.0"/>
  <flow id="JF135" begin="360" fromJunction="J16" toJunction="J0" end="720" vehsPerHour="24.079154007640337" departLane="free" arrivalSpeed="0.0"/>
  <flow id="JF136" begin="360" fromJunction="J16" toJunction="J13" end="720" vehsPerHour="11.992109805063967" departLane="free" arrivalSpeed="0.0"/>
  <flow id="JF137" begin="360" fromJunction="J16" toJunction="J15" end="720" vehsPerHour="116.94526370722751" departLane="free" arrivalSpeed="0.0"/>
  <flow id="JF138" begin="360" fromJunction="J16" toJunction="J2" end="720" vehsPerHour="121.13863791250509" departLane="free" arrivalSpeed="0.0"/>
  <flow id="JF139" begin="360" fromJunction="J16" toJunction="J3" end="720" vehsPerHour="77.35345199654205" departLane="free" arrivalSpeed="0.0"/>
  <flow id="JF140" begin="360" fromJunction="J16" toJunction="J6" end="720" vehsPerHour="99.01811173621644" departLane="free" arrivalSpeed="0.0"/>
  <flow id="JF141" begin="360" fromJunction="J16" toJunction="J7" end="720" vehsPerHour="2.976998352374801" departLane="free" arrivalSpeed="0.0"/>
  <flow id="JF142" begin="360" fromJunction="J16" toJunction="J8" end="720" vehsPerHour="28.358870908321443" departLane="free" arrivalSpeed="0.0"/>
  <flow id="JF143" begin="360" fromJunction="J16" toJunction="J9" end="720" vehsPerHour="93.0785593866784" departLane="free" arrivalSpeed="0.0"/>
  <flow id="JF144" begin="360" fromJunction="J2" toJunction="J0" end="720" vehsPerHour="67.5111031283254" departLane="free" arrivalSpeed="0.0"/>
  <flow id="JF145" begin="360" fromJunction="J2" toJunction="J12" end="720" vehsPerHour="126.6701609003779" departLane="free" arrivalSpeed="0.0"/>
  <flow id="JF146" begin="360" fromJunction="J2" toJunction="J13" end="720" vehsPerHour="86.12454988635622" departLane="free" arrivalSpeed="0.0"/>
  <flow id="JF147" begin="360" fromJunction="J2" toJunction="J16" end="720" vehsPerHour="131.43648415116587" departLane="free" arrivalSpeed="0.0"/>
  <flow id="JF148" begin="360" fromJunction="J2" toJunction="J6" end="720" vehsPerHour="116.17201699324133" departLane="free" arrivalSpeed="0.0"/>
  <flow id="JF149" begin="360" fromJunction="J2" toJunction="J7" end="720" vehsPerHour="1.0697444335744892" departLane="free" arrivalSpeed="0.0"/>
  <flow id="JF150" begin="360" fromJunction="J2" toJunction="J8" end="720" vehsPerHour="136.8645682134607" departLane="free" arrivalSpeed="0.0"/>
  <flow id="JF151" begin="360" fromJunction="J2" toJunction="J9" end="720" vehsPerHour="41.03692600068198" departLane="free" arrivalSpeed="0.0"/>
  <flow id="JF152" begin="360" fromJunction="J3" toJunction="J0" end="720" vehsPerHour="24.97024481328938" departLane="free" arrivalSpeed="0.0"/>
  <flow id="JF153" begin="360" fromJunction="J3" toJunction="J13" end="720" vehsPerHour="63.11334830765953" departLane="free" arrivalSpeed="0.0"/>
  <flow id="JF154" begin="360" fromJunction="J3" toJunction="J15" end="720" vehsPerHour="59.09179684328699" departLane="free" arrivalSpeed="0.0"/>
  <flow id="JF155" begin="360" fromJunction="J3" toJunction="J16" end="720" vehsPerHour="0.06677088752009978" departLane="free" arrivalSpeed="0.0"/>
  <flow id="JF156" begin="360" fromJunction="J3" toJunction="J2" end="720" vehsPerHour="9.818105424403925" departLane="free" arrivalSpeed="0.0"/>
  <flow id="JF157" begin="360" fromJunction="J3" toJunction="J6" end="720" vehsPerHour="19.72879471850206" departLane="free" arrivalSpeed="0.0"/>
  <flow id="JF158" begin="360" fromJunction="J3" toJunction="J7" end="720" vehsPerHour="48.714408768160425" departLane="free" arrivalSpeed="0.0"/>
  <flow id="JF159" begin="360" fromJunction="J3" toJunction="J8" end="720" vehsPerHour="40.95426519348733" departLane="free" arrivalSpeed="0.0"/>
  <flow id="JF160" begin="360" fromJunction="J3" toJunction="J9" end="720" vehsPerHour="25.789231980950646" departLane="free" arrivalSpeed="0.0"/>
  <flow id="JF161" begin="360" fromJunction="J6" toJunction="J13" end="720" vehsPerHour="42.391703209791984" departLane="free" arrivalSpeed="0.0"/>
  <flow id="JF162" begin="360" fromJunction="J6" toJunction="J14" end="720" vehsPerHour="10.7575222352112" departLane="free" arrivalSpeed="0.0"/>
  <flow id="JF163" begin="360" fromJunction="J6" toJunction="J15" end="720" vehsPerHour="56.94554652310904" departLane="free" arrivalSpeed="0.0"/>
  <flow id="JF164" begin="360" fromJunction="J6" toJunction="J16" end="720" vehsPerHour="21.579127446218905" departLane="free" arrivalSpeed="0.0"/>
  <flow id="JF165" begin="360" fromJunction="J6" toJunction="J2" end="720" vehsPerHour="68.45745564892489" departLane="free" arrivalSpeed="0.0"/>
  <flow id="JF166" begin="360" fromJunction="J6" toJunction="J3" end="720" vehsPerHour="55.125822470803826" departLane="free" arrivalSpeed="0.0"/>
  <flow id="JF167" begin="360" fromJunction="J6" toJunction="J7" end="720" vehsPerHour="4.2099774991382946" departLane="free" arrivalSpeed="0.0"/>
  <flow id="JF168" begin="360" fromJunction="J6" toJunction="J8" end="720" vehsPerHour="22.616890353442702" departLane="free" arrivalSpeed="0.0"/>
  <flow id="JF169" begin="360" fromJunction="J6" toJunction="J9" end="720" vehsPerHour="18.40534359904478" departLane="free" arrivalSpeed="0.0"/>
  <flow id="JF170" begin="360" fromJunction="J7" toJunction="J0" end="720" vehsPerHour="10.416634621508555" departLane="free" arrivalSpeed="0.0"/>
  <flow id="JF171" begin="360" fromJunction="J7" toJunction="J12" end="720" vehsPerHour="18.79876083861218" departLane="free" arrivalSpeed="0.0"/>
  <flow id="JF172" begin="360" fromJunction="J7" toJunction="J13" end="720" vehsPerHour="1.0143607203276193" departLane="free" arrivalSpeed="0.0"/>
  <flow id="JF173" begin="360" fromJunction="J7" toJunction="J16" end="720" vehsPerHour="26.257418921205584" departLane="free" arrivalSpeed="0.0"/>
  <flow id="JF174" begin="360" fromJunction="J7" toJunction="J3" end="720" vehsPerHour="24.63986621314313" departLane="free" arrivalSpeed="0.0"/>
  <flow id="JF175" begin="360" fromJunction="J7" toJunction="J6" end="720" vehsPerHour="34.720628020783856" departLane="free" arrivalSpeed="0.0"/>
  <flow id="JF176" begin="360" fromJunction="J7" toJunction="J8" end="720" vehsPerHour="36.1127237920289" departLane="free" arrivalSpeed="0.0"/>
  <flow id="JF177" begin="360" fromJunction="J8" toJunction="J0" end="720" vehsPerHour="4.779262423895391" departLane="free" arrivalSpeed="0.0"/>
  <flow id="JF178" begin="360" fromJunction="J8" toJunction="J12" end="720" vehsPerHour="19.24881376831016" departLane="free" arrivalSpeed="0.0"/>
  <flow id="JF179" begin="360" fromJunction="J8" toJunction="J13" end="720" vehsPerHour="57.32979655565383" departLane="free" arrivalSpeed="0.0"/>
  <flow id="JF180" begin="360" fromJunction="J8" toJunction="J15" end="720" vehsPerHour="32.85171150054652" departLane="free" arrivalSpeed="0.0"/>
  <flow id="JF181" begin="360" fromJunction="J8" toJunction="J16" end="720" vehsPerHour="4.637849715049988" departLane="free" arrivalSpeed="0.0"/>
  <flow id="JF182" begin="360" fromJunction="J8" toJunction="J7" end="720" vehsPerHour="47.34654140625874" departLane="free" arrivalSpeed="0.0"/>
  <flow id="JF183" begin="360" fromJunction="J8" toJunction="J9" end="720" vehsPerHour="49.70906323933322" departLane="free" arrivalSpeed="0.0"/>
  <flow id="JF184" begin="360" fromJunction="J9" toJunction="J0" end="720" vehsPerHour="53.52479717319419" departLane="free" arrivalSpeed="0.0"/>
  <flow id="JF185" begin="360" fromJunction="J9" toJunction="J12" end="720" vehsPerHour="20.962013567112916" departLane="free" arrivalSpeed="0.0"/>
  <flow id="JF186" begin="360" fromJunction="J9" toJunction="J13" end="720" vehsPerHour="16.299223936122996" departLane="free" arrivalSpeed="0.0"/>
  <flow id="JF187" begin="360" fromJunction="J9" toJunction="J14" end="720" vehsPerHour="65.8902812644908" departLane="free" arrivalSpeed="0.0"/>
  <flow id="JF188" begin="360" fromJunction="J9" toJunction="J15" end="720" vehsPerHour="20.804518317858257" departLane="free" arrivalSpeed="0.0"/>
  <flow id="JF189" begin="360" fromJunction="J9" toJunction="J2" end="720" vehsPerHour="61.175681076923986" departLane="free" arrivalSpeed="0.0"/>
  <flow id="JF190" begin="360" fromJunction="J9" toJunction="J3" end="720" vehsPerHour="11.82939537100138" departLane="free" arrivalSpeed="0.0"/>
  <flow id="JF191" begin="360" fromJunction="J9" toJunction="J6" end="720" vehsPerHour="45.146158494083494" departLane="free" arrivalSpeed="0.0"/>
  <flow id="JF192" begin="720" fromJunction="J0" toJunction="J13" end="1080" vehsPerHour="42.16173567172436" departLane="free" arrivalSpeed="0.0"/>
  <flow id="JF193" begin="720" fromJunction="J0" toJunction="J15" end="1080" vehsPerHour="15.463380781373004" departLane="free" arrivalSpeed="0.0"/>
  <flow id="JF194" begin="720" fromJunction="J0" toJunction="J16" end="1080" vehsPerHour="24.198690448267634" departLane="free" arrivalSpeed="0.0"/>
  <flow id="JF195" begin="720" fromJunction="J0" toJunction="J2" end="1080" vehsPerHour="30.257266324017674" departLane="free" arrivalSpeed="0.0"/>
  <flow id="JF196" begin="720" fromJunction="J0" toJunction="J3" end="1080" vehsPerHour="55.43556941980145" departLane="free" arrivalSpeed="0.0"/>
  <flow id="JF197" begin="720" fromJunction="J0" toJunction="J7" end="1080" vehsPerHour="22.257759368764656" departLane="free" arrivalSpeed="0.0"/>
  <flow id="JF198" begin="720" fromJunction="J12" toJunction="J0" end="1080" vehsPerHour="60.38868611692035" departLane="free" arrivalSpeed="0.0"/>
  <flow id="JF199" begin="720" fromJunction="J12" toJunction="J13" end="1080" vehsPerHour="6.585868938313495" departLane="free" arrivalSpeed="0.0"/>
  <flow id="JF200" begin="720" fromJunction="J12" toJunction="J14" end="1080" vehsPerHour="9.55054303994914" departLane="free" arrivalSpeed="0.0"/>
  <flow id="JF201" begin="720" fromJunction="J12" toJunction="J15" end="1080" vehsPerHour="32.44501698117979" departLane="free" arrivalSpeed="0.0"/>
  <flow id="JF202" begin="720" fromJunction="J12" toJunction="J16" end="1080" vehsPerHour="42.14787602357468" departLane="free" arrivalSpeed="0.0"/>
  <flow id="JF203" begin="720" fromJunction="J12" toJunction="J2" end="1080" vehsPerHour="68.22318557174272" departLane="free" arrivalSpeed="0.0"/>