<?xml version="1.0" encoding="UTF-8"?>
<routes xmlns:xsi="http://www.w3.org/2001/XMLSchema-instance" xsi:noNamespaceSchemaLocation="http://sumo.dlr.de/xsd/routes_file.xsd">
  <flow id="JF39840" begin="0" fromJunction="J11" toJunction="J9" end="3600" vehsPerHour="18.32"/>
  <flow id="JF39841" begin="0" fromJunction="J11" toJunction="J8" end="3600" vehsPerHour="18.32"/>
  <flow id="JF39842" begin="0" fromJunction="J11" toJunction="J7" end="3600" vehsPerHour="18.32"/>
  <flow id="JF39843" begin="0" fromJunction="J11" toJunction="J22" end="3600" vehsPerHour="18.32"/>
  <flow id="JF39844" begin="0" fromJunction="J11" toJunction="J21" end="3600" vehsPerHour="18.32"/>
  <flow id="JF39845" begin="0" fromJunction="J11" toJunction="J20" end="3600" vehsPerHour="18.32"/>
  <flow id="JF39846" begin="0" fromJunction="J11" toJunction="J19" end="3600" vehsPerHour="18.32"/>
  <flow id="JF39847" begin="0" fromJunction="J11" toJunction="J18" end="3600" vehsPerHour="18.32"/>
  <flow id="JF39848" begin="0" fromJunction="J11" toJunction="J17" end="3600" vehsPerHour="18.32"/>
  <flow id="JF39849" begin="0" fromJunction="J11" toJunction="J16" end="3600" vehsPerHour="18.32"/>
  <flow id="JF39850" begin="0" fromJunction="J11" toJunction="J15" end="3600" vehsPerHour="18.32"/>
  <flow id="JF39851" begin="0" fromJunction="J11" toJunction="J14" end="3600" vehsPerHour="18.32"/>
  <flow id="JF39852" begin="0" fromJunction="J11" toJunction="J13" end="3600" vehsPerHour="18.32"/>
  <flow id="JF39853" begin="0" fromJunction="J11" toJunction="J12" end="3600" vehsPerHour="18.32"/>
  <flow id="JF39854" begin="0" fromJunction="J11" toJunction="J10" end="3600" vehsPerHour="18.32"/>
  <flow id="JF39855" begin="0" fromJunction="J12" toJunction="J9" end="3600" vehsPerHour="18.32"/>
  <flow id="JF39856" begin="0" fromJunction="J12" toJunction="J8" end="3600" vehsPerHour="18.32"/>
  <flow id="JF39857" begin="0" fromJunction="J12" toJunction="J7" end="3600" vehsPerHour="18.32"/>
  <flow id="JF39858" begin="0" fromJunction="J12" toJunction="J22" end="3600" vehsPerHour="18.32"/>
  <flow id="JF39859" begin="0" fromJunction="J12" toJunction="J21" end="3600" vehsPerHour="18.32"/>
  <flow id="JF39860" begin="0" fromJunction="J12" toJunction="J20" end="3600" vehsPerHour="18.32"/>
  <flow id="JF39861" begin="0" fromJunction="J12" toJunction="J19" end="3600" vehsPerHour="18.32"/>
  <flow id="JF39862" begin="0" fromJunction="J12" toJunction="J18" end="3600" vehsPerHour="18.32"/>
  <flow id="JF39863" begin="0" fromJunction="J12" toJunction="J17" end="3600" vehsPerHour="18.32"/>
  <flow id="JF39864" begin="0" fromJunction="J12" toJunction="J16" end="3600" vehsPerHour="18.32"/>
  <flow id="JF39865" begin="0" fromJunction="J12" toJunction="J15" end="3600" vehsPerHour="18.32"/>
  <flow id="JF39866" begin="0" fromJunction="J12" toJunction="J14" end="3600" vehsPerHour="18.32"/>
  <flow id="JF39867" begin="0" fromJunction="J12" toJunction="J13" end="3600" vehsPerHour="18.32"/>
  <flow id="JF39868" begin="0" fromJunction="J12" toJunction="J11" end="3600" vehsPerHour="18.32"/>
  <flow id="JF39869" begin="0" fromJunction="J12" toJunction="J10" end="3600" vehsPerHour="18.32"/>
  <flow id="JF39870" begin="0" fromJunction="J13" toJunction="J9" end="3600" vehsPerHour="18.32"/>
  <flow id="JF39871" begin="0" fromJunction="J13" toJunction="J8" end="3600" vehsPerHour="18.32"/>
  <flow id="JF39872" begin="0" fromJunction="J13" toJunction="J7" end="3600" vehsPerHour="18.32"/>
  <flow id="JF39873" begin="0" fromJunction="J13" toJunction="J22" end="3600" vehsPerHour="18.32"/>
  <flow id="JF39874" begin="0" fromJunction="J13" toJunction="J21" end="3600" vehsPerHour="18.32"/>
  <flow id="JF39875" begin="0" fromJunction="J13" toJunction="J20" end="3600" vehsPerHour="18.32"/>
  <flow id="JF39876" begin="0" fromJunction="J13" toJunction="J19" end="3600" vehsPerHour="18.32"/>
  <flow id="JF39877" begin="0" fromJunction="J13" toJunction="J18" end="3600" vehsPerHour="18.32"/>
  <flow id="JF39878" begin="0" fromJunction="J13" toJunction="J17" end="3600" vehsPerHour="18.32"/>
  <flow id="JF39879" begin="0" fromJunction="J13" toJunction="J16" end="3600" vehsPerHour="18.32"/>
  <flow id="JF39880" begin="0" fromJunction="J13" toJunction="J15" end="3600" vehsPerHour="18.32"/>
  <flow id="JF39881" begin="0" fromJunction="J13" toJunction="J14" end="3600" vehsPerHour="18.32"/>
  <flow id="JF39882" begin="0" fromJunction="J13" toJunction="J12" end="3600" vehsPerHour="18.32"/>
  <flow id="JF39883" begin="0" fromJunction="J13" toJunction="J11" end="3600" vehsPerHour="18.32"/>
  <flow id="JF39884" begin="0" fromJunction="J13" toJunction="J10" end="3600" vehsPerHour="18.32"/>
  <flow id="JF39885" begin="0" fromJunction="J14" toJunction="J9" end="3600" vehsPerHour="18.32"/>
  <flow id="JF39886" begin="0" fromJunction="J14" toJunction="J8" end="3600" vehsPerHour="18.32"/>
  <flow id="JF39887" begin="0" fromJunction="J14" toJunction="J7" end="3600" vehsPerHour="18.32"/>
  <flow id="JF39888" begin="0" fromJunction="J14" toJunction="J22" end="3600" vehsPerHour="18.32"/>
  <flow id="JF39889" begin="0" fromJunction="J14" toJunction="J21" end="3600" vehsPerHour="18.32"/>
  <flow id="JF39890" begin="0" fromJunction="J14" toJunction="J20" end="3600" vehsPerHour="18.32"/>
  <flow id="JF39891" begin="0" fromJunction="J14" toJunction="J19" end="3600" vehsPerHour="18.32"/>
  <flow id="JF39892" begin="0" fromJunction="J14" toJunction="J18" end="3600" vehsPerHour="18.32"/>
  <flow id="JF39893" begin="0" fromJunction="J14" toJunction="J17" end="3600" vehsPerHour="18.32"/>
  <flow id="JF39894" begin="0" fromJunction="J14" toJunction="J16" end="3600" vehsPerHour="18.32"/>
  <flow id="JF39895" begin="0" fromJunction="J14" toJunction="J15" end="3600" vehsPerHour="18.32"/>
  <flow id="JF39896" begin="0" fromJunction="J14" toJunction="J13" end="3600" vehsPerHour="18.32"/>
  <flow id="JF39897" begin="0" fromJunction="J14" toJunction="J12" end="3600" vehsPerHour="18.32"/>
  <flow id="JF39898" begin="0" fromJunction="J14" toJunction="J11" end="3600" vehsPerHour="18.32"/>
  <flow id="JF39899" begin="0" fromJunction="J14" toJunction="J10" end="3600" vehsPerHour="18.32"/>
  <flow id="JF39900" begin="0" fromJunction="J15" toJunction="J9" end="3600" vehsPerHour="18.32"/>
  <flow id="JF39901" begin="0" fromJunction="J15" toJunction="J8" end="3600" vehsPerHour="18.32"/>
  <flow id="JF39902" begin="0" fromJunction="J15" toJunction="J7" end="3600" vehsPerHour="18.32"/>
  <flow id="JF39903" begin="0" fromJunction="J15" toJunction="J22" end="3600" vehsPerHour="18.32"/>
  <flow id="JF39904" begin="0" fromJunction="J15" toJunction="J21" end="3600" vehsPerHour="18.32"/>
  <flow id="JF39905" begin="0" fromJunction="J15" toJunction="J20" end="3600" vehsPerHour="18.32"/>
  <flow id="JF39906" begin="0" fromJunction="J15" toJunction="J19" end="3600" vehsPerHour="18.32"/>
  <flow id="JF39907" begin="0" fromJunction="J15" toJunction="J18" end="3600" vehsPerHour="18.32"/>
  <flow id="JF39908" begin="0" fromJunction="J15" toJunction="J17" end="3600" vehsPerHour="18.32"/>
  <flow id="JF39909" begin="0" fromJunction="J15" toJunction="J16" end="3600" vehsPerHour="18.32"/>
  <flow id="JF39910" begin="0" fromJunction="J15" toJunction="J14" end="3600" vehsPerHour="18.32"/>
  <flow id="JF39911" begin="0" fromJunction="J15" toJunction="J13" end="3600" vehsPerHour="18.32"/>
  <flow id="JF39912" begin="0" fromJunction="J15" toJunction="J12" end="3600" vehsPerHour="18.32"/>
  <flow id="JF39913" begin="0" fromJunction="J15" toJunction="J11" end="3600" vehsPerHour="18.32"/>
  <flow id="JF39914" begin="0" fromJunction="J15" toJunction="J10" end="3600" vehsPerHour="18.32"/>
  <flow id="JF39915" begin="0" fromJunction="J16" toJunction="J9" end="3600" vehsPerHour="18.32"/>
  <flow id="JF39916" begin="0" fromJunction="J16" toJunction="J8" end="3600" vehsPerHour="18.32"/>
  <flow id="JF39917" begin="0" fromJunction="J16" toJunction="J7" end="3600" vehsPerHour="18.32"/>
  <flow id="JF39918" begin="0" fromJunction="J16" toJunction="J22" end="3600" vehsPerHour="18.32"/>
  <flow id="JF39919" begin="0" fromJunction="J16" toJunction="J21" end="3600" vehsPerHour="18.32"/>
  <flow id="JF39920" begin="0" fromJunction="J16" toJunction="J20" end="3600" vehsPerHour="18.32"/>
  <flow id="JF39921" begin="0" fromJunction="J16" toJunction="J19" end="3600" vehsPerHour="18.32"/>
  <flow id="JF39922" begin="0" fromJunction="J16" toJunction="J18" end="3600" vehsPerHour="18.32"/>
  <flow id="JF39923" begin="0" fromJunction="J16" toJunction="J17" end="3600" vehsPerHour="18.32"/>
  <flow id="JF39924" begin="0" fromJunction="J16" toJunction="J15" end="3600" vehsPerHour="18.32"/>
  <flow id="JF39925" begin="0" fromJunction="J16" toJunction="J14" end="3600" vehsPerHour="18.32"/>
  <flow id="JF39926" begin="0" fromJunction="J16" toJunction="J13" end="3600" vehsPerHour="18.32"/>
  <flow id="JF39927" begin="0" fromJunction="J16" toJunction="J12" end="3600" vehsPerHour="18.32"/>
  <flow id="JF39928" begin="0" fromJunction="J16" toJunction="J11" end="3600" vehsPerHour="18.32"/>
  <flow id="JF39929" begin="0" fromJunction="J16" toJunction="J10" end="3600" vehsPerHour="18.32"/>
  <flow id="JF39930" begin="0" fromJunction="J17" toJunction="J9" end="3600" vehsPerHour="18.32"/>
  <flow id="JF39931" begin="0" fromJunction="J17" toJunction="J8" end="3600" vehsPerHour="18.32"/>
  <flow id="JF39932" begin="0" fromJunction="J17" toJunction="J7" end="3600" vehsPerHour="18.32"/>
  <flow id="JF39933" begin="0" fromJunction="J17" toJunction="J22" end="3600" vehsPerHour="18.32"/>
  <flow id="JF39934" begin="0" fromJunction="J17" toJunction="J21" end="3600" vehsPerHour="18.32"/>
  <flow id="JF39935" begin="0" fromJunction="J17" toJunction="J20" end="3600" vehsPerHour="18.32"/>
  <flow id="JF39936" begin="0" fromJunction="J17" toJunction="J19" end="3600" vehsPerHour="18.32"/>
  <flow id="JF39937" begin="0" fromJunction="J17" toJunction="J18" end="3600" vehsPerHour="18.32"/>
  <flow id="JF39938" begin="0" fromJunction="J17" toJunction="J16" end="3600" vehsPerHour="18.32"/>
  <flow id="JF39939" begin="0" fromJunction="J17" toJunction="J15" end="3600" vehsPerHour="18.32"/>
  <flow id="JF39940" begin="0" fromJunction="J17" toJunction="J14" end="3600" vehsPerHour="18.32"/>
  <flow id="JF39941" begin="0" fromJunction="J17" toJunction="J13" end="3600" vehsPerHour="18.32"/>
  <flow id="JF39942" begin="0" fromJunction="J17" toJunction="J12" end="3600" vehsPerHour="18.32"/>
  <flow id="JF39943" begin="0" fromJunction="J17" toJunction="J11" end="3600" vehsPerHour="18.32"/>
  <flow id="JF39944" begin="0" fromJunction="J17" toJunction="J10" end="3600" vehsPerHour="18.32"/>
  <flow id="JF39945" begin="0" fromJunction="J18" toJunction="J9" end="3600" vehsPerHour="18.32"/>
  <flow id="JF39946" begin="0" fromJunction="J18" toJunction="J8" end="3600" vehsPerHour="18.32"/>
  <flow id="JF39947" begin="0" fromJunction="J18" toJunction="J7" end="3600" vehsPerHour="18.32"/>
  <flow id="JF39948" begin="0" fromJunction="J18" toJunction="J22" end="3600" vehsPerHour="18.32"/>
  <flow id="JF39949" begin="0" fromJunction="J18" toJunction="J21" end="3600" vehsPerHour="18.32"/>
  <flow id="JF39950" begin="0" fromJunction="J18" toJunction="J20" end="3600" vehsPerHour="18.32"/>
  <flow id="JF39951" begin="0" fromJunction="J18" toJunction="J19" end="3600" vehsPerHour="18.32"/>
  <flow id="JF39952" begin="0" fromJunction="J18" toJunction="J17" end="3600" vehsPerHour="18.32"/>
  <flow id="JF39953" begin="0" fromJunction="J18" toJunction="J16" end="3600" vehsPerHour="18.32"/>
  <flow id="JF39954" begin="0" fromJunction="J18" toJunction="J15" end="3600" vehsPerHour="18.32"/>
  <flow id="JF39955" begin="0" fromJunction="J18" toJunction="J14" end="3600" vehsPerHour="18.32"/>
  <flow id="JF39956" begin="0" fromJunction="J18" toJunction="J13" end="3600" vehsPerHour="18.32"/>
  <flow id="JF39957" begin="0" fromJunction="J18" toJunction="J12" end="3600" vehsPerHour="18.32"/>
  <flow id="JF39958" begin="0" fromJunction="J18" toJunction="J11" end="3600" vehsPerHour="18.32"/>
  <flow id="JF39959" begin="0" fromJunction="J18" toJunction="J10" end="3600" vehsPerHour="18.32"/>
  <flow id="JF39960" begin="0" fromJunction="J19" toJunction="J9" end="3600" vehsPerHour="18.32"/>
  <flow id="JF39961" begin="0" fromJunction="J19" toJunction="J8" end="3600" vehsPerHour="18.32"/>
  <flow id="JF39962" begin="0" fromJunction="J19" toJunction="J7" end="3600" vehsPerHour="18.32"/>
  <flow id="JF39963" begin="0" fromJunction="J19" toJunction="J22" end="3600" vehsPerHour="18.32"/>
  <flow id="JF39964" begin="0" fromJunction="J19" toJunction="J21" end="3600" vehsPerHour="18.32"/>
  <flow id="JF39965" begin="0" fromJunction="J19" toJunction="J20" end="3600" vehsPerHour="18.32"/>
  <flow id="JF39966" begin="0" fromJunction="J19" toJunction="J18" end="3600" vehsPerHour="18.32"/>
  <flow id="JF39967" begin="0" fromJunction="J19" toJunction="J17" end="3600" vehsPerHour="18.32"/>
  <flow id="JF39968" begin="0" fromJunction="J19" toJunction="J16" end="3600" vehsPerHour="18.32"/>
  <flow id="JF39969" begin="0" fromJunction="J19" toJunction="J15" end="3600" vehsPerHour="18.32"/>
  <flow id="JF39970" begin="0" fromJunction="J19" toJunction="J14" end="3600" vehsPerHour="18.32"/>
  <flow id="JF39971" begin="0" fromJunction="J19" toJunction="J13" end="3600" vehsPerHour="18.32"/>
  <flow id="JF39972" begin="0" fromJunction="J19" toJunction="J12" end="3600" vehsPerHour="18.32"/>
  <flow id="JF39973" begin="0" fromJunction="J19" toJunction="J11" end="3600" vehsPerHour="18.32"/>
  <flow id="JF39974" begin="0" fromJunction="J19" toJunction="J10" end="3600" vehsPerHour="18.32"/>
  <flow id="JF39975" begin="0" fromJunction="J20" toJunction="J9" end="3600" vehsPerHour="18.32"/>
  <flow id="JF39976" begin="0" fromJunction="J20" toJunction="J8" end="3600" vehsPerHour="18.32"/>
  <flow id="JF39977" begin="0" fromJunction="J20" toJunction="J7" end="3600" vehsPerHour="18.32"/>
  <flow id="JF39978" begin="0" fromJunction="J20" toJunction="J22" end="3600" vehsPerHour="18.32"/>
  <flow id="JF39979" begin="0" fromJunction="J20" toJunction="J21" end="3600" vehsPerHour="18.32"/>
  <flow id="JF39980" begin="0" fromJunction="J20" toJunction="J19" end="3600" vehsPerHour="18.32"/>
  <flow id="JF39981" begin="0" fromJunction="J20" toJunction="J18" end="3600" vehsPerHour="18.32"/>
  <flow id="JF39982" begin="0" fromJunction="J20" toJunction="J17" end="3600" vehsPerHour="18.32"/>
  <flow id="JF39983" begin="0" fromJunction="J20" toJunction="J16" end="3600" vehsPerHour="18.32"/>
  <flow id="JF39984" begin="0" fromJunction="J20" toJunction="J15" end="3600" vehsPerHour="18.32"/>
  <flow id="JF39985" begin="0" fromJunction="J20" toJunction="J14" end="3600" vehsPerHour="18.32"/>
  <flow id="JF39986" begin="0" fromJunction="J20" toJunction="J13" end="3600" vehsPerHour="18.32"/>
  <flow id="JF39987" begin="0" fromJunction="J20" toJunction="J12" end="3600" vehsPerHour="18.32"/>
  <flow id="JF39988" begin="0" fromJunction="J20" toJunction="J11" end="3600" vehsPerHour="18.32"/>
  <flow id="JF39989" begin="0" fromJunction="J20" toJunction="J10" end="3600" vehsPerHour="18.32"/>
  <flow id="JF39990" begin="0" fromJunction="J21" toJunction="J11" end="3600" vehsPerHour="305.33333333333337"/>
  <flow id="JF39991" begin="0" fromJunction="J21" toJunction="J12" end="3600" vehsPerHour="76.33333333333334"/>
  <flow id="JF39992" begin="0" fromJunction="J21" toJunction="J13" end="3600" vehsPerHour="76.33333333333334"/>
  <flow id="JF39993" begin="0" fromJunction="J21" toJunction="J14" end="3600" vehsPerHour="76.33333333333334"/>
  <flow id="JF39994" begin="0" fromJunction="J21" toJunction="J15" end="3600" vehsPerHour="76.33333333333334"/>
  <flow id="JF39995" begin="0" fromJunction="J21" toJunction="J16" end="3600" vehsPerHour="76.33333333333334"/>
  <flow id="JF39996" begin="0" fromJunction="J21" toJunction="J17" end="3600" vehsPerHour="76.33333333333334"/>
  <flow id="JF39997" begin="0" fromJunction="J21" toJunction="J18" end="3600" vehsPerHour="76.33333333333334"/>
  <flow id="JF39998" begin="0" fromJunction="J21" toJunction="J19" end="3600" vehsPerHour="76.33333333333334"/>
  <flow id="JF39999" begin="0" fromJunction="J21" toJunction="J20" end="3600" vehsPerHour="76.33333333333334"/>
  <flow id="JF40000" begin="0" fromJunction="J21" toJunction="J22" end="3600" vehsPerHour="76.33333333333334"/>
  <flow id="JF40001" begin="0" fromJunction="J21" toJunction="J7" end="3600" vehsPerHour="76.33333333333334"/>
  <flow id="JF40002" begin="0" fromJunction="J21" toJunction="J8" end="3600" vehsPerHour="76.33333333333334"/>
  <flow id="JF40003" begin="0" fromJunction="J21" toJunction="J9" end="3600" vehsPerHour="76.33333333333334"/>
  <flow id="JF40004" begin="0" fromJunction="J21" toJunction="J10" end="3600" vehsPerHour="76.33333333333334"/>
  <flow id="JF40005" begin="0" fromJunction="J22" toJunction="J10" end="3600" vehsPerHour="18.32"/>
  <flow id="JF40006" begin="0" fromJunction="J22" toJunction="J11" end="3600" vehsPerHour="18.32"/>
  <flow id="JF40007" begin="0" fromJunction="J22" toJunction="J12" end="3600" vehsPerHour="18.32"/>
  <flow id="JF40008" begin="0" fromJunction="J22" toJunction="J13" end="3600" vehsPerHour="18.32"/>
  <flow id="JF40009" begin="0" fromJunction="J22" toJunction="J14" end="3600" vehsPerHour="18.32"/>
  <flow id="JF40010" begin="0" fromJunction="J22" toJunction="J15" end="3600" vehsPerHour="18.32"/>
  <flow id="JF40011" begin="0" fromJunction="J22" toJunction="J16" end="3600" vehsPerHour="18.32"/>
  <flow id="JF40012" begin="0" fromJunction="J22" toJunction="J17" end="3600" vehsPerHour="18.32"/>
  <flow id="JF40013" begin="0" fromJunction="J22" toJunction="J18" end="3600" vehsPerHour="18.32"/>
  <flow id="JF40014" begin="0" fromJunction="J22" toJunction="J19" end="3600" vehsPerHour="18.32"/>
  <flow id="JF40015" begin="0" fromJunction="J22" toJunction="J20" end="3600" vehsPerHour="18.32"/>
  <flow id="JF40016" begin="0" fromJunction="J22" toJunction="J21" end="3600" vehsPerHour="18.32"/>
  <flow id="JF40017" begin="0" fromJunction="J22" toJunction="J7" end="3600" vehsPerHour="18.32"/>
  <flow id="JF40018" begin="0" fromJunction="J22" toJunction="J8" end="3600" vehsPerHour="18.32"/>
  <flow id="JF40019" begin="0" fromJunction="J22" toJunction="J9" end="3600" vehsPerHour="18.32"/>
  <flow id="JF40020" begin="0" fromJunction="J8" toJunction="J10" end="3600" vehsPerHour="36.64"/>
  <flow id="JF40021" begin="0" fromJunction="J8" toJunction="J11" end="3600" vehsPerHour="36.64"/>
  <flow id="JF40022" begin="0" fromJunction="J8" toJunction="J12" end="3600" vehsPerHour="36.64"/>
  <flow id="JF40023" begin="0" fromJunction="J8" toJunction="J13" end="3600" vehsPerHour="36.64"/>
  <flow id="JF40024" begin="0" fromJunction="J8" toJunction="J14" end="3600" vehsPerHour="36.64"/>
  <flow id="JF40025" begin="0" fromJunction="J8" toJunction="J15" end="3600" vehsPerHour="36.64"/>
  <flow id="JF40026" begin="0" fromJunction="J8" toJunction="J16" end="3600" vehsPerHour="36.64"/>
  <flow id="JF40027" begin="0" fromJunction="J8" toJunction="J17" end="3600" vehsPerHour="36.64"/>
  <flow id="JF40028" begin="0" fromJunction="J8" toJunction="J18" end="3600" vehsPerHour="36.64"/>
  <flow id="JF40029" begin="0" fromJunction="J8" toJunction="J19" end="3600" vehsPerHour="36.64"/>
  <flow id="JF40030" begin="0" fromJunction="J8" toJunction="J20" end="3600" vehsPerHour="36.64"/>
  <flow id="JF40031" begin="0" fromJunction="J8" toJunction="J21" end="3600" vehsPerHour="36.64"/>
  <flow id="JF40032" begin="0" fromJunction="J8" toJunction="J22" end="3600" vehsPerHour="36.64"/>
  <flow id="JF40033" begin="0" fromJunction="J8" toJunction="J7" end="3600" vehsPerHour="36.64"/>
  <flow id="JF40034" begin="0" fromJunction="J8" toJunction="J9" end="3600" vehsPerHour="36.64"/>
  <flow id="JF40035" begin="0" fromJunction="J9" toJunction="J10" end="3600" vehsPerHour="18.32"/>
  <flow id="JF40036" begin="0" fromJunction="J9" toJunction="J11" end="3600" vehsPerHour="18.32"/>
  <flow id="JF40037" begin="0" fromJunction="J9" toJunction="J12" end="3600" vehsPerHour="18.32"/>
  <flow id="JF40038" begin="0" fromJunction="J9" toJunction="J13" end="3600" vehsPerHour="18.32"/>
  <flow id="JF40039" begin="0" fromJunction="J9" toJunction="J14" end="3600" vehsPerHour="18.32"/>
  <flow id="JF40040" begin="0" fromJunction="J9" toJunction="J15" end="3600" vehsPerHour="18.32"/>
  <flow id="JF40041" begin="0" fromJunction="J9" toJunction="J16" end="3600" vehsPerHour="18.32"/>
  <flow id="JF40042" begin="0" fromJunction="J9" toJunction="J17" end="3600" vehsPerHour="18.32"/>
  <flow id="JF40043" begin="0" fromJunction="J9" toJunction="J18" end="3600" vehsPerHour="18.32"/>
  <flow id="JF40044" begin="0" fromJunction="J9" toJunction="J19" end="3600" vehsPerHour="18.32"/>
  <flow id="JF40045" begin="0" fromJunction="J9" toJunction="J20" end="3600" vehsPerHour="18.32"/>
  <flow id="JF40046" begin="0" fromJunction="J9" toJunction="J21" end="3600" vehsPerHour="18.32"/>
  <flow id="JF40047" begin="0" fromJunction="J9" toJunction="J22" end="3600" vehsPerHour="18.32"/>
  <flow id="JF40048" begin="0" fromJunction="J9" toJunction="J7" end="3600" vehsPerHour="18.32"/>
  <flow id="JF40049" begin="0" fromJunction="J9" toJunction="J8" end="3600" vehsPerHour="18.32"/>
  <flow id="JF40050" begin="0" fromJunction="J10" toJunction="J9" end="3600" vehsPerHour="18.32"/>
  <flow id="JF40051" begin="0" fromJunction="J10" toJunction="J8" end="3600" vehsPerHour="18.32"/>
  <flow id="JF40052" begin="0" fromJunction="J10" toJunction="J7" end="3600" vehsPerHour="18.32"/>
  <flow id="JF40053" begin="0" fromJunction="J10" toJunction="J22" end="3600" vehsPerHour="18.32"/>
  <flow id="JF40054" begin="0" fromJunction="J10" toJunction="J21" end="3600" vehsPerHour="18.32"/>
  <flow id="JF40055" begin="0" fromJunction="J10" toJunction="J20" end="3600" vehsPerHour="18.32"/>
  <flow id="JF40056" begin="0" fromJunction="J10" toJunction="J19" end="3600" vehsPerHour="18.32"/>
  <flow id="JF40057" begin="0" fromJunction="J10" toJunction="J18" end="3600" vehsPerHour="18.32"/>
  <flow id="JF40058" begin="0" fromJunction="J10" toJunction="J17" end="3600" vehsPerHour="18.32"/>
  <flow id="JF40059" begin="0" fromJunction="J10" toJunction="J16" end="3600" vehsPerHour="18.32"/>
  <flow id="JF40060" begin="0" fromJunction="J10" toJunction="J15" end="3600" vehsPerHour="18.32"/>
  <flow id="JF40061" begin="0" fromJunction="J10" toJunction="J14" end="3600" vehsPerHour="18.32"/>
  <flow id="JF40062" begin="0" fromJunction="J10" toJunction="J13" end="3600" vehsPerHour="18.32"/>
  <flow id="JF40063" begin="0" fromJunction="J10" toJunction="J12" end="3600" vehsPerHour="18.32"/>
  <flow id="JF40064" begin="0" fromJunction="J10" toJunction="J11" end="3600" vehsPerHour="18.32"/>
  <flow id="JF40065" begin="0" fromJunction="J7" toJunction="J10" end="3600" vehsPerHour="36.64"/>
  <flow id="JF40066" begin="0" fromJunction="J7" toJunction="J11" end="3600" vehsPerHour="36.64"/>
  <flow id="JF40067" begin="0" fromJunction="J7" toJunction="J12" end="3600" vehsPerHour="36.64"/>
  <flow id="JF40068" begin="0" fromJunction="J7" toJunction="J13" end="3600" vehsPerHour="36.64"/>
  <flow id="JF40069" begin="0" fromJunction="J7" toJunction="J14" end="3600" vehsPerHour="36.64"/>
  <flow id="JF40070" begin="0" fromJunction="J7" toJunction="J15" end="3600" vehsPerHour="36.64"/>
  <flow id="JF40071" begin="0" fromJunction="J7" toJunction="J16" end="3600" vehsPerHour="36.64"/>
  <flow id="JF40072" begin="0" fromJunction="J7" toJunction="J17" end="3600" vehsPerHour="36.64"/>
  <flow id="JF40073" begin="0" fromJunction="J7" toJunction="J18" end="3600" vehsPerHour="36.64"/>
  <flow id="JF40074" begin="0" fromJunction="J7" toJunction="J19" end="3600" vehsPerHour="36.64"/>
  <flow id="JF40075" begin="0" fromJunction="J7" toJunction="J20" end="3600" vehsPerHour="36.64"/>
  <flow id="JF40076" begin="0" fromJunction="J7" toJunction="J21" end="3600" vehsPerHour="36.64"/>
  <flow id="JF40077" begin="0" fromJunction="J7" toJunction="J22" end="3600" vehsPerHour="36.64"/>
  <flow id="JF40078" begin="0" fromJunction="J7" toJunction="J8" end="3600" vehsPerHour="36.64"/>
  <flow id="JF40079" begin="0" fromJunction="J7" toJunction="J9" end="3600" vehsPerHour="36.64"/>
</routes>