<?xml version="1.0" encoding="UTF-8"?>
<routes xmlns:xsi="http://www.w3.org/2001/XMLSchema-instance" xsi:noNamespaceSchemaLocation="http://sumo.dlr.de/xsd/routes_file.xsd">
  <flow id="JF5040" begin="0" fromJunction="J11" toJunction="J17" end="3600" vehsPerHour="305.33333333333337"/>
  <flow id="JF5041" begin="0" fromJunction="J11" toJunction="J18" end="3600" vehsPerHour="76.33333333333334"/>
  <flow id="JF5042" begin="0" fromJunction="J11" toJunction="J19" end="3600" vehsPerHour="76.33333333333334"/>
  <flow id="JF5043" begin="0" fromJunction="J11" toJunction="J20" end="3600" vehsPerHour="76.33333333333334"/>
  <flow id="JF5044" begin="0" fromJunction="J11" toJunction="J21" end="3600" vehsPerHour="76.33333333333334"/>
  <flow id="JF5045" begin="0" fromJunction="J11" toJunction="J22" end="3600" vehsPerHour="76.33333333333334"/>
  <flow id="JF5046" begin="0" fromJunction="J11" toJunction="J7" end="3600" vehsPerHour="76.33333333333334"/>
  <flow id="JF5047" begin="0" fromJunction="J11" toJunction="J8" end="3600" vehsPerHour="76.33333333333334"/>
  <flow id="JF5048" begin="0" fromJunction="J11" toJunction="J9" end="3600" vehsPerHour="76.33333333333334"/>
  <flow id="JF5049" begin="0" fromJunction="J11" toJunction="J16" end="3600" vehsPerHour="76.33333333333334"/>
  <flow id="JF5050" begin="0" fromJunction="J11" toJunction="J15" end="3600" vehsPerHour="76.33333333333334"/>
  <flow id="JF5051" begin="0" fromJunction="J11" toJunction="J14" end="3600" vehsPerHour="76.33333333333334"/>
  <flow id="JF5052" begin="0" fromJunction="J11" toJunction="J13" end="3600" vehsPerHour="76.33333333333334"/>
  <flow id="JF5053" begin="0" fromJunction="J11" toJunction="J12" end="3600" vehsPerHour="76.33333333333334"/>
  <flow id="JF5054" begin="0" fromJunction="J11" toJunction="J10" end="3600" vehsPerHour="76.33333333333334"/>
  <flow id="JF5055" begin="0" fromJunction="J12" toJunction="J10" end="3600" vehsPerHour="18.32"/>
  <flow id="JF5056" begin="0" fromJunction="J12" toJunction="J11" end="3600" vehsPerHour="18.32"/>
  <flow id="JF5057" begin="0" fromJunction="J12" toJunction="J13" end="3600" vehsPerHour="18.32"/>
  <flow id="JF5058" begin="0" fromJunction="J12" toJunction="J14" end="3600" vehsPerHour="18.32"/>
  <flow id="JF5059" begin="0" fromJunction="J12" toJunction="J15" end="3600" vehsPerHour="18.32"/>
  <flow id="JF5060" begin="0" fromJunction="J12" toJunction="J16" end="3600" vehsPerHour="18.32"/>
  <flow id="JF5061" begin="0" fromJunction="J12" toJunction="J17" end="3600" vehsPerHour="18.32"/>
  <flow id="JF5062" begin="0" fromJunction="J12" toJunction="J18" end="3600" vehsPerHour="18.32"/>
  <flow id="JF5063" begin="0" fromJunction="J12" toJunction="J19" end="3600" vehsPerHour="18.32"/>
  <flow id="JF5064" begin="0" fromJunction="J12" toJunction="J20" end="3600" vehsPerHour="18.32"/>
  <flow id="JF5065" begin="0" fromJunction="J12" toJunction="J21" end="3600" vehsPerHour="18.32"/>
  <flow id="JF5066" begin="0" fromJunction="J12" toJunction="J22" end="3600" vehsPerHour="18.32"/>
  <flow id="JF5067" begin="0" fromJunction="J12" toJunction="J7" end="3600" vehsPerHour="18.32"/>
  <flow id="JF5068" begin="0" fromJunction="J12" toJunction="J8" end="3600" vehsPerHour="18.32"/>
  <flow id="JF5069" begin="0" fromJunction="J12" toJunction="J9" end="3600" vehsPerHour="18.32"/>
  <flow id="JF5070" begin="0" fromJunction="J13" toJunction="J10" end="3600" vehsPerHour="18.32"/>
  <flow id="JF5071" begin="0" fromJunction="J13" toJunction="J11" end="3600" vehsPerHour="18.32"/>
  <flow id="JF5072" begin="0" fromJunction="J13" toJunction="J12" end="3600" vehsPerHour="18.32"/>
  <flow id="JF5073" begin="0" fromJunction="J13" toJunction="J14" end="3600" vehsPerHour="18.32"/>
  <flow id="JF5074" begin="0" fromJunction="J13" toJunction="J15" end="3600" vehsPerHour="18.32"/>
  <flow id="JF5075" begin="0" fromJunction="J13" toJunction="J16" end="3600" vehsPerHour="18.32"/>
  <flow id="JF5076" begin="0" fromJunction="J13" toJunction="J17" end="3600" vehsPerHour="18.32"/>
  <flow id="JF5077" begin="0" fromJunction="J13" toJunction="J18" end="3600" vehsPerHour="18.32"/>
  <flow id="JF5078" begin="0" fromJunction="J13" toJunction="J19" end="3600" vehsPerHour="18.32"/>
  <flow id="JF5079" begin="0" fromJunction="J13" toJunction="J20" end="3600" vehsPerHour="18.32"/>
  <flow id="JF5080" begin="0" fromJunction="J13" toJunction="J21" end="3600" vehsPerHour="18.32"/>
  <flow id="JF5081" begin="0" fromJunction="J13" toJunction="J22" end="3600" vehsPerHour="18.32"/>
  <flow id="JF5082" begin="0" fromJunction="J13" toJunction="J7" end="3600" vehsPerHour="18.32"/>
  <flow id="JF5083" begin="0" fromJunction="J13" toJunction="J8" end="3600" vehsPerHour="18.32"/>
  <flow id="JF5084" begin="0" fromJunction="J13" toJunction="J9" end="3600" vehsPerHour="18.32"/>
  <flow id="JF5085" begin="0" fromJunction="J14" toJunction="J10" end="3600" vehsPerHour="18.32"/>
  <flow id="JF5086" begin="0" fromJunction="J14" toJunction="J11" end="3600" vehsPerHour="18.32"/>
  <flow id="JF5087" begin="0" fromJunction="J14" toJunction="J12" end="3600" vehsPerHour="18.32"/>
  <flow id="JF5088" begin="0" fromJunction="J14" toJunction="J13" end="3600" vehsPerHour="18.32"/>
  <flow id="JF5089" begin="0" fromJunction="J14" toJunction="J15" end="3600" vehsPerHour="18.32"/>
  <flow id="JF5090" begin="0" fromJunction="J14" toJunction="J16" end="3600" vehsPerHour="18.32"/>
  <flow id="JF5091" begin="0" fromJunction="J14" toJunction="J17" end="3600" vehsPerHour="18.32"/>
  <flow id="JF5092" begin="0" fromJunction="J14" toJunction="J18" end="3600" vehsPerHour="18.32"/>
  <flow id="JF5093" begin="0" fromJunction="J14" toJunction="J19" end="3600" vehsPerHour="18.32"/>
  <flow id="JF5094" begin="0" fromJunction="J14" toJunction="J20" end="3600" vehsPerHour="18.32"/>
  <flow id="JF5095" begin="0" fromJunction="J14" toJunction="J21" end="3600" vehsPerHour="18.32"/>
  <flow id="JF5096" begin="0" fromJunction="J14" toJunction="J22" end="3600" vehsPerHour="18.32"/>
  <flow id="JF5097" begin="0" fromJunction="J14" toJunction="J7" end="3600" vehsPerHour="18.32"/>
  <flow id="JF5098" begin="0" fromJunction="J14" toJunction="J8" end="3600" vehsPerHour="18.32"/>
  <flow id="JF5099" begin="0" fromJunction="J14" toJunction="J9" end="3600" vehsPerHour="18.32"/>
  <flow id="JF5100" begin="0" fromJunction="J15" toJunction="J10" end="3600" vehsPerHour="18.32"/>
  <flow id="JF5101" begin="0" fromJunction="J15" toJunction="J11" end="3600" vehsPerHour="18.32"/>
  <flow id="JF5102" begin="0" fromJunction="J15" toJunction="J12" end="3600" vehsPerHour="18.32"/>
  <flow id="JF5103" begin="0" fromJunction="J15" toJunction="J13" end="3600" vehsPerHour="18.32"/>
  <flow id="JF5104" begin="0" fromJunction="J15" toJunction="J14" end="3600" vehsPerHour="18.32"/>
  <flow id="JF5105" begin="0" fromJunction="J15" toJunction="J16" end="3600" vehsPerHour="18.32"/>
  <flow id="JF5106" begin="0" fromJunction="J15" toJunction="J17" end="3600" vehsPerHour="18.32"/>
  <flow id="JF5107" begin="0" fromJunction="J15" toJunction="J18" end="3600" vehsPerHour="18.32"/>
  <flow id="JF5108" begin="0" fromJunction="J15" toJunction="J19" end="3600" vehsPerHour="18.32"/>
  <flow id="JF5109" begin="0" fromJunction="J15" toJunction="J20" end="3600" vehsPerHour="18.32"/>
  <flow id="JF5110" begin="0" fromJunction="J15" toJunction="J21" end="3600" vehsPerHour="18.32"/>
  <flow id="JF5111" begin="0" fromJunction="J15" toJunction="J22" end="3600" vehsPerHour="18.32"/>
  <flow id="JF5112" begin="0" fromJunction="J15" toJunction="J7" end="3600" vehsPerHour="18.32"/>
  <flow id="JF5113" begin="0" fromJunction="J15" toJunction="J8" end="3600" vehsPerHour="18.32"/>
  <flow id="JF5114" begin="0" fromJunction="J15" toJunction="J9" end="3600" vehsPerHour="18.32"/>
  <flow id="JF5115" begin="0" fromJunction="J16" toJunction="J10" end="3600" vehsPerHour="18.32"/>
  <flow id="JF5116" begin="0" fromJunction="J16" toJunction="J11" end="3600" vehsPerHour="18.32"/>
  <flow id="JF5117" begin="0" fromJunction="J16" toJunction="J12" end="3600" vehsPerHour="18.32"/>
  <flow id="JF5118" begin="0" fromJunction="J16" toJunction="J13" end="3600" vehsPerHour="18.32"/>
  <flow id="JF5119" begin="0" fromJunction="J16" toJunction="J14" end="3600" vehsPerHour="18.32"/>
  <flow id="JF5120" begin="0" fromJunction="J16" toJunction="J15" end="3600" vehsPerHour="18.32"/>
  <flow id="JF5121" begin="0" fromJunction="J16" toJunction="J17" end="3600" vehsPerHour="18.32"/>
  <flow id="JF5122" begin="0" fromJunction="J16" toJunction="J18" end="3600" vehsPerHour="18.32"/>
  <flow id="JF5123" begin="0" fromJunction="J16" toJunction="J19" end="3600" vehsPerHour="18.32"/>
  <flow id="JF5124" begin="0" fromJunction="J16" toJunction="J20" end="3600" vehsPerHour="18.32"/>
  <flow id="JF5125" begin="0" fromJunction="J16" toJunction="J21" end="3600" vehsPerHour="18.32"/>
  <flow id="JF5126" begin="0" fromJunction="J16" toJunction="J22" end="3600" vehsPerHour="18.32"/>
  <flow id="JF5127" begin="0" fromJunction="J16" toJunction="J7" end="3600" vehsPerHour="18.32"/>
  <flow id="JF5128" begin="0" fromJunction="J16" toJunction="J8" end="3600" vehsPerHour="18.32"/>
  <flow id="JF5129" begin="0" fromJunction="J16" toJunction="J9" end="3600" vehsPerHour="18.32"/>
  <flow id="JF5130" begin="0" fromJunction="J17" toJunction="J10" end="3600" vehsPerHour="18.32"/>
  <flow id="JF5131" begin="0" fromJunction="J17" toJunction="J11" end="3600" vehsPerHour="18.32"/>
  <flow id="JF5132" begin="0" fromJunction="J17" toJunction="J12" end="3600" vehsPerHour="18.32"/>
  <flow id="JF5133" begin="0" fromJunction="J17" toJunction="J13" end="3600" vehsPerHour="18.32"/>
  <flow id="JF5134" begin="0" fromJunction="J17" toJunction="J14" end="3600" vehsPerHour="18.32"/>
  <flow id="JF5135" begin="0" fromJunction="J17" toJunction="J15" end="3600" vehsPerHour="18.32"/>
  <flow id="JF5136" begin="0" fromJunction="J17" toJunction="J16" end="3600" vehsPerHour="18.32"/>
  <flow id="JF5137" begin="0" fromJunction="J17" toJunction="J18" end="3600" vehsPerHour="18.32"/>
  <flow id="JF5138" begin="0" fromJunction="J17" toJunction="J19" end="3600" vehsPerHour="18.32"/>
  <flow id="JF5139" begin="0" fromJunction="J17" toJunction="J20" end="3600" vehsPerHour="18.32"/>
  <flow id="JF5140" begin="0" fromJunction="J17" toJunction="J21" end="3600" vehsPerHour="18.32"/>
  <flow id="JF5141" begin="0" fromJunction="J17" toJunction="J22" end="3600" vehsPerHour="18.32"/>
  <flow id="JF5142" begin="0" fromJunction="J17" toJunction="J7" end="3600" vehsPerHour="18.32"/>
  <flow id="JF5143" begin="0" fromJunction="J17" toJunction="J8" end="3600" vehsPerHour="18.32"/>
  <flow id="JF5144" begin="0" fromJunction="J17" toJunction="J9" end="3600" vehsPerHour="18.32"/>
  <flow id="JF5145" begin="0" fromJunction="J18" toJunction="J10" end="3600" vehsPerHour="18.32"/>
  <flow id="JF5146" begin="0" fromJunction="J18" toJunction="J11" end="3600" vehsPerHour="18.32"/>
  <flow id="JF5147" begin="0" fromJunction="J18" toJunction="J12" end="3600" vehsPerHour="18.32"/>
  <flow id="JF5148" begin="0" fromJunction="J18" toJunction="J13" end="3600" vehsPerHour="18.32"/>
  <flow id="JF5149" begin="0" fromJunction="J18" toJunction="J14" end="3600" vehsPerHour="18.32"/>
  <flow id="JF5150" begin="0" fromJunction="J18" toJunction="J15" end="3600" vehsPerHour="18.32"/>
  <flow id="JF5151" begin="0" fromJunction="J18" toJunction="J16" end="3600" vehsPerHour="18.32"/>
  <flow id="JF5152" begin="0" fromJunction="J18" toJunction="J17" end="3600" vehsPerHour="18.32"/>
  <flow id="JF5153" begin="0" fromJunction="J18" toJunction="J19" end="3600" vehsPerHour="18.32"/>
  <flow id="JF5154" begin="0" fromJunction="J18" toJunction="J20" end="3600" vehsPerHour="18.32"/>
  <flow id="JF5155" begin="0" fromJunction="J18" toJunction="J21" end="3600" vehsPerHour="18.32"/>
  <flow id="JF5156" begin="0" fromJunction="J18" toJunction="J22" end="3600" vehsPerHour="18.32"/>
  <flow id="JF5157" begin="0" fromJunction="J18" toJunction="J7" end="3600" vehsPerHour="18.32"/>
  <flow id="JF5158" begin="0" fromJunction="J18" toJunction="J8" end="3600" vehsPerHour="18.32"/>
  <flow id="JF5159" begin="0" fromJunction="J18" toJunction="J9" end="3600" vehsPerHour="18.32"/>
  <flow id="JF5160" begin="0" fromJunction="J19" toJunction="J10" end="3600" vehsPerHour="18.32"/>
  <flow id="JF5161" begin="0" fromJunction="J19" toJunction="J11" end="3600" vehsPerHour="18.32"/>
  <flow id="JF5162" begin="0" fromJunction="J19" toJunction="J12" end="3600" vehsPerHour="18.32"/>
  <flow id="JF5163" begin="0" fromJunction="J19" toJunction="J13" end="3600" vehsPerHour="18.32"/>
  <flow id="JF5164" begin="0" fromJunction="J19" toJunction="J14" end="3600" vehsPerHour="18.32"/>
  <flow id="JF5165" begin="0" fromJunction="J19" toJunction="J15" end="3600" vehsPerHour="18.32"/>
  <flow id="JF5166" begin="0" fromJunction="J19" toJunction="J16" end="3600" vehsPerHour="18.32"/>
  <flow id="JF5167" begin="0" fromJunction="J19" toJunction="J17" end="3600" vehsPerHour="18.32"/>
  <flow id="JF5168" begin="0" fromJunction="J19" toJunction="J18" end="3600" vehsPerHour="18.32"/>
  <flow id="JF5169" begin="0" fromJunction="J19" toJunction="J20" end="3600" vehsPerHour="18.32"/>
  <flow id="JF5170" begin="0" fromJunction="J19" toJunction="J21" end="3600" vehsPerHour="18.32"/>
  <flow id="JF5171" begin="0" fromJunction="J19" toJunction="J22" end="3600" vehsPerHour="18.32"/>
  <flow id="JF5172" begin="0" fromJunction="J19" toJunction="J7" end="3600" vehsPerHour="18.32"/>
  <flow id="JF5173" begin="0" fromJunction="J19" toJunction="J8" end="3600" vehsPerHour="18.32"/>
  <flow id="JF5174" begin="0" fromJunction="J19" toJunction="J9" end="3600" vehsPerHour="18.32"/>
  <flow id="JF5175" begin="0" fromJunction="J20" toJunction="J10" end="3600" vehsPerHour="18.32"/>
  <flow id="JF5176" begin="0" fromJunction="J20" toJunction="J11" end="3600" vehsPerHour="18.32"/>
  <flow id="JF5177" begin="0" fromJunction="J20" toJunction="J12" end="3600" vehsPerHour="18.32"/>
  <flow id="JF5178" begin="0" fromJunction="J20" toJunction="J13" end="3600" vehsPerHour="18.32"/>
  <flow id="JF5179" begin="0" fromJunction="J20" toJunction="J14" end="3600" vehsPerHour="18.32"/>
  <flow id="JF5180" begin="0" fromJunction="J20" toJunction="J15" end="3600" vehsPerHour="18.32"/>
  <flow id="JF5181" begin="0" fromJunction="J20" toJunction="J16" end="3600" vehsPerHour="18.32"/>
  <flow id="JF5182" begin="0" fromJunction="J20" toJunction="J17" end="3600" vehsPerHour="18.32"/>
  <flow id="JF5183" begin="0" fromJunction="J20" toJunction="J18" end="3600" vehsPerHour="18.32"/>
  <flow id="JF5184" begin="0" fromJunction="J20" toJunction="J19" end="3600" vehsPerHour="18.32"/>
  <flow id="JF5185" begin="0" fromJunction="J20" toJunction="J21" end="3600" vehsPerHour="18.32"/>
  <flow id="JF5186" begin="0" fromJunction="J20" toJunction="J22" end="3600" vehsPerHour="18.32"/>
  <flow id="JF5187" begin="0" fromJunction="J20" toJunction="J7" end="3600" vehsPerHour="18.32"/>
  <flow id="JF5188" begin="0" fromJunction="J20" toJunction="J8" end="3600" vehsPerHour="18.32"/>
  <flow id="JF5189" begin="0" fromJunction="J20" toJunction="J9" end="3600" vehsPerHour="18.32"/>
  <flow id="JF5190" begin="0" fromJunction="J21" toJunction="J10" end="3600" vehsPerHour="18.32"/>
  <flow id="JF5191" begin="0" fromJunction="J21" toJunction="J11" end="3600" vehsPerHour="18.32"/>
  <flow id="JF5192" begin="0" fromJunction="J21" toJunction="J12" end="3600" vehsPerHour="18.32"/>
  <flow id="JF5193" begin="0" fromJunction="J21" toJunction="J13" end="3600" vehsPerHour="18.32"/>
  <flow id="JF5194" begin="0" fromJunction="J21" toJunction="J14" end="3600" vehsPerHour="18.32"/>
  <flow id="JF5195" begin="0" fromJunction="J21" toJunction="J15" end="3600" vehsPerHour="18.32"/>
  <flow id="JF5196" begin="0" fromJunction="J21" toJunction="J16" end="3600" vehsPerHour="18.32"/>
  <flow id="JF5197" begin="0" fromJunction="J21" toJunction="J17" end="3600" vehsPerHour="18.32"/>
  <flow id="JF5198" begin="0" fromJunction="J21" toJunction="J18" end="3600" vehsPerHour="18.32"/>
  <flow id="JF5199" begin="0" fromJunction="J21" toJunction="J19" end="3600" vehsPerHour="18.32"/>
  <flow id="JF5200" begin="0" fromJunction="J21" toJunction="J20" end="3600" vehsPerHour="18.32"/>
  <flow id="JF5201" begin="0" fromJunction="J21" toJunction="J22" end="3600" vehsPerHour="18.32"/>
  <flow id="JF5202" begin="0" fromJunction="J21" toJunction="J7" end="3600" vehsPerHour="18.32"/>
  <flow id="JF5203" begin="0" fromJunction="J21" toJunction="J8" end="3600" vehsPerHour="18.32"/>
  <flow id="JF5204" begin="0" fromJunction="J21" toJunction="J9" end="3600" vehsPerHour="18.32"/>
  <flow id="JF5205" begin="0" fromJunction="J22" toJunction="J10" end="3600" vehsPerHour="18.32"/>
  <flow id="JF5206" begin="0" fromJunction="J22" toJunction="J11" end="3600" vehsPerHour="18.32"/>
  <flow id="JF5207" begin="0" fromJunction="J22" toJunction="J12" end="3600" vehsPerHour="18.32"/>
  <flow id="JF5208" begin="0" fromJunction="J22" toJunction="J13" end="3600" vehsPerHour="18.32"/>
  <flow id="JF5209" begin="0" fromJunction="J22" toJunction="J14" end="3600" vehsPerHour="18.32"/>
  <flow id="JF5210" begin="0" fromJunction="J22" toJunction="J15" end="3600" vehsPerHour="18.32"/>
  <flow id="JF5211" begin="0" fromJunction="J22" toJunction="J16" end="3600" vehsPerHour="18.32"/>
  <flow id="JF5212" begin="0" fromJunction="J22" toJunction="J17" end="3600" vehsPerHour="18.32"/>
  <flow id="JF5213" begin="0" fromJunction="J22" toJunction="J18" end="3600" vehsPerHour="18.32"/>
  <flow id="JF5214" begin="0" fromJunction="J22" toJunction="J19" end="3600" vehsPerHour="18.32"/>
  <flow id="JF5215" begin="0" fromJunction="J22" toJunction="J20" end="3600" vehsPerHour="18.32"/>
  <flow id="JF5216" begin="0" fromJunction="J22" toJunction="J21" end="3600" vehsPerHour="18.32"/>
  <flow id="JF5217" begin="0" fromJunction="J22" toJunction="J7" end="3600" vehsPerHour="18.32"/>
  <flow id="JF5218" begin="0" fromJunction="J22" toJunction="J8" end="3600" vehsPerHour="18.32"/>
  <flow id="JF5219" begin="0" fromJunction="J22" toJunction="J9" end="3600" vehsPerHour="18.32"/>
  <flow id="JF5220" begin="0" fromJunction="J8" toJunction="J10" end="3600" vehsPerHour="36.64"/>
  <flow id="JF5221" begin="0" fromJunction="J8" toJunction="J11" end="3600" vehsPerHour="36.64"/>
  <flow id="JF5222" begin="0" fromJunction="J8" toJunction="J12" end="3600" vehsPerHour="36.64"/>
  <flow id="JF5223" begin="0" fromJunction="J8" toJunction="J13" end="3600" vehsPerHour="36.64"/>
  <flow id="JF5224" begin="0" fromJunction="J8" toJunction="J14" end="3600" vehsPerHour="36.64"/>
  <flow id="JF5225" begin="0" fromJunction="J8" toJunction="J15" end="3600" vehsPerHour="36.64"/>
  <flow id="JF5226" begin="0" fromJunction="J8" toJunction="J16" end="3600" vehsPerHour="36.64"/>
  <flow id="JF5227" begin="0" fromJunction="J8" toJunction="J17" end="3600" vehsPerHour="36.64"/>
  <flow id="JF5228" begin="0" fromJunction="J8" toJunction="J18" end="3600" vehsPerHour="36.64"/>
  <flow id="JF5229" begin="0" fromJunction="J8" toJunction="J19" end="3600" vehsPerHour="36.64"/>
  <flow id="JF5230" begin="0" fromJunction="J8" toJunction="J20" end="3600" vehsPerHour="36.64"/>
  <flow id="JF5231" begin="0" fromJunction="J8" toJunction="J21" end="3600" vehsPerHour="36.64"/>
  <flow id="JF5232" begin="0" fromJunction="J8" toJunction="J22" end="3600" vehsPerHour="36.64"/>
  <flow id="JF5233" begin="0" fromJunction="J8" toJunction="J7" end="3600" vehsPerHour="36.64"/>
  <flow id="JF5234" begin="0" fromJunction="J8" toJunction="J9" end="3600" vehsPerHour="36.64"/>
  <flow id="JF5235" begin="0" fromJunction="J9" toJunction="J10" end="3600" vehsPerHour="18.32"/>
  <flow id="JF5236" begin="0" fromJunction="J9" toJunction="J11" end="3600" vehsPerHour="18.32"/>
  <flow id="JF5237" begin="0" fromJunction="J9" toJunction="J12" end="3600" vehsPerHour="18.32"/>
  <flow id="JF5238" begin="0" fromJunction="J9" toJunction="J13" end="3600" vehsPerHour="18.32"/>
  <flow id="JF5239" begin="0" fromJunction="J9" toJunction="J14" end="3600" vehsPerHour="18.32"/>
  <flow id="JF5240" begin="0" fromJunction="J9" toJunction="J15" end="3600" vehsPerHour="18.32"/>
  <flow id="JF5241" begin="0" fromJunction="J9" toJunction="J16" end="3600" vehsPerHour="18.32"/>
  <flow id="JF5242" begin="0" fromJunction="J9" toJunction="J17" end="3600" vehsPerHour="18.32"/>
  <flow id="JF5243" begin="0" fromJunction="J9" toJunction="J18" end="3600" vehsPerHour="18.32"/>
  <flow id="JF5244" begin="0" fromJunction="J9" toJunction="J19" end="3600" vehsPerHour="18.32"/>
  <flow id="JF5245" begin="0" fromJunction="J9" toJunction="J20" end="3600" vehsPerHour="18.32"/>
  <flow id="JF5246" begin="0" fromJunction="J9" toJunction="J21" end="3600" vehsPerHour="18.32"/>
  <flow id="JF5247" begin="0" fromJunction="J9" toJunction="J22" end="3600" vehsPerHour="18.32"/>
  <flow id="JF5248" begin="0" fromJunction="J9" toJunction="J7" end="3600" vehsPerHour="18.32"/>
  <flow id="JF5249" begin="0" fromJunction="J9" toJunction="J8" end="3600" vehsPerHour="18.32"/>
  <flow id="JF5250" begin="0" fromJunction="J10" toJunction="J9" end="3600" vehsPerHour="18.32"/>
  <flow id="JF5251" begin="0" fromJunction="J10" toJunction="J8" end="3600" vehsPerHour="18.32"/>
  <flow id="JF5252" begin="0" fromJunction="J10" toJunction="J7" end="3600" vehsPerHour="18.32"/>
  <flow id="JF5253" begin="0" fromJunction="J10" toJunction="J22" end="3600" vehsPerHour="18.32"/>
  <flow id="JF5254" begin="0" fromJunction="J10" toJunction="J21" end="3600" vehsPerHour="18.32"/>
  <flow id="JF5255" begin="0" fromJunction="J10" toJunction="J20" end="3600" vehsPerHour="18.32"/>
  <flow id="JF5256" begin="0" fromJunction="J10" toJunction="J19" end="3600" vehsPerHour="18.32"/>
  <flow id="JF5257" begin="0" fromJunction="J10" toJunction="J18" end="3600" vehsPerHour="18.32"/>
  <flow id="JF5258" begin="0" fromJunction="J10" toJunction="J17" end="3600" vehsPerHour="18.32"/>
  <flow id="JF5259" begin="0" fromJunction="J10" toJunction="J16" end="3600" vehsPerHour="18.32"/>
  <flow id="JF5260" begin="0" fromJunction="J10" toJunction="J15" end="3600" vehsPerHour="18.32"/>
  <flow id="JF5261" begin="0" fromJunction="J10" toJunction="J14" end="3600" vehsPerHour="18.32"/>
  <flow id="JF5262" begin="0" fromJunction="J10" toJunction="J13" end="3600" vehsPerHour="18.32"/>
  <flow id="JF5263" begin="0" fromJunction="J10" toJunction="J12" end="3600" vehsPerHour="18.32"/>
  <flow id="JF5264" begin="0" fromJunction="J10" toJunction="J11" end="3600" vehsPerHour="18.32"/>
  <flow id="JF5265" begin="0" fromJunction="J7" toJunction="J10" end="3600" vehsPerHour="36.64"/>
  <flow id="JF5266" begin="0" fromJunction="J7" toJunction="J11" end="3600" vehsPerHour="36.64"/>
  <flow id="JF5267" begin="0" fromJunction="J7" toJunction="J12" end="3600" vehsPerHour="36.64"/>
  <flow id="JF5268" begin="0" fromJunction="J7" toJunction="J13" end="3600" vehsPerHour="36.64"/>
  <flow id="JF5269" begin="0" fromJunction="J7" toJunction="J14" end="3600" vehsPerHour="36.64"/>
  <flow id="JF5270" begin="0" fromJunction="J7" toJunction="J15" end="3600" vehsPerHour="36.64"/>
  <flow id="JF5271" begin="0" fromJunction="J7" toJunction="J16" end="3600" vehsPerHour="36.64"/>
  <flow id="JF5272" begin="0" fromJunction="J7" toJunction="J17" end="3600" vehsPerHour="36.64"/>
  <flow id="JF5273" begin="0" fromJunction="J7" toJunction="J18" end="3600" vehsPerHour="36.64"/>
  <flow id="JF5274" begin="0" fromJunction="J7" toJunction="J19" end="3600" vehsPerHour="36.64"/>
  <flow id="JF5275" begin="0" fromJunction="J7" toJunction="J20" end="3600" vehsPerHour="36.64"/>
  <flow id="JF5276" begin="0" fromJunction="J7" toJunction="J21" end="3600" vehsPerHour="36.64"/>
  <flow id="JF5277" begin="0" fromJunction="J7" toJunction="J22" end="3600" vehsPerHour="36.64"/>
  <flow id="JF5278" begin="0" fromJunction="J7" toJunction="J8" end="3600" vehsPerHour="36.64"/>
  <flow id="JF5279" begin="0" fromJunction="J7" toJunction="J9" end="3600" vehsPerHour="36.64"/>
</routes>