<?xml version="1.0" encoding="UTF-8"?>
<routes xmlns:xsi="http://www.w3.org/2001/XMLSchema-instance" xsi:noNamespaceSchemaLocation="http://sumo.dlr.de/xsd/routes_file.xsd">
  <flow id="JF9360" begin="0" fromJunction="J11" toJunction="J9" end="3600" vehsPerHour="18.32"/>
  <flow id="JF9361" begin="0" fromJunction="J11" toJunction="J8" end="3600" vehsPerHour="18.32"/>
  <flow id="JF9362" begin="0" fromJunction="J11" toJunction="J7" end="3600" vehsPerHour="18.32"/>
  <flow id="JF9363" begin="0" fromJunction="J11" toJunction="J22" end="3600" vehsPerHour="18.32"/>
  <flow id="JF9364" begin="0" fromJunction="J11" toJunction="J21" end="3600" vehsPerHour="18.32"/>
  <flow id="JF9365" begin="0" fromJunction="J11" toJunction="J20" end="3600" vehsPerHour="18.32"/>
  <flow id="JF9366" begin="0" fromJunction="J11" toJunction="J19" end="3600" vehsPerHour="18.32"/>
  <flow id="JF9367" begin="0" fromJunction="J11" toJunction="J18" end="3600" vehsPerHour="18.32"/>
  <flow id="JF9368" begin="0" fromJunction="J11" toJunction="J17" end="3600" vehsPerHour="18.32"/>
  <flow id="JF9369" begin="0" fromJunction="J11" toJunction="J16" end="3600" vehsPerHour="18.32"/>
  <flow id="JF9370" begin="0" fromJunction="J11" toJunction="J15" end="3600" vehsPerHour="18.32"/>
  <flow id="JF9371" begin="0" fromJunction="J11" toJunction="J14" end="3600" vehsPerHour="18.32"/>
  <flow id="JF9372" begin="0" fromJunction="J11" toJunction="J13" end="3600" vehsPerHour="18.32"/>
  <flow id="JF9373" begin="0" fromJunction="J11" toJunction="J12" end="3600" vehsPerHour="18.32"/>
  <flow id="JF9374" begin="0" fromJunction="J11" toJunction="J10" end="3600" vehsPerHour="18.32"/>
  <flow id="JF9375" begin="0" fromJunction="J12" toJunction="J20" end="3600" vehsPerHour="305.33333333333337"/>
  <flow id="JF9376" begin="0" fromJunction="J12" toJunction="J21" end="3600" vehsPerHour="76.33333333333334"/>
  <flow id="JF9377" begin="0" fromJunction="J12" toJunction="J22" end="3600" vehsPerHour="76.33333333333334"/>
  <flow id="JF9378" begin="0" fromJunction="J12" toJunction="J7" end="3600" vehsPerHour="76.33333333333334"/>
  <flow id="JF9379" begin="0" fromJunction="J12" toJunction="J8" end="3600" vehsPerHour="76.33333333333334"/>
  <flow id="JF9380" begin="0" fromJunction="J12" toJunction="J9" end="3600" vehsPerHour="76.33333333333334"/>
  <flow id="JF9381" begin="0" fromJunction="J12" toJunction="J19" end="3600" vehsPerHour="76.33333333333334"/>
  <flow id="JF9382" begin="0" fromJunction="J12" toJunction="J18" end="3600" vehsPerHour="76.33333333333334"/>
  <flow id="JF9383" begin="0" fromJunction="J12" toJunction="J17" end="3600" vehsPerHour="76.33333333333334"/>
  <flow id="JF9384" begin="0" fromJunction="J12" toJunction="J16" end="3600" vehsPerHour="76.33333333333334"/>
  <flow id="JF9385" begin="0" fromJunction="J12" toJunction="J15" end="3600" vehsPerHour="76.33333333333334"/>
  <flow id="JF9386" begin="0" fromJunction="J12" toJunction="J14" end="3600" vehsPerHour="76.33333333333334"/>
  <flow id="JF9387" begin="0" fromJunction="J12" toJunction="J13" end="3600" vehsPerHour="76.33333333333334"/>
  <flow id="JF9388" begin="0" fromJunction="J12" toJunction="J11" end="3600" vehsPerHour="76.33333333333334"/>
  <flow id="JF9389" begin="0" fromJunction="J12" toJunction="J10" end="3600" vehsPerHour="76.33333333333334"/>
  <flow id="JF9390" begin="0" fromJunction="J13" toJunction="J10" end="3600" vehsPerHour="18.32"/>
  <flow id="JF9391" begin="0" fromJunction="J13" toJunction="J11" end="3600" vehsPerHour="18.32"/>
  <flow id="JF9392" begin="0" fromJunction="J13" toJunction="J12" end="3600" vehsPerHour="18.32"/>
  <flow id="JF9393" begin="0" fromJunction="J13" toJunction="J14" end="3600" vehsPerHour="18.32"/>
  <flow id="JF9394" begin="0" fromJunction="J13" toJunction="J15" end="3600" vehsPerHour="18.32"/>
  <flow id="JF9395" begin="0" fromJunction="J13" toJunction="J16" end="3600" vehsPerHour="18.32"/>
  <flow id="JF9396" begin="0" fromJunction="J13" toJunction="J17" end="3600" vehsPerHour="18.32"/>
  <flow id="JF9397" begin="0" fromJunction="J13" toJunction="J18" end="3600" vehsPerHour="18.32"/>
  <flow id="JF9398" begin="0" fromJunction="J13" toJunction="J19" end="3600" vehsPerHour="18.32"/>
  <flow id="JF9399" begin="0" fromJunction="J13" toJunction="J20" end="3600" vehsPerHour="18.32"/>
  <flow id="JF9400" begin="0" fromJunction="J13" toJunction="J21" end="3600" vehsPerHour="18.32"/>
  <flow id="JF9401" begin="0" fromJunction="J13" toJunction="J22" end="3600" vehsPerHour="18.32"/>
  <flow id="JF9402" begin="0" fromJunction="J13" toJunction="J7" end="3600" vehsPerHour="18.32"/>
  <flow id="JF9403" begin="0" fromJunction="J13" toJunction="J8" end="3600" vehsPerHour="18.32"/>
  <flow id="JF9404" begin="0" fromJunction="J13" toJunction="J9" end="3600" vehsPerHour="18.32"/>
  <flow id="JF9405" begin="0" fromJunction="J14" toJunction="J10" end="3600" vehsPerHour="18.32"/>
  <flow id="JF9406" begin="0" fromJunction="J14" toJunction="J11" end="3600" vehsPerHour="18.32"/>
  <flow id="JF9407" begin="0" fromJunction="J14" toJunction="J12" end="3600" vehsPerHour="18.32"/>
  <flow id="JF9408" begin="0" fromJunction="J14" toJunction="J13" end="3600" vehsPerHour="18.32"/>
  <flow id="JF9409" begin="0" fromJunction="J14" toJunction="J15" end="3600" vehsPerHour="18.32"/>
  <flow id="JF9410" begin="0" fromJunction="J14" toJunction="J16" end="3600" vehsPerHour="18.32"/>
  <flow id="JF9411" begin="0" fromJunction="J14" toJunction="J17" end="3600" vehsPerHour="18.32"/>
  <flow id="JF9412" begin="0" fromJunction="J14" toJunction="J18" end="3600" vehsPerHour="18.32"/>
  <flow id="JF9413" begin="0" fromJunction="J14" toJunction="J19" end="3600" vehsPerHour="18.32"/>
  <flow id="JF9414" begin="0" fromJunction="J14" toJunction="J20" end="3600" vehsPerHour="18.32"/>
  <flow id="JF9415" begin="0" fromJunction="J14" toJunction="J21" end="3600" vehsPerHour="18.32"/>
  <flow id="JF9416" begin="0" fromJunction="J14" toJunction="J22" end="3600" vehsPerHour="18.32"/>
  <flow id="JF9417" begin="0" fromJunction="J14" toJunction="J7" end="3600" vehsPerHour="18.32"/>
  <flow id="JF9418" begin="0" fromJunction="J14" toJunction="J8" end="3600" vehsPerHour="18.32"/>
  <flow id="JF9419" begin="0" fromJunction="J14" toJunction="J9" end="3600" vehsPerHour="18.32"/>
  <flow id="JF9420" begin="0" fromJunction="J15" toJunction="J10" end="3600" vehsPerHour="18.32"/>
  <flow id="JF9421" begin="0" fromJunction="J15" toJunction="J11" end="3600" vehsPerHour="18.32"/>
  <flow id="JF9422" begin="0" fromJunction="J15" toJunction="J12" end="3600" vehsPerHour="18.32"/>
  <flow id="JF9423" begin="0" fromJunction="J15" toJunction="J13" end="3600" vehsPerHour="18.32"/>
  <flow id="JF9424" begin="0" fromJunction="J15" toJunction="J14" end="3600" vehsPerHour="18.32"/>
  <flow id="JF9425" begin="0" fromJunction="J15" toJunction="J16" end="3600" vehsPerHour="18.32"/>
  <flow id="JF9426" begin="0" fromJunction="J15" toJunction="J17" end="3600" vehsPerHour="18.32"/>
  <flow id="JF9427" begin="0" fromJunction="J15" toJunction="J18" end="3600" vehsPerHour="18.32"/>
  <flow id="JF9428" begin="0" fromJunction="J15" toJunction="J19" end="3600" vehsPerHour="18.32"/>
  <flow id="JF9429" begin="0" fromJunction="J15" toJunction="J20" end="3600" vehsPerHour="18.32"/>
  <flow id="JF9430" begin="0" fromJunction="J15" toJunction="J21" end="3600" vehsPerHour="18.32"/>
  <flow id="JF9431" begin="0" fromJunction="J15" toJunction="J22" end="3600" vehsPerHour="18.32"/>
  <flow id="JF9432" begin="0" fromJunction="J15" toJunction="J7" end="3600" vehsPerHour="18.32"/>
  <flow id="JF9433" begin="0" fromJunction="J15" toJunction="J8" end="3600" vehsPerHour="18.32"/>
  <flow id="JF9434" begin="0" fromJunction="J15" toJunction="J9" end="3600" vehsPerHour="18.32"/>
  <flow id="JF9435" begin="0" fromJunction="J16" toJunction="J10" end="3600" vehsPerHour="18.32"/>
  <flow id="JF9436" begin="0" fromJunction="J16" toJunction="J11" end="3600" vehsPerHour="18.32"/>
  <flow id="JF9437" begin="0" fromJunction="J16" toJunction="J12" end="3600" vehsPerHour="18.32"/>
  <flow id="JF9438" begin="0" fromJunction="J16" toJunction="J13" end="3600" vehsPerHour="18.32"/>
  <flow id="JF9439" begin="0" fromJunction="J16" toJunction="J14" end="3600" vehsPerHour="18.32"/>
  <flow id="JF9440" begin="0" fromJunction="J16" toJunction="J15" end="3600" vehsPerHour="18.32"/>
  <flow id="JF9441" begin="0" fromJunction="J16" toJunction="J17" end="3600" vehsPerHour="18.32"/>
  <flow id="JF9442" begin="0" fromJunction="J16" toJunction="J18" end="3600" vehsPerHour="18.32"/>
  <flow id="JF9443" begin="0" fromJunction="J16" toJunction="J19" end="3600" vehsPerHour="18.32"/>
  <flow id="JF9444" begin="0" fromJunction="J16" toJunction="J20" end="3600" vehsPerHour="18.32"/>
  <flow id="JF9445" begin="0" fromJunction="J16" toJunction="J21" end="3600" vehsPerHour="18.32"/>
  <flow id="JF9446" begin="0" fromJunction="J16" toJunction="J22" end="3600" vehsPerHour="18.32"/>
  <flow id="JF9447" begin="0" fromJunction="J16" toJunction="J7" end="3600" vehsPerHour="18.32"/>
  <flow id="JF9448" begin="0" fromJunction="J16" toJunction="J8" end="3600" vehsPerHour="18.32"/>
  <flow id="JF9449" begin="0" fromJunction="J16" toJunction="J9" end="3600" vehsPerHour="18.32"/>
  <flow id="JF9450" begin="0" fromJunction="J17" toJunction="J10" end="3600" vehsPerHour="18.32"/>
  <flow id="JF9451" begin="0" fromJunction="J17" toJunction="J11" end="3600" vehsPerHour="18.32"/>
  <flow id="JF9452" begin="0" fromJunction="J17" toJunction="J12" end="3600" vehsPerHour="18.32"/>
  <flow id="JF9453" begin="0" fromJunction="J17" toJunction="J13" end="3600" vehsPerHour="18.32"/>
  <flow id="JF9454" begin="0" fromJunction="J17" toJunction="J14" end="3600" vehsPerHour="18.32"/>
  <flow id="JF9455" begin="0" fromJunction="J17" toJunction="J15" end="3600" vehsPerHour="18.32"/>
  <flow id="JF9456" begin="0" fromJunction="J17" toJunction="J16" end="3600" vehsPerHour="18.32"/>
  <flow id="JF9457" begin="0" fromJunction="J17" toJunction="J18" end="3600" vehsPerHour="18.32"/>
  <flow id="JF9458" begin="0" fromJunction="J17" toJunction="J19" end="3600" vehsPerHour="18.32"/>
  <flow id="JF9459" begin="0" fromJunction="J17" toJunction="J20" end="3600" vehsPerHour="18.32"/>
  <flow id="JF9460" begin="0" fromJunction="J17" toJunction="J21" end="3600" vehsPerHour="18.32"/>
  <flow id="JF9461" begin="0" fromJunction="J17" toJunction="J22" end="3600" vehsPerHour="18.32"/>
  <flow id="JF9462" begin="0" fromJunction="J17" toJunction="J7" end="3600" vehsPerHour="18.32"/>
  <flow id="JF9463" begin="0" fromJunction="J17" toJunction="J8" end="3600" vehsPerHour="18.32"/>
  <flow id="JF9464" begin="0" fromJunction="J17" toJunction="J9" end="3600" vehsPerHour="18.32"/>
  <flow id="JF9465" begin="0" fromJunction="J18" toJunction="J10" end="3600" vehsPerHour="18.32"/>
  <flow id="JF9466" begin="0" fromJunction="J18" toJunction="J11" end="3600" vehsPerHour="18.32"/>
  <flow id="JF9467" begin="0" fromJunction="J18" toJunction="J12" end="3600" vehsPerHour="18.32"/>
  <flow id="JF9468" begin="0" fromJunction="J18" toJunction="J13" end="3600" vehsPerHour="18.32"/>
  <flow id="JF9469" begin="0" fromJunction="J18" toJunction="J14" end="3600" vehsPerHour="18.32"/>
  <flow id="JF9470" begin="0" fromJunction="J18" toJunction="J15" end="3600" vehsPerHour="18.32"/>
  <flow id="JF9471" begin="0" fromJunction="J18" toJunction="J16" end="3600" vehsPerHour="18.32"/>
  <flow id="JF9472" begin="0" fromJunction="J18" toJunction="J17" end="3600" vehsPerHour="18.32"/>
  <flow id="JF9473" begin="0" fromJunction="J18" toJunction="J19" end="3600" vehsPerHour="18.32"/>
  <flow id="JF9474" begin="0" fromJunction="J18" toJunction="J20" end="3600" vehsPerHour="18.32"/>
  <flow id="JF9475" begin="0" fromJunction="J18" toJunction="J21" end="3600" vehsPerHour="18.32"/>
  <flow id="JF9476" begin="0" fromJunction="J18" toJunction="J22" end="3600" vehsPerHour="18.32"/>
  <flow id="JF9477" begin="0" fromJunction="J18" toJunction="J7" end="3600" vehsPerHour="18.32"/>
  <flow id="JF9478" begin="0" fromJunction="J18" toJunction="J8" end="3600" vehsPerHour="18.32"/>
  <flow id="JF9479" begin="0" fromJunction="J18" toJunction="J9" end="3600" vehsPerHour="18.32"/>
  <flow id="JF9480" begin="0" fromJunction="J19" toJunction="J10" end="3600" vehsPerHour="18.32"/>
  <flow id="JF9481" begin="0" fromJunction="J19" toJunction="J11" end="3600" vehsPerHour="18.32"/>
  <flow id="JF9482" begin="0" fromJunction="J19" toJunction="J12" end="3600" vehsPerHour="18.32"/>
  <flow id="JF9483" begin="0" fromJunction="J19" toJunction="J13" end="3600" vehsPerHour="18.32"/>
  <flow id="JF9484" begin="0" fromJunction="J19" toJunction="J14" end="3600" vehsPerHour="18.32"/>
  <flow id="JF9485" begin="0" fromJunction="J19" toJunction="J15" end="3600" vehsPerHour="18.32"/>
  <flow id="JF9486" begin="0" fromJunction="J19" toJunction="J16" end="3600" vehsPerHour="18.32"/>
  <flow id="JF9487" begin="0" fromJunction="J19" toJunction="J17" end="3600" vehsPerHour="18.32"/>
  <flow id="JF9488" begin="0" fromJunction="J19" toJunction="J18" end="3600" vehsPerHour="18.32"/>
  <flow id="JF9489" begin="0" fromJunction="J19" toJunction="J20" end="3600" vehsPerHour="18.32"/>
  <flow id="JF9490" begin="0" fromJunction="J19" toJunction="J21" end="3600" vehsPerHour="18.32"/>
  <flow id="JF9491" begin="0" fromJunction="J19" toJunction="J22" end="3600" vehsPerHour="18.32"/>
  <flow id="JF9492" begin="0" fromJunction="J19" toJunction="J7" end="3600" vehsPerHour="18.32"/>
  <flow id="JF9493" begin="0" fromJunction="J19" toJunction="J8" end="3600" vehsPerHour="18.32"/>
  <flow id="JF9494" begin="0" fromJunction="J19" toJunction="J9" end="3600" vehsPerHour="18.32"/>
  <flow id="JF9495" begin="0" fromJunction="J20" toJunction="J10" end="3600" vehsPerHour="18.32"/>
  <flow id="JF9496" begin="0" fromJunction="J20" toJunction="J11" end="3600" vehsPerHour="18.32"/>
  <flow id="JF9497" begin="0" fromJunction="J20" toJunction="J12" end="3600" vehsPerHour="18.32"/>
  <flow id="JF9498" begin="0" fromJunction="J20" toJunction="J13" end="3600" vehsPerHour="18.32"/>
  <flow id="JF9499" begin="0" fromJunction="J20" toJunction="J14" end="3600" vehsPerHour="18.32"/>
  <flow id="JF9500" begin="0" fromJunction="J20" toJunction="J15" end="3600" vehsPerHour="18.32"/>
  <flow id="JF9501" begin="0" fromJunction="J20" toJunction="J16" end="3600" vehsPerHour="18.32"/>
  <flow id="JF9502" begin="0" fromJunction="J20" toJunction="J17" end="3600" vehsPerHour="18.32"/>
  <flow id="JF9503" begin="0" fromJunction="J20" toJunction="J18" end="3600" vehsPerHour="18.32"/>
  <flow id="JF9504" begin="0" fromJunction="J20" toJunction="J19" end="3600" vehsPerHour="18.32"/>
  <flow id="JF9505" begin="0" fromJunction="J20" toJunction="J21" end="3600" vehsPerHour="18.32"/>
  <flow id="JF9506" begin="0" fromJunction="J20" toJunction="J22" end="3600" vehsPerHour="18.32"/>
  <flow id="JF9507" begin="0" fromJunction="J20" toJunction="J7" end="3600" vehsPerHour="18.32"/>
  <flow id="JF9508" begin="0" fromJunction="J20" toJunction="J8" end="3600" vehsPerHour="18.32"/>
  <flow id="JF9509" begin="0" fromJunction="J20" toJunction="J9" end="3600" vehsPerHour="18.32"/>
  <flow id="JF9510" begin="0" fromJunction="J21" toJunction="J10" end="3600" vehsPerHour="18.32"/>
  <flow id="JF9511" begin="0" fromJunction="J21" toJunction="J11" end="3600" vehsPerHour="18.32"/>
  <flow id="JF9512" begin="0" fromJunction="J21" toJunction="J12" end="3600" vehsPerHour="18.32"/>
  <flow id="JF9513" begin="0" fromJunction="J21" toJunction="J13" end="3600" vehsPerHour="18.32"/>
  <flow id="JF9514" begin="0" fromJunction="J21" toJunction="J14" end="3600" vehsPerHour="18.32"/>
  <flow id="JF9515" begin="0" fromJunction="J21" toJunction="J15" end="3600" vehsPerHour="18.32"/>
  <flow id="JF9516" begin="0" fromJunction="J21" toJunction="J16" end="3600" vehsPerHour="18.32"/>
  <flow id="JF9517" begin="0" fromJunction="J21" toJunction="J17" end="3600" vehsPerHour="18.32"/>
  <flow id="JF9518" begin="0" fromJunction="J21" toJunction="J18" end="3600" vehsPerHour="18.32"/>
  <flow id="JF9519" begin="0" fromJunction="J21" toJunction="J19" end="3600" vehsPerHour="18.32"/>
  <flow id="JF9520" begin="0" fromJunction="J21" toJunction="J20" end="3600" vehsPerHour="18.32"/>
  <flow id="JF9521" begin="0" fromJunction="J21" toJunction="J22" end="3600" vehsPerHour="18.32"/>
  <flow id="JF9522" begin="0" fromJunction="J21" toJunction="J7" end="3600" vehsPerHour="18.32"/>
  <flow id="JF9523" begin="0" fromJunction="J21" toJunction="J8" end="3600" vehsPerHour="18.32"/>
  <flow id="JF9524" begin="0" fromJunction="J21" toJunction="J9" end="3600" vehsPerHour="18.32"/>
  <flow id="JF9525" begin="0" fromJunction="J22" toJunction="J10" end="3600" vehsPerHour="18.32"/>
  <flow id="JF9526" begin="0" fromJunction="J22" toJunction="J11" end="3600" vehsPerHour="18.32"/>
  <flow id="JF9527" begin="0" fromJunction="J22" toJunction="J12" end="3600" vehsPerHour="18.32"/>
  <flow id="JF9528" begin="0" fromJunction="J22" toJunction="J13" end="3600" vehsPerHour="18.32"/>
  <flow id="JF9529" begin="0" fromJunction="J22" toJunction="J14" end="3600" vehsPerHour="18.32"/>
  <flow id="JF9530" begin="0" fromJunction="J22" toJunction="J15" end="3600" vehsPerHour="18.32"/>
  <flow id="JF9531" begin="0" fromJunction="J22" toJunction="J16" end="3600" vehsPerHour="18.32"/>
  <flow id="JF9532" begin="0" fromJunction="J22" toJunction="J17" end="3600" vehsPerHour="18.32"/>
  <flow id="JF9533" begin="0" fromJunction="J22" toJunction="J18" end="3600" vehsPerHour="18.32"/>
  <flow id="JF9534" begin="0" fromJunction="J22" toJunction="J19" end="3600" vehsPerHour="18.32"/>
  <flow id="JF9535" begin="0" fromJunction="J22" toJunction="J20" end="3600" vehsPerHour="18.32"/>
  <flow id="JF9536" begin="0" fromJunction="J22" toJunction="J21" end="3600" vehsPerHour="18.32"/>
  <flow id="JF9537" begin="0" fromJunction="J22" toJunction="J7" end="3600" vehsPerHour="18.32"/>
  <flow id="JF9538" begin="0" fromJunction="J22" toJunction="J8" end="3600" vehsPerHour="18.32"/>
  <flow id="JF9539" begin="0" fromJunction="J22" toJunction="J9" end="3600" vehsPerHour="18.32"/>
  <flow id="JF9540" begin="0" fromJunction="J8" toJunction="J10" end="3600" vehsPerHour="36.64"/>
  <flow id="JF9541" begin="0" fromJunction="J8" toJunction="J11" end="3600" vehsPerHour="36.64"/>
  <flow id="JF9542" begin="0" fromJunction="J8" toJunction="J12" end="3600" vehsPerHour="36.64"/>
  <flow id="JF9543" begin="0" fromJunction="J8" toJunction="J13" end="3600" vehsPerHour="36.64"/>
  <flow id="JF9544" begin="0" fromJunction="J8" toJunction="J14" end="3600" vehsPerHour="36.64"/>
  <flow id="JF9545" begin="0" fromJunction="J8" toJunction="J15" end="3600" vehsPerHour="36.64"/>
  <flow id="JF9546" begin="0" fromJunction="J8" toJunction="J16" end="3600" vehsPerHour="36.64"/>
  <flow id="JF9547" begin="0" fromJunction="J8" toJunction="J17" end="3600" vehsPerHour="36.64"/>
  <flow id="JF9548" begin="0" fromJunction="J8" toJunction="J18" end="3600" vehsPerHour="36.64"/>
  <flow id="JF9549" begin="0" fromJunction="J8" toJunction="J19" end="3600" vehsPerHour="36.64"/>
  <flow id="JF9550" begin="0" fromJunction="J8" toJunction="J20" end="3600" vehsPerHour="36.64"/>
  <flow id="JF9551" begin="0" fromJunction="J8" toJunction="J21" end="3600" vehsPerHour="36.64"/>
  <flow id="JF9552" begin="0" fromJunction="J8" toJunction="J22" end="3600" vehsPerHour="36.64"/>
  <flow id="JF9553" begin="0" fromJunction="J8" toJunction="J7" end="3600" vehsPerHour="36.64"/>
  <flow id="JF9554" begin="0" fromJunction="J8" toJunction="J9" end="3600" vehsPerHour="36.64"/>
  <flow id="JF9555" begin="0" fromJunction="J9" toJunction="J10" end="3600" vehsPerHour="18.32"/>
  <flow id="JF9556" begin="0" fromJunction="J9" toJunction="J11" end="3600" vehsPerHour="18.32"/>
  <flow id="JF9557" begin="0" fromJunction="J9" toJunction="J12" end="3600" vehsPerHour="18.32"/>
  <flow id="JF9558" begin="0" fromJunction="J9" toJunction="J13" end="3600" vehsPerHour="18.32"/>
  <flow id="JF9559" begin="0" fromJunction="J9" toJunction="J14" end="3600" vehsPerHour="18.32"/>
  <flow id="JF9560" begin="0" fromJunction="J9" toJunction="J15" end="3600" vehsPerHour="18.32"/>
  <flow id="JF9561" begin="0" fromJunction="J9" toJunction="J16" end="3600" vehsPerHour="18.32"/>
  <flow id="JF9562" begin="0" fromJunction="J9" toJunction="J17" end="3600" vehsPerHour="18.32"/>
  <flow id="JF9563" begin="0" fromJunction="J9" toJunction="J18" end="3600" vehsPerHour="18.32"/>
  <flow id="JF9564" begin="0" fromJunction="J9" toJunction="J19" end="3600" vehsPerHour="18.32"/>
  <flow id="JF9565" begin="0" fromJunction="J9" toJunction="J20" end="3600" vehsPerHour="18.32"/>
  <flow id="JF9566" begin="0" fromJunction="J9" toJunction="J21" end="3600" vehsPerHour="18.32"/>
  <flow id="JF9567" begin="0" fromJunction="J9" toJunction="J22" end="3600" vehsPerHour="18.32"/>
  <flow id="JF9568" begin="0" fromJunction="J9" toJunction="J7" end="3600" vehsPerHour="18.32"/>
  <flow id="JF9569" begin="0" fromJunction="J9" toJunction="J8" end="3600" vehsPerHour="18.32"/>
  <flow id="JF9570" begin="0" fromJunction="J10" toJunction="J9" end="3600" vehsPerHour="18.32"/>
  <flow id="JF9571" begin="0" fromJunction="J10" toJunction="J8" end="3600" vehsPerHour="18.32"/>
  <flow id="JF9572" begin="0" fromJunction="J10" toJunction="J7" end="3600" vehsPerHour="18.32"/>
  <flow id="JF9573" begin="0" fromJunction="J10" toJunction="J22" end="3600" vehsPerHour="18.32"/>
  <flow id="JF9574" begin="0" fromJunction="J10" toJunction="J21" end="3600" vehsPerHour="18.32"/>
  <flow id="JF9575" begin="0" fromJunction="J10" toJunction="J20" end="3600" vehsPerHour="18.32"/>
  <flow id="JF9576" begin="0" fromJunction="J10" toJunction="J19" end="3600" vehsPerHour="18.32"/>
  <flow id="JF9577" begin="0" fromJunction="J10" toJunction="J18" end="3600" vehsPerHour="18.32"/>
  <flow id="JF9578" begin="0" fromJunction="J10" toJunction="J17" end="3600" vehsPerHour="18.32"/>
  <flow id="JF9579" begin="0" fromJunction="J10" toJunction="J16" end="3600" vehsPerHour="18.32"/>
  <flow id="JF9580" begin="0" fromJunction="J10" toJunction="J15" end="3600" vehsPerHour="18.32"/>
  <flow id="JF9581" begin="0" fromJunction="J10" toJunction="J14" end="3600" vehsPerHour="18.32"/>
  <flow id="JF9582" begin="0" fromJunction="J10" toJunction="J13" end="3600" vehsPerHour="18.32"/>
  <flow id="JF9583" begin="0" fromJunction="J10" toJunction="J12" end="3600" vehsPerHour="18.32"/>
  <flow id="JF9584" begin="0" fromJunction="J10" toJunction="J11" end="3600" vehsPerHour="18.32"/>
  <flow id="JF9585" begin="0" fromJunction="J7" toJunction="J10" end="3600" vehsPerHour="36.64"/>
  <flow id="JF9586" begin="0" fromJunction="J7" toJunction="J11" end="3600" vehsPerHour="36.64"/>
  <flow id="JF9587" begin="0" fromJunction="J7" toJunction="J12" end="3600" vehsPerHour="36.64"/>
  <flow id="JF9588" begin="0" fromJunction="J7" toJunction="J13" end="3600" vehsPerHour="36.64"/>
  <flow id="JF9589" begin="0" fromJunction="J7" toJunction="J14" end="3600" vehsPerHour="36.64"/>
  <flow id="JF9590" begin="0" fromJunction="J7" toJunction="J15" end="3600" vehsPerHour="36.64"/>
  <flow id="JF9591" begin="0" fromJunction="J7" toJunction="J16" end="3600" vehsPerHour="36.64"/>
  <flow id="JF9592" begin="0" fromJunction="J7" toJunction="J17" end="3600" vehsPerHour="36.64"/>
  <flow id="JF9593" begin="0" fromJunction="J7" toJunction="J18" end="3600" vehsPerHour="36.64"/>
  <flow id="JF9594" begin="0" fromJunction="J7" toJunction="J19" end="3600" vehsPerHour="36.64"/>
  <flow id="JF9595" begin="0" fromJunction="J7" toJunction="J20" end="3600" vehsPerHour="36.64"/>
  <flow id="JF9596" begin="0" fromJunction="J7" toJunction="J21" end="3600" vehsPerHour="36.64"/>
  <flow id="JF9597" begin="0" fromJunction="J7" toJunction="J22" end="3600" vehsPerHour="36.64"/>
  <flow id="JF9598" begin="0" fromJunction="J7" toJunction="J8" end="3600" vehsPerHour="36.64"/>
  <flow id="JF9599" begin="0" fromJunction="J7" toJunction="J9" end="3600" vehsPerHour="36.64"/>
</routes>