<?xml version="1.0" encoding="UTF-8"?>
<routes xmlns:xsi="http://www.w3.org/2001/XMLSchema-instance" xsi:noNamespaceSchemaLocation="http://sumo.dlr.de/xsd/routes_file.xsd">
  <flow id="JF3840" begin="0" fromJunction="J11" toJunction="J12" end="3600" vehsPerHour="305.33333333333337"/>
  <flow id="JF3841" begin="0" fromJunction="J11" toJunction="J13" end="3600" vehsPerHour="76.33333333333334"/>
  <flow id="JF3842" begin="0" fromJunction="J11" toJunction="J14" end="3600" vehsPerHour="76.33333333333334"/>
  <flow id="JF3843" begin="0" fromJunction="J11" toJunction="J15" end="3600" vehsPerHour="76.33333333333334"/>
  <flow id="JF3844" begin="0" fromJunction="J11" toJunction="J16" end="3600" vehsPerHour="76.33333333333334"/>
  <flow id="JF3845" begin="0" fromJunction="J11" toJunction="J17" end="3600" vehsPerHour="76.33333333333334"/>
  <flow id="JF3846" begin="0" fromJunction="J11" toJunction="J18" end="3600" vehsPerHour="76.33333333333334"/>
  <flow id="JF3847" begin="0" fromJunction="J11" toJunction="J19" end="3600" vehsPerHour="76.33333333333334"/>
  <flow id="JF3848" begin="0" fromJunction="J11" toJunction="J20" end="3600" vehsPerHour="76.33333333333334"/>
  <flow id="JF3849" begin="0" fromJunction="J11" toJunction="J21" end="3600" vehsPerHour="76.33333333333334"/>
  <flow id="JF3850" begin="0" fromJunction="J11" toJunction="J22" end="3600" vehsPerHour="76.33333333333334"/>
  <flow id="JF3851" begin="0" fromJunction="J11" toJunction="J7" end="3600" vehsPerHour="76.33333333333334"/>
  <flow id="JF3852" begin="0" fromJunction="J11" toJunction="J8" end="3600" vehsPerHour="76.33333333333334"/>
  <flow id="JF3853" begin="0" fromJunction="J11" toJunction="J9" end="3600" vehsPerHour="76.33333333333334"/>
  <flow id="JF3854" begin="0" fromJunction="J11" toJunction="J10" end="3600" vehsPerHour="76.33333333333334"/>
  <flow id="JF3855" begin="0" fromJunction="J12" toJunction="J10" end="3600" vehsPerHour="18.32"/>
  <flow id="JF3856" begin="0" fromJunction="J12" toJunction="J11" end="3600" vehsPerHour="18.32"/>
  <flow id="JF3857" begin="0" fromJunction="J12" toJunction="J13" end="3600" vehsPerHour="18.32"/>
  <flow id="JF3858" begin="0" fromJunction="J12" toJunction="J14" end="3600" vehsPerHour="18.32"/>
  <flow id="JF3859" begin="0" fromJunction="J12" toJunction="J15" end="3600" vehsPerHour="18.32"/>
  <flow id="JF3860" begin="0" fromJunction="J12" toJunction="J16" end="3600" vehsPerHour="18.32"/>
  <flow id="JF3861" begin="0" fromJunction="J12" toJunction="J17" end="3600" vehsPerHour="18.32"/>
  <flow id="JF3862" begin="0" fromJunction="J12" toJunction="J18" end="3600" vehsPerHour="18.32"/>
  <flow id="JF3863" begin="0" fromJunction="J12" toJunction="J19" end="3600" vehsPerHour="18.32"/>
  <flow id="JF3864" begin="0" fromJunction="J12" toJunction="J20" end="3600" vehsPerHour="18.32"/>
  <flow id="JF3865" begin="0" fromJunction="J12" toJunction="J21" end="3600" vehsPerHour="18.32"/>
  <flow id="JF3866" begin="0" fromJunction="J12" toJunction="J22" end="3600" vehsPerHour="18.32"/>
  <flow id="JF3867" begin="0" fromJunction="J12" toJunction="J7" end="3600" vehsPerHour="18.32"/>
  <flow id="JF3868" begin="0" fromJunction="J12" toJunction="J8" end="3600" vehsPerHour="18.32"/>
  <flow id="JF3869" begin="0" fromJunction="J12" toJunction="J9" end="3600" vehsPerHour="18.32"/>
  <flow id="JF3870" begin="0" fromJunction="J13" toJunction="J10" end="3600" vehsPerHour="18.32"/>
  <flow id="JF3871" begin="0" fromJunction="J13" toJunction="J11" end="3600" vehsPerHour="18.32"/>
  <flow id="JF3872" begin="0" fromJunction="J13" toJunction="J12" end="3600" vehsPerHour="18.32"/>
  <flow id="JF3873" begin="0" fromJunction="J13" toJunction="J14" end="3600" vehsPerHour="18.32"/>
  <flow id="JF3874" begin="0" fromJunction="J13" toJunction="J15" end="3600" vehsPerHour="18.32"/>
  <flow id="JF3875" begin="0" fromJunction="J13" toJunction="J16" end="3600" vehsPerHour="18.32"/>
  <flow id="JF3876" begin="0" fromJunction="J13" toJunction="J17" end="3600" vehsPerHour="18.32"/>
  <flow id="JF3877" begin="0" fromJunction="J13" toJunction="J18" end="3600" vehsPerHour="18.32"/>
  <flow id="JF3878" begin="0" fromJunction="J13" toJunction="J19" end="3600" vehsPerHour="18.32"/>
  <flow id="JF3879" begin="0" fromJunction="J13" toJunction="J20" end="3600" vehsPerHour="18.32"/>
  <flow id="JF3880" begin="0" fromJunction="J13" toJunction="J21" end="3600" vehsPerHour="18.32"/>
  <flow id="JF3881" begin="0" fromJunction="J13" toJunction="J22" end="3600" vehsPerHour="18.32"/>
  <flow id="JF3882" begin="0" fromJunction="J13" toJunction="J7" end="3600" vehsPerHour="18.32"/>
  <flow id="JF3883" begin="0" fromJunction="J13" toJunction="J8" end="3600" vehsPerHour="18.32"/>
  <flow id="JF3884" begin="0" fromJunction="J13" toJunction="J9" end="3600" vehsPerHour="18.32"/>
  <flow id="JF3885" begin="0" fromJunction="J14" toJunction="J10" end="3600" vehsPerHour="18.32"/>
  <flow id="JF3886" begin="0" fromJunction="J14" toJunction="J11" end="3600" vehsPerHour="18.32"/>
  <flow id="JF3887" begin="0" fromJunction="J14" toJunction="J12" end="3600" vehsPerHour="18.32"/>
  <flow id="JF3888" begin="0" fromJunction="J14" toJunction="J13" end="3600" vehsPerHour="18.32"/>
  <flow id="JF3889" begin="0" fromJunction="J14" toJunction="J15" end="3600" vehsPerHour="18.32"/>
  <flow id="JF3890" begin="0" fromJunction="J14" toJunction="J16" end="3600" vehsPerHour="18.32"/>
  <flow id="JF3891" begin="0" fromJunction="J14" toJunction="J17" end="3600" vehsPerHour="18.32"/>
  <flow id="JF3892" begin="0" fromJunction="J14" toJunction="J18" end="3600" vehsPerHour="18.32"/>
  <flow id="JF3893" begin="0" fromJunction="J14" toJunction="J19" end="3600" vehsPerHour="18.32"/>
  <flow id="JF3894" begin="0" fromJunction="J14" toJunction="J20" end="3600" vehsPerHour="18.32"/>
  <flow id="JF3895" begin="0" fromJunction="J14" toJunction="J21" end="3600" vehsPerHour="18.32"/>
  <flow id="JF3896" begin="0" fromJunction="J14" toJunction="J22" end="3600" vehsPerHour="18.32"/>
  <flow id="JF3897" begin="0" fromJunction="J14" toJunction="J7" end="3600" vehsPerHour="18.32"/>
  <flow id="JF3898" begin="0" fromJunction="J14" toJunction="J8" end="3600" vehsPerHour="18.32"/>
  <flow id="JF3899" begin="0" fromJunction="J14" toJunction="J9" end="3600" vehsPerHour="18.32"/>
  <flow id="JF3900" begin="0" fromJunction="J15" toJunction="J10" end="3600" vehsPerHour="18.32"/>
  <flow id="JF3901" begin="0" fromJunction="J15" toJunction="J11" end="3600" vehsPerHour="18.32"/>
  <flow id="JF3902" begin="0" fromJunction="J15" toJunction="J12" end="3600" vehsPerHour="18.32"/>
  <flow id="JF3903" begin="0" fromJunction="J15" toJunction="J13" end="3600" vehsPerHour="18.32"/>
  <flow id="JF3904" begin="0" fromJunction="J15" toJunction="J14" end="3600" vehsPerHour="18.32"/>
  <flow id="JF3905" begin="0" fromJunction="J15" toJunction="J16" end="3600" vehsPerHour="18.32"/>
  <flow id="JF3906" begin="0" fromJunction="J15" toJunction="J17" end="3600" vehsPerHour="18.32"/>
  <flow id="JF3907" begin="0" fromJunction="J15" toJunction="J18" end="3600" vehsPerHour="18.32"/>
  <flow id="JF3908" begin="0" fromJunction="J15" toJunction="J19" end="3600" vehsPerHour="18.32"/>
  <flow id="JF3909" begin="0" fromJunction="J15" toJunction="J20" end="3600" vehsPerHour="18.32"/>
  <flow id="JF3910" begin="0" fromJunction="J15" toJunction="J21" end="3600" vehsPerHour="18.32"/>
  <flow id="JF3911" begin="0" fromJunction="J15" toJunction="J22" end="3600" vehsPerHour="18.32"/>
  <flow id="JF3912" begin="0" fromJunction="J15" toJunction="J7" end="3600" vehsPerHour="18.32"/>
  <flow id="JF3913" begin="0" fromJunction="J15" toJunction="J8" end="3600" vehsPerHour="18.32"/>
  <flow id="JF3914" begin="0" fromJunction="J15" toJunction="J9" end="3600" vehsPerHour="18.32"/>
  <flow id="JF3915" begin="0" fromJunction="J16" toJunction="J10" end="3600" vehsPerHour="18.32"/>
  <flow id="JF3916" begin="0" fromJunction="J16" toJunction="J11" end="3600" vehsPerHour="18.32"/>
  <flow id="JF3917" begin="0" fromJunction="J16" toJunction="J12" end="3600" vehsPerHour="18.32"/>
  <flow id="JF3918" begin="0" fromJunction="J16" toJunction="J13" end="3600" vehsPerHour="18.32"/>
  <flow id="JF3919" begin="0" fromJunction="J16" toJunction="J14" end="3600" vehsPerHour="18.32"/>
  <flow id="JF3920" begin="0" fromJunction="J16" toJunction="J15" end="3600" vehsPerHour="18.32"/>
  <flow id="JF3921" begin="0" fromJunction="J16" toJunction="J17" end="3600" vehsPerHour="18.32"/>
  <flow id="JF3922" begin="0" fromJunction="J16" toJunction="J18" end="3600" vehsPerHour="18.32"/>
  <flow id="JF3923" begin="0" fromJunction="J16" toJunction="J19" end="3600" vehsPerHour="18.32"/>
  <flow id="JF3924" begin="0" fromJunction="J16" toJunction="J20" end="3600" vehsPerHour="18.32"/>
  <flow id="JF3925" begin="0" fromJunction="J16" toJunction="J21" end="3600" vehsPerHour="18.32"/>
  <flow id="JF3926" begin="0" fromJunction="J16" toJunction="J22" end="3600" vehsPerHour="18.32"/>
  <flow id="JF3927" begin="0" fromJunction="J16" toJunction="J7" end="3600" vehsPerHour="18.32"/>
  <flow id="JF3928" begin="0" fromJunction="J16" toJunction="J8" end="3600" vehsPerHour="18.32"/>
  <flow id="JF3929" begin="0" fromJunction="J16" toJunction="J9" end="3600" vehsPerHour="18.32"/>
  <flow id="JF3930" begin="0" fromJunction="J17" toJunction="J10" end="3600" vehsPerHour="18.32"/>
  <flow id="JF3931" begin="0" fromJunction="J17" toJunction="J11" end="3600" vehsPerHour="18.32"/>
  <flow id="JF3932" begin="0" fromJunction="J17" toJunction="J12" end="3600" vehsPerHour="18.32"/>
  <flow id="JF3933" begin="0" fromJunction="J17" toJunction="J13" end="3600" vehsPerHour="18.32"/>
  <flow id="JF3934" begin="0" fromJunction="J17" toJunction="J14" end="3600" vehsPerHour="18.32"/>
  <flow id="JF3935" begin="0" fromJunction="J17" toJunction="J15" end="3600" vehsPerHour="18.32"/>
  <flow id="JF3936" begin="0" fromJunction="J17" toJunction="J16" end="3600" vehsPerHour="18.32"/>
  <flow id="JF3937" begin="0" fromJunction="J17" toJunction="J18" end="3600" vehsPerHour="18.32"/>
  <flow id="JF3938" begin="0" fromJunction="J17" toJunction="J19" end="3600" vehsPerHour="18.32"/>
  <flow id="JF3939" begin="0" fromJunction="J17" toJunction="J20" end="3600" vehsPerHour="18.32"/>
  <flow id="JF3940" begin="0" fromJunction="J17" toJunction="J21" end="3600" vehsPerHour="18.32"/>
  <flow id="JF3941" begin="0" fromJunction="J17" toJunction="J22" end="3600" vehsPerHour="18.32"/>
  <flow id="JF3942" begin="0" fromJunction="J17" toJunction="J7" end="3600" vehsPerHour="18.32"/>
  <flow id="JF3943" begin="0" fromJunction="J17" toJunction="J8" end="3600" vehsPerHour="18.32"/>
  <flow id="JF3944" begin="0" fromJunction="J17" toJunction="J9" end="3600" vehsPerHour="18.32"/>
  <flow id="JF3945" begin="0" fromJunction="J18" toJunction="J10" end="3600" vehsPerHour="18.32"/>
  <flow id="JF3946" begin="0" fromJunction="J18" toJunction="J11" end="3600" vehsPerHour="18.32"/>
  <flow id="JF3947" begin="0" fromJunction="J18" toJunction="J12" end="3600" vehsPerHour="18.32"/>
  <flow id="JF3948" begin="0" fromJunction="J18" toJunction="J13" end="3600" vehsPerHour="18.32"/>
  <flow id="JF3949" begin="0" fromJunction="J18" toJunction="J14" end="3600" vehsPerHour="18.32"/>
  <flow id="JF3950" begin="0" fromJunction="J18" toJunction="J15" end="3600" vehsPerHour="18.32"/>
  <flow id="JF3951" begin="0" fromJunction="J18" toJunction="J16" end="3600" vehsPerHour="18.32"/>
  <flow id="JF3952" begin="0" fromJunction="J18" toJunction="J17" end="3600" vehsPerHour="18.32"/>
  <flow id="JF3953" begin="0" fromJunction="J18" toJunction="J19" end="3600" vehsPerHour="18.32"/>
  <flow id="JF3954" begin="0" fromJunction="J18" toJunction="J20" end="3600" vehsPerHour="18.32"/>
  <flow id="JF3955" begin="0" fromJunction="J18" toJunction="J21" end="3600" vehsPerHour="18.32"/>
  <flow id="JF3956" begin="0" fromJunction="J18" toJunction="J22" end="3600" vehsPerHour="18.32"/>
  <flow id="JF3957" begin="0" fromJunction="J18" toJunction="J7" end="3600" vehsPerHour="18.32"/>
  <flow id="JF3958" begin="0" fromJunction="J18" toJunction="J8" end="3600" vehsPerHour="18.32"/>
  <flow id="JF3959" begin="0" fromJunction="J18" toJunction="J9" end="3600" vehsPerHour="18.32"/>
  <flow id="JF3960" begin="0" fromJunction="J19" toJunction="J10" end="3600" vehsPerHour="18.32"/>
  <flow id="JF3961" begin="0" fromJunction="J19" toJunction="J11" end="3600" vehsPerHour="18.32"/>
  <flow id="JF3962" begin="0" fromJunction="J19" toJunction="J12" end="3600" vehsPerHour="18.32"/>
  <flow id="JF3963" begin="0" fromJunction="J19" toJunction="J13" end="3600" vehsPerHour="18.32"/>
  <flow id="JF3964" begin="0" fromJunction="J19" toJunction="J14" end="3600" vehsPerHour="18.32"/>
  <flow id="JF3965" begin="0" fromJunction="J19" toJunction="J15" end="3600" vehsPerHour="18.32"/>
  <flow id="JF3966" begin="0" fromJunction="J19" toJunction="J16" end="3600" vehsPerHour="18.32"/>
  <flow id="JF3967" begin="0" fromJunction="J19" toJunction="J17" end="3600" vehsPerHour="18.32"/>
  <flow id="JF3968" begin="0" fromJunction="J19" toJunction="J18" end="3600" vehsPerHour="18.32"/>
  <flow id="JF3969" begin="0" fromJunction="J19" toJunction="J20" end="3600" vehsPerHour="18.32"/>
  <flow id="JF3970" begin="0" fromJunction="J19" toJunction="J21" end="3600" vehsPerHour="18.32"/>
  <flow id="JF3971" begin="0" fromJunction="J19" toJunction="J22" end="3600" vehsPerHour="18.32"/>
  <flow id="JF3972" begin="0" fromJunction="J19" toJunction="J7" end="3600" vehsPerHour="18.32"/>
  <flow id="JF3973" begin="0" fromJunction="J19" toJunction="J8" end="3600" vehsPerHour="18.32"/>
  <flow id="JF3974" begin="0" fromJunction="J19" toJunction="J9" end="3600" vehsPerHour="18.32"/>
  <flow id="JF3975" begin="0" fromJunction="J20" toJunction="J10" end="3600" vehsPerHour="18.32"/>
  <flow id="JF3976" begin="0" fromJunction="J20" toJunction="J11" end="3600" vehsPerHour="18.32"/>
  <flow id="JF3977" begin="0" fromJunction="J20" toJunction="J12" end="3600" vehsPerHour="18.32"/>
  <flow id="JF3978" begin="0" fromJunction="J20" toJunction="J13" end="3600" vehsPerHour="18.32"/>
  <flow id="JF3979" begin="0" fromJunction="J20" toJunction="J14" end="3600" vehsPerHour="18.32"/>
  <flow id="JF3980" begin="0" fromJunction="J20" toJunction="J15" end="3600" vehsPerHour="18.32"/>
  <flow id="JF3981" begin="0" fromJunction="J20" toJunction="J16" end="3600" vehsPerHour="18.32"/>
  <flow id="JF3982" begin="0" fromJunction="J20" toJunction="J17" end="3600" vehsPerHour="18.32"/>
  <flow id="JF3983" begin="0" fromJunction="J20" toJunction="J18" end="3600" vehsPerHour="18.32"/>
  <flow id="JF3984" begin="0" fromJunction="J20" toJunction="J19" end="3600" vehsPerHour="18.32"/>
  <flow id="JF3985" begin="0" fromJunction="J20" toJunction="J21" end="3600" vehsPerHour="18.32"/>
  <flow id="JF3986" begin="0" fromJunction="J20" toJunction="J22" end="3600" vehsPerHour="18.32"/>
  <flow id="JF3987" begin="0" fromJunction="J20" toJunction="J7" end="3600" vehsPerHour="18.32"/>
  <flow id="JF3988" begin="0" fromJunction="J20" toJunction="J8" end="3600" vehsPerHour="18.32"/>
  <flow id="JF3989" begin="0" fromJunction="J20" toJunction="J9" end="3600" vehsPerHour="18.32"/>
  <flow id="JF3990" begin="0" fromJunction="J21" toJunction="J10" end="3600" vehsPerHour="18.32"/>
  <flow id="JF3991" begin="0" fromJunction="J21" toJunction="J11" end="3600" vehsPerHour="18.32"/>
  <flow id="JF3992" begin="0" fromJunction="J21" toJunction="J12" end="3600" vehsPerHour="18.32"/>
  <flow id="JF3993" begin="0" fromJunction="J21" toJunction="J13" end="3600" vehsPerHour="18.32"/>
  <flow id="JF3994" begin="0" fromJunction="J21" toJunction="J14" end="3600" vehsPerHour="18.32"/>
  <flow id="JF3995" begin="0" fromJunction="J21" toJunction="J15" end="3600" vehsPerHour="18.32"/>
  <flow id="JF3996" begin="0" fromJunction="J21" toJunction="J16" end="3600" vehsPerHour="18.32"/>
  <flow id="JF3997" begin="0" fromJunction="J21" toJunction="J17" end="3600" vehsPerHour="18.32"/>
  <flow id="JF3998" begin="0" fromJunction="J21" toJunction="J18" end="3600" vehsPerHour="18.32"/>
  <flow id="JF3999" begin="0" fromJunction="J21" toJunction="J19" end="3600" vehsPerHour="18.32"/>
  <flow id="JF4000" begin="0" fromJunction="J21" toJunction="J20" end="3600" vehsPerHour="18.32"/>
  <flow id="JF4001" begin="0" fromJunction="J21" toJunction="J22" end="3600" vehsPerHour="18.32"/>
  <flow id="JF4002" begin="0" fromJunction="J21" toJunction="J7" end="3600" vehsPerHour="18.32"/>
  <flow id="JF4003" begin="0" fromJunction="J21" toJunction="J8" end="3600" vehsPerHour="18.32"/>
  <flow id="JF4004" begin="0" fromJunction="J21" toJunction="J9" end="3600" vehsPerHour="18.32"/>
  <flow id="JF4005" begin="0" fromJunction="J22" toJunction="J10" end="3600" vehsPerHour="18.32"/>
  <flow id="JF4006" begin="0" fromJunction="J22" toJunction="J11" end="3600" vehsPerHour="18.32"/>
  <flow id="JF4007" begin="0" fromJunction="J22" toJunction="J12" end="3600" vehsPerHour="18.32"/>
  <flow id="JF4008" begin="0" fromJunction="J22" toJunction="J13" end="3600" vehsPerHour="18.32"/>
  <flow id="JF4009" begin="0" fromJunction="J22" toJunction="J14" end="3600" vehsPerHour="18.32"/>
  <flow id="JF4010" begin="0" fromJunction="J22" toJunction="J15" end="3600" vehsPerHour="18.32"/>
  <flow id="JF4011" begin="0" fromJunction="J22" toJunction="J16" end="3600" vehsPerHour="18.32"/>
  <flow id="JF4012" begin="0" fromJunction="J22" toJunction="J17" end="3600" vehsPerHour="18.32"/>
  <flow id="JF4013" begin="0" fromJunction="J22" toJunction="J18" end="3600" vehsPerHour="18.32"/>
  <flow id="JF4014" begin="0" fromJunction="J22" toJunction="J19" end="3600" vehsPerHour="18.32"/>
  <flow id="JF4015" begin="0" fromJunction="J22" toJunction="J20" end="3600" vehsPerHour="18.32"/>
  <flow id="JF4016" begin="0" fromJunction="J22" toJunction="J21" end="3600" vehsPerHour="18.32"/>
  <flow id="JF4017" begin="0" fromJunction="J22" toJunction="J7" end="3600" vehsPerHour="18.32"/>
  <flow id="JF4018" begin="0" fromJunction="J22" toJunction="J8" end="3600" vehsPerHour="18.32"/>
  <flow id="JF4019" begin="0" fromJunction="J22" toJunction="J9" end="3600" vehsPerHour="18.32"/>
  <flow id="JF4020" begin="0" fromJunction="J8" toJunction="J10" end="3600" vehsPerHour="36.64"/>
  <flow id="JF4021" begin="0" fromJunction="J8" toJunction="J11" end="3600" vehsPerHour="36.64"/>
  <flow id="JF4022" begin="0" fromJunction="J8" toJunction="J12" end="3600" vehsPerHour="36.64"/>
  <flow id="JF4023" begin="0" fromJunction="J8" toJunction="J13" end="3600" vehsPerHour="36.64"/>
  <flow id="JF4024" begin="0" fromJunction="J8" toJunction="J14" end="3600" vehsPerHour="36.64"/>
  <flow id="JF4025" begin="0" fromJunction="J8" toJunction="J15" end="3600" vehsPerHour="36.64"/>
  <flow id="JF4026" begin="0" fromJunction="J8" toJunction="J16" end="3600" vehsPerHour="36.64"/>
  <flow id="JF4027" begin="0" fromJunction="J8" toJunction="J17" end="3600" vehsPerHour="36.64"/>
  <flow id="JF4028" begin="0" fromJunction="J8" toJunction="J18" end="3600" vehsPerHour="36.64"/>
  <flow id="JF4029" begin="0" fromJunction="J8" toJunction="J19" end="3600" vehsPerHour="36.64"/>
  <flow id="JF4030" begin="0" fromJunction="J8" toJunction="J20" end="3600" vehsPerHour="36.64"/>
  <flow id="JF4031" begin="0" fromJunction="J8" toJunction="J21" end="3600" vehsPerHour="36.64"/>
  <flow id="JF4032" begin="0" fromJunction="J8" toJunction="J22" end="3600" vehsPerHour="36.64"/>
  <flow id="JF4033" begin="0" fromJunction="J8" toJunction="J7" end="3600" vehsPerHour="36.64"/>
  <flow id="JF4034" begin="0" fromJunction="J8" toJunction="J9" end="3600" vehsPerHour="36.64"/>
  <flow id="JF4035" begin="0" fromJunction="J9" toJunction="J10" end="3600" vehsPerHour="18.32"/>
  <flow id="JF4036" begin="0" fromJunction="J9" toJunction="J11" end="3600" vehsPerHour="18.32"/>
  <flow id="JF4037" begin="0" fromJunction="J9" toJunction="J12" end="3600" vehsPerHour="18.32"/>
  <flow id="JF4038" begin="0" fromJunction="J9" toJunction="J13" end="3600" vehsPerHour="18.32"/>
  <flow id="JF4039" begin="0" fromJunction="J9" toJunction="J14" end="3600" vehsPerHour="18.32"/>
  <flow id="JF4040" begin="0" fromJunction="J9" toJunction="J15" end="3600" vehsPerHour="18.32"/>
  <flow id="JF4041" begin="0" fromJunction="J9" toJunction="J16" end="3600" vehsPerHour="18.32"/>
  <flow id="JF4042" begin="0" fromJunction="J9" toJunction="J17" end="3600" vehsPerHour="18.32"/>
  <flow id="JF4043" begin="0" fromJunction="J9" toJunction="J18" end="3600" vehsPerHour="18.32"/>
  <flow id="JF4044" begin="0" fromJunction="J9" toJunction="J19" end="3600" vehsPerHour="18.32"/>
  <flow id="JF4045" begin="0" fromJunction="J9" toJunction="J20" end="3600" vehsPerHour="18.32"/>
  <flow id="JF4046" begin="0" fromJunction="J9" toJunction="J21" end="3600" vehsPerHour="18.32"/>
  <flow id="JF4047" begin="0" fromJunction="J9" toJunction="J22" end="3600" vehsPerHour="18.32"/>
  <flow id="JF4048" begin="0" fromJunction="J9" toJunction="J7" end="3600" vehsPerHour="18.32"/>
  <flow id="JF4049" begin="0" fromJunction="J9" toJunction="J8" end="3600" vehsPerHour="18.32"/>
  <flow id="JF4050" begin="0" fromJunction="J10" toJunction="J9" end="3600" vehsPerHour="18.32"/>
  <flow id="JF4051" begin="0" fromJunction="J10" toJunction="J8" end="3600" vehsPerHour="18.32"/>
  <flow id="JF4052" begin="0" fromJunction="J10" toJunction="J7" end="3600" vehsPerHour="18.32"/>
  <flow id="JF4053" begin="0" fromJunction="J10" toJunction="J22" end="3600" vehsPerHour="18.32"/>
  <flow id="JF4054" begin="0" fromJunction="J10" toJunction="J21" end="3600" vehsPerHour="18.32"/>
  <flow id="JF4055" begin="0" fromJunction="J10" toJunction="J20" end="3600" vehsPerHour="18.32"/>
  <flow id="JF4056" begin="0" fromJunction="J10" toJunction="J19" end="3600" vehsPerHour="18.32"/>
  <flow id="JF4057" begin="0" fromJunction="J10" toJunction="J18" end="3600" vehsPerHour="18.32"/>
  <flow id="JF4058" begin="0" fromJunction="J10" toJunction="J17" end="3600" vehsPerHour="18.32"/>
  <flow id="JF4059" begin="0" fromJunction="J10" toJunction="J16" end="3600" vehsPerHour="18.32"/>
  <flow id="JF4060" begin="0" fromJunction="J10" toJunction="J15" end="3600" vehsPerHour="18.32"/>
  <flow id="JF4061" begin="0" fromJunction="J10" toJunction="J14" end="3600" vehsPerHour="18.32"/>
  <flow id="JF4062" begin="0" fromJunction="J10" toJunction="J13" end="3600" vehsPerHour="18.32"/>
  <flow id="JF4063" begin="0" fromJunction="J10" toJunction="J12" end="3600" vehsPerHour="18.32"/>
  <flow id="JF4064" begin="0" fromJunction="J10" toJunction="J11" end="3600" vehsPerHour="18.32"/>
  <flow id="JF4065" begin="0" fromJunction="J7" toJunction="J10" end="3600" vehsPerHour="36.64"/>
  <flow id="JF4066" begin="0" fromJunction="J7" toJunction="J11" end="3600" vehsPerHour="36.64"/>
  <flow id="JF4067" begin="0" fromJunction="J7" toJunction="J12" end="3600" vehsPerHour="36.64"/>
  <flow id="JF4068" begin="0" fromJunction="J7" toJunction="J13" end="3600" vehsPerHour="36.64"/>
  <flow id="JF4069" begin="0" fromJunction="J7" toJunction="J14" end="3600" vehsPerHour="36.64"/>
  <flow id="JF4070" begin="0" fromJunction="J7" toJunction="J15" end="3600" vehsPerHour="36.64"/>
  <flow id="JF4071" begin="0" fromJunction="J7" toJunction="J16" end="3600" vehsPerHour="36.64"/>
  <flow id="JF4072" begin="0" fromJunction="J7" toJunction="J17" end="3600" vehsPerHour="36.64"/>
  <flow id="JF4073" begin="0" fromJunction="J7" toJunction="J18" end="3600" vehsPerHour="36.64"/>
  <flow id="JF4074" begin="0" fromJunction="J7" toJunction="J19" end="3600" vehsPerHour="36.64"/>
  <flow id="JF4075" begin="0" fromJunction="J7" toJunction="J20" end="3600" vehsPerHour="36.64"/>
  <flow id="JF4076" begin="0" fromJunction="J7" toJunction="J21" end="3600" vehsPerHour="36.64"/>
  <flow id="JF4077" begin="0" fromJunction="J7" toJunction="J22" end="3600" vehsPerHour="36.64"/>
  <flow id="JF4078" begin="0" fromJunction="J7" toJunction="J8" end="3600" vehsPerHour="36.64"/>
  <flow id="JF4079" begin="0" fromJunction="J7" toJunction="J9" end="3600" vehsPerHour="36.64"/>
</routes>