<?xml version="1.0" encoding="UTF-8"?>
<routes xmlns:xsi="http://www.w3.org/2001/XMLSchema-instance" xsi:noNamespaceSchemaLocation="http://sumo.dlr.de/xsd/routes_file.xsd">
  <flow id="JF18240" begin="0" fromJunction="J3" toJunction="J0" end="5000" vehsPerHour="28.92618796282742" departLane="free"/>
  <flow id="JF18241" begin="0" fromJunction="J0" toJunction="J3" end="5000" vehsPerHour="91.42046192242596" departLane="free"/>
  <flow id="JF18242" begin="0" fromJunction="J3" toJunction="J7" end="5000" vehsPerHour="38.86978955905366" departLane="free"/>
  <flow id="JF18243" begin="0" fromJunction="J3" toJunction="J4" end="5000" vehsPerHour="124.14679210503053" departLane="free"/>
  <flow id="JF18244" begin="0" fromJunction="J3" toJunction="J5" end="5000" vehsPerHour="63.00121667377106" departLane="free"/>
  <flow id="JF18245" begin="0" fromJunction="J3" toJunction="J6" end="5000" vehsPerHour="51.52141739966636" departLane="free"/>
  <flow id="JF18246" begin="0" fromJunction="J0" toJunction="J7" end="5000" vehsPerHour="496.36609085643425" departLane="free"/>
  <flow id="JF18247" begin="0" fromJunction="J0" toJunction="J4" end="5000" vehsPerHour="489.41333584042854" departLane="free"/>
  <flow id="JF18248" begin="0" fromJunction="J0" toJunction="J5" end="5000" vehsPerHour="471.4262155364779" departLane="free"/>
  <flow id="JF18249" begin="0" fromJunction="J0" toJunction="J6" end="5000" vehsPerHour="322.7073812984395" departLane="free"/>
  <flow id="JF18250" begin="0" fromJunction="J7" toJunction="J4" end="5000" vehsPerHour="26.675440753760835" departLane="free"/>
  <flow id="JF18251" begin="0" fromJunction="J7" toJunction="J5" end="5000" vehsPerHour="14.255431350665763" departLane="free"/>
  <flow id="JF18252" begin="0" fromJunction="J7" toJunction="J6" end="5000" vehsPerHour="31.794207547277736" departLane="free"/>
  <flow id="JF18253" begin="0" fromJunction="J4" toJunction="J7" end="5000" vehsPerHour="63.33046898880837" departLane="free"/>
  <flow id="JF18254" begin="0" fromJunction="J4" toJunction="J5" end="5000" vehsPerHour="1.6375859215331585" departLane="free"/>
  <flow id="JF18255" begin="0" fromJunction="J4" toJunction="J6" end="5000" vehsPerHour="35.500343529671284" departLane="free"/>
  <flow id="JF18256" begin="0" fromJunction="J5" toJunction="J7" end="5000" vehsPerHour="43.38075076117507" departLane="free"/>
  <flow id="JF18257" begin="0" fromJunction="J5" toJunction="J4" end="5000" vehsPerHour="51.4028966479807" departLane="free"/>
  <flow id="JF18258" begin="0" fromJunction="J5" toJunction="J6" end="5000" vehsPerHour="19.31153440475483" departLane="free"/>
  <flow id="JF18259" begin="0" fromJunction="J6" toJunction="J7" end="5000" vehsPerHour="0.010811678261386504" departLane="free"/>
  <flow id="JF18260" begin="0" fromJunction="J6" toJunction="J4" end="5000" vehsPerHour="25.732928456792227" departLane="free"/>
  <flow id="JF18261" begin="0" fromJunction="J6" toJunction="J5" end="5000" vehsPerHour="12.006306975598656" departLane="free"/>
  <flow id="JF18262" begin="0" fromJunction="J7" toJunction="J3" end="5000" vehsPerHour="220.1310532925619" departLane="free"/>
  <flow id="JF18263" begin="0" fromJunction="J7" toJunction="J0" end="5000" vehsPerHour="49.419357473898195" departLane="free"/>
  <flow id="JF18264" begin="0" fromJunction="J4" toJunction="J3" end="5000" vehsPerHour="159.9776504702162" departLane="free"/>
  <flow id="JF18265" begin="0" fromJunction="J4" toJunction="J0" end="5000" vehsPerHour="211.97151203674542" departLane="free"/>
  <flow id="JF18266" begin="0" fromJunction="J5" toJunction="J3" end="5000" vehsPerHour="204.38438694218038" departLane="free"/>
  <flow id="JF18267" begin="0" fromJunction="J5" toJunction="J0" end="5000" vehsPerHour="162.66904231765963" departLane="free"/>
  <flow id="JF18268" begin="0" fromJunction="J6" toJunction="J3" end="5000" vehsPerHour="208.26328878789246" departLane="free"/>
  <flow id="JF18269" begin="0" fromJunction="J6" toJunction="J0" end="5000" vehsPerHour="33.65343998133474" departLane="free"/>
  <flow id="JF18270" begin="5000" fromJunction="J3" toJunction="J0" end="5060" vehsPerHour="38.902157624461786" departLane="free"/>
  <flow id="JF18271" begin="5000" fromJunction="J0" toJunction="J3" end="5060" vehsPerHour="36.72193482537139" departLane="free"/>
  <flow id="JF18272" begin="5000" fromJunction="J3" toJunction="J7" end="5060" vehsPerHour="72.44159740053308" departLane="free"/>
  <flow id="JF18273" begin="5000" fromJunction="J3" toJunction="J4" end="5060" vehsPerHour="11.723320992453743" departLane="free"/>
  <flow id="JF18274" begin="5000" fromJunction="J3" toJunction="J5" end="5060" vehsPerHour="57.19637267956292" departLane="free"/>
  <flow id="JF18275" begin="5000" fromJunction="J3" toJunction="J6" end="5060" vehsPerHour="22.583958729906687" departLane="free"/>
  <flow id="JF18276" begin="5000" fromJunction="J0" toJunction="J7" end="5060" vehsPerHour="18.700497365156455" departLane="free"/>
  <flow id="JF18277" begin="5000" fromJunction="J0" toJunction="J4" end="5060" vehsPerHour="43.204066165917716" departLane="free"/>
  <flow id="JF18278" begin="5000" fromJunction="J0" toJunction="J5" end="5060" vehsPerHour="122.83448061649534" departLane="free"/>
  <flow id="JF18279" begin="5000" fromJunction="J0" toJunction="J6" end="5060" vehsPerHour="68.1942507223199" departLane="free"/>
  <flow id="JF18280" begin="5000" fromJunction="J7" toJunction="J4" end="5060" vehsPerHour="40.02015208316887" departLane="free"/>
  <flow id="JF18281" begin="5000" fromJunction="J7" toJunction="J5" end="5060" vehsPerHour="57.11528284376333" departLane="free"/>
  <flow id="JF18282" begin="5000" fromJunction="J7" toJunction="J6" end="5060" vehsPerHour="17.353604333438494" departLane="free"/>
  <flow id="JF18283" begin="5000" fromJunction="J4" toJunction="J7" end="5060" vehsPerHour="51.58692445585858" departLane="free"/>
  <flow id="JF18284" begin="5000" fromJunction="J4" toJunction="J5" end="5060" vehsPerHour="29.21519110154379" departLane="free"/>
  <flow id="JF18285" begin="5000" fromJunction="J4" toJunction="J6" end="5060" vehsPerHour="40.67580661113674" departLane="free"/>
  <flow id="JF18286" begin="5000" fromJunction="J5" toJunction="J7" end="5060" vehsPerHour="26.864460094574834" departLane="free"/>
  <flow id="JF18287" begin="5000" fromJunction="J5" toJunction="J4" end="5060" vehsPerHour="64.2190114388345" departLane="free"/>
  <flow id="JF18288" begin="5000" fromJunction="J5" toJunction="J6" end="5060" vehsPerHour="59.85017125069175" departLane="free"/>
  <flow id="JF18289" begin="5000" fromJunction="J6" toJunction="J7" end="5060" vehsPerHour="37.5223724091371" departLane="free"/>
  <flow id="JF18290" begin="5000" fromJunction="J6" toJunction="J4" end="5060" vehsPerHour="10.319323281560369" departLane="free"/>
  <flow id="JF18291" begin="5000" fromJunction="J6" toJunction="J5" end="5060" vehsPerHour="1.575776852346324" departLane="free"/>
  <flow id="JF18292" begin="5000" fromJunction="J7" toJunction="J3" end="5060" vehsPerHour="23.562992852229613" departLane="free"/>
  <flow id="JF18293" begin="5000" fromJunction="J7" toJunction="J0" end="5060" vehsPerHour="53.93302051572159" departLane="free"/>
  <flow id="JF18294" begin="5000" fromJunction="J4" toJunction="J3" end="5060" vehsPerHour="9.62254063151855" departLane="free"/>
  <flow id="JF18295" begin="5000" fromJunction="J4" toJunction="J0" end="5060" vehsPerHour="11.87394572178175" departLane="free"/>
  <flow id="JF18296" begin="5000" fromJunction="J5" toJunction="J3" end="5060" vehsPerHour="29.51993343487696" departLane="free"/>
  <flow id="JF18297" begin="5000" fromJunction="J5" toJunction="J0" end="5060" vehsPerHour="59.207559515099064" departLane="free"/>
  <flow id="JF18298" begin="5000" fromJunction="J6" toJunction="J3" end="5060" vehsPerHour="61.99764066760079" departLane="free"/>
  <flow id="JF18299" begin="5000" fromJunction="J6" toJunction="J0" end="5060" vehsPerHour="22.317479927568282" departLane="free"/>
  <flow id="JF18300" begin="5060" fromJunction="J3" toJunction="J0" end="5120" vehsPerHour="85.87734120342823" departLane="free"/>
  <flow id="JF18301" begin="5060" fromJunction="J0" toJunction="J3" end="5120" vehsPerHour="89.35603096199398" departLane="free"/>
  <flow id="JF18302" begin="5060" fromJunction="J3" toJunction="J7" end="5120" vehsPerHour="95.94145201427229" departLane="free"/>
  <flow id="JF18303" begin="5060" fromJunction="J3" toJunction="J4" end="5120" vehsPerHour="72.64600294564944" departLane="free"/>
  <flow id="JF18304" begin="5060" fromJunction="J3" toJunction="J5" end="5120" vehsPerHour="25.122633816573614" departLane="free"/>
  <flow id="JF18305" begin="5060" fromJunction="J3" toJunction="J6" end="5120" vehsPerHour="44.97357932026977" departLane="free"/>
  <flow id="JF18306" begin="5060" fromJunction="J0" toJunction="J7" end="5120" vehsPerHour="77.0120982221104" departLane="free"/>
  <flow id="JF18307" begin="5060" fromJunction="J0" toJunction="J4" end="5120" vehsPerHour="43.8489999040325" departLane="free"/>
  <flow id="JF18308" begin="5060" fromJunction="J0" toJunction="J5" end="5120" vehsPerHour="104.27945117812791" departLane="free"/>
  <flow id="JF18309" begin="5060" fromJunction="J0" toJunction="J6" end="5120" vehsPerHour="40.55056663499417" departLane="free"/>
  <flow id="JF18310" begin="5120" fromJunction="J3" toJunction="J0" end="5180" vehsPerHour="59.15240426626918" departLane="free"/>
  <flow id="JF18311" begin="5120" fromJunction="J0" toJunction="J3" end="5180" vehsPerHour="94.67447627649969" departLane="free"/>
  <flow id="JF18312" begin="5120" fromJunction="J3" toJunction="J7" end="5180" vehsPerHour="11.447285455661378" departLane="free"/>
  <flow id="JF18313" begin="5120" fromJunction="J3" toJunction="J4" end="5180" vehsPerHour="99.41140000076211" departLane="free"/>
  <flow id="JF18314" begin="5120" fromJunction="J3" toJunction="J5" end="5180" vehsPerHour="135.83150435146368" departLane="free"/>
  <flow id="JF18315" begin="5120" fromJunction="J3" toJunction="J6" end="5180" vehsPerHour="70.72076300345887" departLane="free"/>
  <flow id="JF18316" begin="5120" fromJunction="J0" toJunction="J7" end="5180" vehsPerHour="131.09765002421267" departLane="free"/>
  <flow id="JF18317" begin="5120" fromJunction="J0" toJunction="J4" end="5180" vehsPerHour="1.8097321539130045" departLane="free"/>
  <flow id="JF18318" begin="5120" fromJunction="J0" toJunction="J5" end="5180" vehsPerHour="130.65025668728882" departLane="free"/>
  <flow id="JF18319" begin="5120" fromJunction="J0" toJunction="J6" end="5180" vehsPerHour="9.52087593260691" departLane="free"/>
  <flow id="JF18320" begin="5180" fromJunction="J3" toJunction="J0" end="5240" vehsPerHour="101.36478904316287" departLane="free"/>
  <flow id="JF18321" begin="5180" fromJunction="J0" toJunction="J3" end="5240" vehsPerHour="90.10801484096925" departLane="free"/>
  <flow id="JF18322" begin="5180" fromJunction="J3" toJunction="J7" end="5240" vehsPerHour="18.296446323747475" departLane="free"/>
  <flow id="JF18323" begin="5180" fromJunction="J3" toJunction="J4" end="5240" vehsPerHour="16.15331236906976" departLane="free"/>
  <flow id="JF18324" begin="5180" fromJunction="J3" toJunction="J5" end="5240" vehsPerHour="112.21246143420699" departLane="free"/>
  <flow id="JF18325" begin="5180" fromJunction="J3" toJunction="J6" end="5240" vehsPerHour="85.42609409587297" departLane="free"/>
  <flow id="JF18326" begin="5180" fromJunction="J0" toJunction="J7" end="5240" vehsPerHour="24.719232572563644" departLane="free"/>
  <flow id="JF18327" begin="5180" fromJunction="J0" toJunction="J4" end="5240" vehsPerHour="0.9508035326998224" departLane="free"/>
  <flow id="JF18328" begin="5180" fromJunction="J0" toJunction="J5" end="5240" vehsPerHour="136.41913641930128" departLane="free"/>
  <flow id="JF18329" begin="5180" fromJunction="J0" toJunction="J6" end="5240" vehsPerHour="131.87651658454214" departLane="free"/>
  <flow id="JF18330" begin="5180" fromJunction="J7" toJunction="J4" end="5240" vehsPerHour="64.02022676390321" departLane="free"/>
  <flow id="JF18331" begin="5180" fromJunction="J7" toJunction="J5" end="5240" vehsPerHour="41.21414566869694" departLane="free"/>
  <flow id="JF18332" begin="5180" fromJunction="J7" toJunction="J6" end="5240" vehsPerHour="28.5619892064307" departLane="free"/>
  <flow id="JF18333" begin="5180" fromJunction="J4" toJunction="J7" end="5240" vehsPerHour="67.48479428463827" departLane="free"/>
  <flow id="JF18334" begin="5180" fromJunction="J4" toJunction="J5" end="5240" vehsPerHour="54.430892515607745" departLane="free"/>
  <flow id="JF18335" begin="5180" fromJunction="J4" toJunction="J6" end="5240" vehsPerHour="9.393286503843493" departLane="free"/>
  <flow id="JF18336" begin="5180" fromJunction="J5" toJunction="J7" end="5240" vehsPerHour="53.97887730356946" departLane="free"/>
  <flow id="JF18337" begin="5180" fromJunction="J5" toJunction="J4" end="5240" vehsPerHour="35.87662519954256" departLane="free"/>
  <flow id="JF18338" begin="5180" fromJunction="J5" toJunction="J6" end="5240" vehsPerHour="35.72081070324749" departLane="free"/>
  <flow id="JF18339" begin="5180" fromJunction="J6" toJunction="J7" end="5240" vehsPerHour="56.450044208505766" departLane="free"/>
  <flow id="JF18340" begin="5180" fromJunction="J6" toJunction="J4" end="5240" vehsPerHour="55.2781903788017" departLane="free"/>
  <flow id="JF18341" begin="5180" fromJunction="J6" toJunction="J5" end="5240" vehsPerHour="2.141717844015842" departLane="free"/>
  <flow id="JF18342" begin="5180" fromJunction="J7" toJunction="J3" end="5240" vehsPerHour="49.54670813972467" departLane="free"/>
  <flow id="JF18343" begin="5180" fromJunction="J7" toJunction="J0" end="5240" vehsPerHour="60.22812583991534" departLane="free"/>
  <flow id="JF18344" begin="5180" fromJunction="J4" toJunction="J3" end="5240" vehsPerHour="15.558498360364025" departLane="free"/>
  <flow id="JF18345" begin="5180" fromJunction="J4" toJunction="J0" end="5240" vehsPerHour="67.17365811055502" departLane="free"/>
  <flow id="JF18346" begin="5180" fromJunction="J5" toJunction="J3" end="5240" vehsPerHour="27.22278998339933" departLane="free"/>
  <flow id="JF18347" begin="5180" fromJunction="J5" toJunction="J0" end="5240" vehsPerHour="29.445348440080995" departLane="free"/>
  <flow id="JF18348" begin="5180" fromJunction="J6" toJunction="J3" end="5240" vehsPerHour="31.37773757025793" departLane="free"/>
  <flow id="JF18349" begin="5180" fromJunction="J6" toJunction="J0" end="5240" vehsPerHour="56.09789034678249" departLane="free"/>
  <flow id="JF18350" begin="5240" fromJunction="J3" toJunction="J0" end="5300" vehsPerHour="113.30772021856009" departLane="free"/>
  <flow id="JF18351" begin="5240" fromJunction="J0" toJunction="J3" end="5300" vehsPerHour="104.7892991963611" departLane="free"/>
  <flow id="JF18352" begin="5240" fromJunction="J3" toJunction="J7" end="5300" vehsPerHour="67.55899739030033" departLane="free"/>
  <flow id="JF18353" begin="5240" fromJunction="J3" toJunction="J4" end="5300" vehsPerHour="12.131654776713784" departLane="free"/>
  <flow id="JF18354" begin="5240" fromJunction="J3" toJunction="J5" end="5300" vehsPerHour="62.93485066984942" departLane="free"/>
  <flow id="JF18355" begin="5240" fromJunction="J3" toJunction="J6" end="5300" vehsPerHour="1.3110382393420967" departLane="free"/>
  <flow id="JF18356" begin="5240" fromJunction="J0" toJunction="J7" end="5300" vehsPerHour="21.71649663350393" departLane="free"/>
  <flow id="JF18357" begin="5240" fromJunction="J0" toJunction="J4" end="5300" vehsPerHour="31.863256577662145" departLane="free"/>
  <flow id="JF18358" begin="5240" fromJunction="J0" toJunction="J5" end="5300" vehsPerHour="80.13262994026124" departLane="free"/>
  <flow id="JF18359" begin="5240" fromJunction="J0" toJunction="J6" end="5300" vehsPerHour="13.223151104768057" departLane="free"/>
  <flow id="JF18360" begin="5240" fromJunction="J7" toJunction="J4" end="5300" vehsPerHour="61.055749693101795" departLane="free"/>
  <flow id="JF18361" begin="5240" fromJunction="J7" toJunction="J5" end="5300" vehsPerHour="63.92951859756649" departLane="free"/>
  <flow id="JF18362" begin="5240" fromJunction="J7" toJunction="J6" end="5300" vehsPerHour="48.57396597065518" departLane="free"/>
  <flow id="JF18363" begin="5240" fromJunction="J4" toJunction="J7" end="5300" vehsPerHour="8.292012599912404" departLane="free"/>
  <flow id="JF18364" begin="5240" fromJunction="J4" toJunction="J5" end="5300" vehsPerHour="22.544489860605122" departLane="free"/>
  <flow id="JF18365" begin="5240" fromJunction="J4" toJunction="J6" end="5300" vehsPerHour="17.21584627265432" departLane="free"/>
  <flow id="JF18366" begin="5240" fromJunction="J5" toJunction="J7" end="5300" vehsPerHour="3.990401430870519" departLane="free"/>
  <flow id="JF18367" begin="5240" fromJunction="J5" toJunction="J4" end="5300" vehsPerHour="50.76893017760047" departLane="free"/>
  <flow id="JF18368" begin="5240" fromJunction="J5" toJunction="J6" end="5300" vehsPerHour="5.653114017920094" departLane="free"/>
  <flow id="JF18369" begin="5240" fromJunction="J6" toJunction="J7" end="5300" vehsPerHour="68.51429033724132" departLane="free"/>
  <flow id="JF18370" begin="5240" fromJunction="J6" toJunction="J4" end="5300" vehsPerHour="61.48535157990483" departLane="free"/>
  <flow id="JF18371" begin="5240" fromJunction="J6" toJunction="J5" end="5300" vehsPerHour="16.06103155881696" departLane="free"/>
  <flow id="JF18372" begin="5240" fromJunction="J7" toJunction="J3" end="5300" vehsPerHour="28.450600072205894" departLane="free"/>
  <flow id="JF18373" begin="5240" fromJunction="J7" toJunction="J0" end="5300" vehsPerHour="68.64130872781828" departLane="free"/>
  <flow id="JF18374" begin="5240" fromJunction="J4" toJunction="J3" end="5300" vehsPerHour="40.01536207249001" departLane="free"/>
  <flow id="JF18375" begin="5240" fromJunction="J4" toJunction="J0" end="5300" vehsPerHour="50.84700849949818" departLane="free"/>
  <flow id="JF18376" begin="5240" fromJunction="J5" toJunction="J3" end="5300" vehsPerHour="24.397961710945165" departLane="free"/>
  <flow id="JF18377" begin="5240" fromJunction="J5" toJunction="J0" end="5300" vehsPerHour="59.3722047058929" departLane="free"/>
  <flow id="JF18378" begin="5240" fromJunction="J6" toJunction="J3" end="5300" vehsPerHour="4.24412311069165" departLane="free"/>
  <flow id="JF18379" begin="5240" fromJunction="J6" toJunction="J0" end="5300" vehsPerHour="5.703613650989745" departLane="free"/>
  <flow id="JF18380" begin="5300" fromJunction="J3" toJunction="J0" end="5360" vehsPerHour="103.7157903760405" departLane="free"/>
  <flow id="JF18381" begin="5300" fromJunction="J0" toJunction="J3" end="5360" vehsPerHour="71.42320451982118" departLane="free"/>
  <flow id="JF18382" begin="5300" fromJunction="J3" toJunction="J7" end="5360" vehsPerHour="87.41024413768237" departLane="free"/>
  <flow id="JF18383" begin="5300" fromJunction="J3" toJunction="J4" end="5360" vehsPerHour="120.8221981425846" departLane="free"/>
  <flow id="JF18384" begin="5300" fromJunction="J3" toJunction="J5" end="5360" vehsPerHour="133.94275979440994" departLane="free"/>
  <flow id="JF18385" begin="5300" fromJunction="J3" toJunction="J6" end="5360" vehsPerHour="17.384001094942874" departLane="free"/>
  <flow id="JF18386" begin="5300" fromJunction="J0" toJunction="J7" end="5360" vehsPerHour="71.0162965837601" departLane="free"/>
  <flow id="JF18387" begin="5300" fromJunction="J0" toJunction="J4" end="5360" vehsPerHour="132.6784911571338" departLane="free"/>
  <flow id="JF18388" begin="5300" fromJunction="J0" toJunction="J5" end="5360" vehsPerHour="81.97169342752592" departLane="free"/>
  <flow id="JF18389" begin="5300" fromJunction="J0" toJunction="J6" end="5360" vehsPerHour="126.99968983120513" departLane="free"/>
  <flow id="JF18390" begin="5300" fromJunction="J7" toJunction="J4" end="5360" vehsPerHour="37.51561295291622" departLane="free"/>
  <flow id="JF18391" begin="5300" fromJunction="J7" toJunction="J5" end="5360" vehsPerHour="52.3954842550244" departLane="free"/>
  <flow id="JF18392" begin="5300" fromJunction="J7" toJunction="J6" end="5360" vehsPerHour="34.766755002323336" departLane="free"/>
  <flow id="JF18393" begin="5300" fromJunction="J4" toJunction="J7" end="5360" vehsPerHour="67.90734713693345" departLane="free"/>
  <flow id="JF18394" begin="5300" fromJunction="J4" toJunction="J5" end="5360" vehsPerHour="55.06675209798689" departLane="free"/>
  <flow id="JF18395" begin="5300" fromJunction="J4" toJunction="J6" end="5360" vehsPerHour="60.61906558778497" departLane="free"/>
  <flow id="JF18396" begin="5300" fromJunction="J5" toJunction="J7" end="5360" vehsPerHour="39.83929761350169" departLane="free"/>
  <flow id="JF18397" begin="5300" fromJunction="J5" toJunction="J4" end="5360" vehsPerHour="7.429303368679736" departLane="free"/>
  <flow id="JF18398" begin="5300" fromJunction="J5" toJunction="J6" end="5360" vehsPerHour="61.52972224356827" departLane="free"/>
  <flow id="JF18399" begin="5300" fromJunction="J6" toJunction="J7" end="5360" vehsPerHour="8.37743874363977" departLane="free"/>
  <flow id="JF18400" begin="5300" fromJunction="J6" toJunction="J4" end="5360" vehsPerHour="15.224617951106321" departLane="free"/>
  <flow id="JF18401" begin="5300" fromJunction="J6" toJunction="J5" end="5360" vehsPerHour="2.58136242507996" departLane="free"/>
  <flow id="JF18402" begin="5300" fromJunction="J7" toJunction="J3" end="5360" vehsPerHour="37.60570680928079" departLane="free"/>
  <flow id="JF18403" begin="5300" fromJunction="J7" toJunction="J0" end="5360" vehsPerHour="20.42607271668864" departLane="free"/>
  <flow id="JF18404" begin="5300" fromJunction="J4" toJunction="J3" end="5360" vehsPerHour="37.33938642064785" departLane="free"/>
  <flow id="JF18405" begin="5300" fromJunction="J4" toJunction="J0" end="5360" vehsPerHour="11.766953771534183" departLane="free"/>
  <flow id="JF18406" begin="5300" fromJunction="J5" toJunction="J3" end="5360" vehsPerHour="29.22084561154425" departLane="free"/>
  <flow id="JF18407" begin="5300" fromJunction="J5" toJunction="J0" end="5360" vehsPerHour="37.34685742841584" departLane="free"/>
  <flow id="JF18408" begin="5300" fromJunction="J6" toJunction="J3" end="5360" vehsPerHour="32.91866414897652" departLane="free"/>
  <flow id="JF18409" begin="5300" fromJunction="J6" toJunction="J0" end="5360" vehsPerHour="26.55898868661641" departLane="free"/>
  <flow id="JF18410" begin="5360" fromJunction="J3" toJunction="J0" end="5420" vehsPerHour="9.58412964363788" departLane="free"/>
  <flow id="JF18411" begin="5360" fromJunction="J0" toJunction="J3" end="5420" vehsPerHour="94.97035703842768" departLane="free"/>
  <flow id="JF18412" begin="5360" fromJunction="J3" toJunction="J7" end="5420" vehsPerHour="120.64045950694384" departLane="free"/>
  <flow id="JF18413" begin="5360" fromJunction="J3" toJunction="J4" end="5420" vehsPerHour="54.057157559377664" departLane="free"/>
  <flow id="JF18414" begin="5360" fromJunction="J3" toJunction="J5" end="5420" vehsPerHour="90.69713849192459" departLane="free"/>
  <flow id="JF18415" begin="5360" fromJunction="J3" toJunction="J6" end="5420" vehsPerHour="30.659466461295892" departLane="free"/>
  <flow id="JF18416" begin="5360" fromJunction="J0" toJunction="J7" end="5420" vehsPerHour="10.917448241625472" departLane="free"/>
  <flow id="JF18417" begin="5360" fromJunction="J0" toJunction="J4" end="5420" vehsPerHour="54.063306483394605" departLane="free"/>
  <flow id="JF18418" begin="5360" fromJunction="J0" toJunction="J5" end="5420" vehsPerHour="51.51939335013297" departLane="free"/>
  <flow id="JF18419" begin="5360" fromJunction="J0" toJunction="J6" end="5420" vehsPerHour="36.73629306772539" departLane="free"/>
  <flow id="JF18420" begin="5360" fromJunction="J7" toJunction="J4" end="5420" vehsPerHour="4.260217872357782" departLane="free"/>
  <flow id="JF18421" begin="5360" fromJunction="J7" toJunction="J5" end="5420" vehsPerHour="53.369158287110565" departLane="free"/>
  <flow id="JF18422" begin="5360" fromJunction="J7" toJunction="J6" end="5420" vehsPerHour="44.20351534891821" departLane="free"/>
  <flow id="JF18423" begin="5360" fromJunction="J4" toJunction="J7" end="5420" vehsPerHour="44.58227063175724" departLane="free"/>
  <flow id="JF18424" begin="5360" fromJunction="J4" toJunction="J5" end="5420" vehsPerHour="53.19916667417404" departLane="free"/>
  <flow id="JF18425" begin="5360" fromJunction="J4" toJunction="J6" end="5420" vehsPerHour="28.18212134046115" departLane="free"/>
  <flow id="JF18426" begin="5360" fromJunction="J5" toJunction="J7" end="5420" vehsPerHour="45.03490778052647" departLane="free"/>
  <flow id="JF18427" begin="5360" fromJunction="J5" toJunction="J4" end="5420" vehsPerHour="3.4266385194955458" departLane="free"/>
  <flow id="JF18428" begin="5360" fromJunction="J5" toJunction="J6" end="5420" vehsPerHour="9.285939739698229" departLane="free"/>
  <flow id="JF18429" begin="5360" fromJunction="J6" toJunction="J7" end="5420" vehsPerHour="57.39706198941772" departLane="free"/>
  <flow id="JF18430" begin="5360" fromJunction="J6" toJunction="J4" end="5420" vehsPerHour="46.31022304291408" departLane="free"/>
  <flow id="JF18431" begin="5360" fromJunction="J6" toJunction="J5" end="5420" vehsPerHour="31.70893223972662" departLane="free"/>
  <flow id="JF18432" begin="5360" fromJunction="J7" toJunction="J3" end="5420" vehsPerHour="43.04737002869052" departLane="free"/>
  <flow id="JF18433" begin="5360" fromJunction="J7" toJunction="J0" end="5420" vehsPerHour="13.850982323013168" departLane="free"/>
  <flow id="JF18434" begin="5360" fromJunction="J4" toJunction="J3" end="5420" vehsPerHour="18.452067966297157" departLane="free"/>
  <flow id="JF18435" begin="5360" fromJunction="J4" toJunction="J0" end="5420" vehsPerHour="2.3264214550502413" departLane="free"/>
  <flow id="JF18436" begin="5360" fromJunction="J5" toJunction="J3" end="5420" vehsPerHour="7.745349073653762" departLane="free"/>
  <flow id="JF18437" begin="5360" fromJunction="J5" toJunction="J0" end="5420" vehsPerHour="54.86712575208805" departLane="free"/>
  <flow id="JF18438" begin="5360" fromJunction="J6" toJunction="J3" end="5420" vehsPerHour="19.9202073434082" departLane="free"/>
  <flow id="JF18439" begin="5360" fromJunction="J6" toJunction="J0" end="5420" vehsPerHour="8.755984286602098" departLane="free"/>
  <flow id="JF18440" begin="5420" fromJunction="J3" toJunction="J0" end="5480" vehsPerHour="76.91011380866063" departLane="free"/>
  <flow id="JF18441" begin="5420" fromJunction="J0" toJunction="J3" end="5480" vehsPerHour="92.80872608648959" departLane="free"/>
  <flow id="JF18442" begin="5420" fromJunction="J3" toJunction="J7" end="5480" vehsPerHour="46.53795722064792" departLane="free"/>
  <flow id="JF18443" begin="5420" fromJunction="J3" toJunction="J4" end="5480" vehsPerHour="2.4159932832522046" departLane="free"/>
  <flow id="JF18444" begin="5420" fromJunction="J3" toJunction="J5" end="5480" vehsPerHour="126.75211817306403" departLane="free"/>
  <flow id="JF18445" begin="5420" fromJunction="J3" toJunction="J6" end="5480" vehsPerHour="110.00511625902651" departLane="free"/>
  <flow id="JF18446" begin="5420" fromJunction="J0" toJunction="J7" end="5480" vehsPerHour="81.04854232027319" departLane="free"/>
  <flow id="JF18447" begin="5420" fromJunction="J0" toJunction="J4" end="5480" vehsPerHour="135.33094945513812" departLane="free"/>
  <flow id="JF18448" begin="5420" fromJunction="J0" toJunction="J5" end="5480" vehsPerHour="56.648657875484396" departLane="free"/>
  <flow id="JF18449" begin="5420" fromJunction="J0" toJunction="J6" end="5480" vehsPerHour="6.140311661559963" departLane="free"/>
  <flow id="JF18450" begin="5420" fromJunction="J7" toJunction="J4" end="5480" vehsPerHour="66.65999781901535" departLane="free"/>
  <flow id="JF18451" begin="5420" fromJunction="J7" toJunction="J5" end="5480" vehsPerHour="56.55025844422379" departLane="free"/>
  <flow id="JF18452" begin="5420" fromJunction="J7" toJunction="J6" end="5480" vehsPerHour="49.19575470195337" departLane="free"/>
  <flow id="JF18453" begin="5420" fromJunction="J4" toJunction="J7" end="5480" vehsPerHour="36.056638555591995" departLane="free"/>
  <flow id="JF18454" begin="5420" fromJunction="J4" toJunction="J5" end="5480" vehsPerHour="25.902055904939253" departLane="free"/>
  <flow id="JF18455" begin="5420" fromJunction="J4" toJunction="J6" end="5480" vehsPerHour="0.2946192763856232" departLane="free"/>
  <flow id="JF18456" begin="5420" fromJunction="J5" toJunction="J7" end="5480" vehsPerHour="26.22843567587374" departLane="free"/>
  <flow id="JF18457" begin="5420" fromJunction="J5" toJunction="J4" end="5480" vehsPerHour="43.466696294450074" departLane="free"/>
  <flow id="JF18458" begin="5420" fromJunction="J5" toJunction="J6" end="5480" vehsPerHour="28.194512154898113" departLane="free"/>
  <flow id="JF18459" begin="5420" fromJunction="J6" toJunction="J7" end="5480" vehsPerHour="47.815732099491264" departLane="free"/>
  <flow id="JF18460" begin="5420" fromJunction="J6" toJunction="J4" end="5480" vehsPerHour="43.73389567351072" departLane="free"/>
  <flow id="JF18461" begin="5420" fromJunction="J6" toJunction="J5" end="5480" vehsPerHour="63.53550312189007" departLane="free"/>
  <flow id="JF18462" begin="5420" fromJunction="J7" toJunction="J3" end="5480" vehsPerHour="62.67440149905598" departLane="free"/>
  <flow id="JF18463" begin="5420" fromJunction="J7" toJunction="J0" end="5480" vehsPerHour="48.59800749735742" departLane="free"/>
  <flow id="JF18464" begin="5420" fromJunction="J4" toJunction="J3" end="5480" vehsPerHour="48.24560312468357" departLane="free"/>
  <flow id="JF18465" begin="5420" fromJunction="J4" toJunction="J0" end="5480" vehsPerHour="53.686792347346994" departLane="free"/>
  <flow id="JF18466" begin="5420" fromJunction="J5" toJunction="J3" end="5480" vehsPerHour="47.186751796672986" departLane="free"/>