<?xml version="1.0" encoding="UTF-8"?>
<routes xmlns:xsi="http://www.w3.org/2001/XMLSchema-instance" xsi:noNamespaceSchemaLocation="http://sumo.dlr.de/xsd/routes_file.xsd">
  <flow id="JF201601" begin="0" fromJunction="J3" toJunction="J0" end="60" vehsPerHour="16.39940890359224"/>
  <flow id="JF201602" begin="0" fromJunction="J0" toJunction="J3" end="60" vehsPerHour="397.2199382174321"/>
  <flow id="JF201603" begin="0" fromJunction="J3" toJunction="J4" end="60" vehsPerHour="90.08214526534746"/>
  <flow id="JF201604" begin="0" fromJunction="J3" toJunction="J7" end="60" vehsPerHour="120.85462422350375"/>
  <flow id="JF201605" begin="0" fromJunction="J3" toJunction="J5" end="60" vehsPerHour="111.99700486419825"/>
  <flow id="JF201606" begin="0" fromJunction="J3" toJunction="J6" end="60" vehsPerHour="92.63370102862703"/>
  <flow id="JF201607" begin="0" fromJunction="J0" toJunction="J4" end="60" vehsPerHour="64.09645127500158"/>
  <flow id="JF201608" begin="0" fromJunction="J0" toJunction="J7" end="60" vehsPerHour="66.50499556946288"/>
  <flow id="JF201609" begin="0" fromJunction="J0" toJunction="J5" end="60" vehsPerHour="132.03891974712732"/>
  <flow id="JF201610" begin="0" fromJunction="J0" toJunction="J6" end="60" vehsPerHour="46.52905717924952"/>
  <flow id="JF201611" begin="60" fromJunction="J3" toJunction="J0" end="120" vehsPerHour="488.67028023586425"/>
  <flow id="JF201612" begin="60" fromJunction="J0" toJunction="J3" end="120" vehsPerHour="486.3511979104854"/>
  <flow id="JF201613" begin="60" fromJunction="J3" toJunction="J4" end="120" vehsPerHour="6.703165923493899"/>
  <flow id="JF201614" begin="60" fromJunction="J3" toJunction="J7" end="120" vehsPerHour="133.07241178013018"/>
  <flow id="JF201615" begin="60" fromJunction="J3" toJunction="J5" end="120" vehsPerHour="107.45600424736054"/>
  <flow id="JF201616" begin="60" fromJunction="J3" toJunction="J6" end="120" vehsPerHour="55.56612044705757"/>
  <flow id="JF201617" begin="60" fromJunction="J0" toJunction="J4" end="120" vehsPerHour="70.42952130021288"/>
  <flow id="JF201618" begin="60" fromJunction="J0" toJunction="J7" end="120" vehsPerHour="109.83442725483276"/>
  <flow id="JF201619" begin="60" fromJunction="J0" toJunction="J5" end="120" vehsPerHour="67.2450689429648"/>
  <flow id="JF201620" begin="60" fromJunction="J0" toJunction="J6" end="120" vehsPerHour="78.53774936351411"/>
  <flow id="JF201621" begin="60" fromJunction="J4" toJunction="J7" end="120" vehsPerHour="14.352033045654377"/>
  <flow id="JF201622" begin="60" fromJunction="J4" toJunction="J5" end="120" vehsPerHour="57.3770538610934"/>
  <flow id="JF201623" begin="60" fromJunction="J4" toJunction="J6" end="120" vehsPerHour="12.919030642868737"/>
  <flow id="JF201624" begin="60" fromJunction="J7" toJunction="J4" end="120" vehsPerHour="42.53164989864959"/>
  <flow id="JF201625" begin="60" fromJunction="J7" toJunction="J5" end="120" vehsPerHour="59.19526667627437"/>
  <flow id="JF201626" begin="60" fromJunction="J7" toJunction="J6" end="120" vehsPerHour="39.91012643544654"/>
  <flow id="JF201627" begin="60" fromJunction="J5" toJunction="J4" end="120" vehsPerHour="38.75616903349262"/>
  <flow id="JF201628" begin="60" fromJunction="J5" toJunction="J7" end="120" vehsPerHour="33.24415641172329"/>
  <flow id="JF201629" begin="60" fromJunction="J5" toJunction="J6" end="120" vehsPerHour="63.93735110532513"/>
  <flow id="JF201630" begin="60" fromJunction="J6" toJunction="J4" end="120" vehsPerHour="50.73628325165676"/>
  <flow id="JF201631" begin="60" fromJunction="J6" toJunction="J7" end="120" vehsPerHour="10.842866323828249"/>
  <flow id="JF201632" begin="60" fromJunction="J6" toJunction="J5" end="120" vehsPerHour="32.53321205193913"/>
  <flow id="JF201633" begin="60" fromJunction="J4" toJunction="J3" end="120" vehsPerHour="15.849607953420342"/>
  <flow id="JF201634" begin="60" fromJunction="J4" toJunction="J0" end="120" vehsPerHour="40.743156047980946"/>
  <flow id="JF201635" begin="60" fromJunction="J7" toJunction="J3" end="120" vehsPerHour="2.2031201427104423"/>
  <flow id="JF201636" begin="60" fromJunction="J7" toJunction="J0" end="120" vehsPerHour="1.8635286001349554"/>
  <flow id="JF201637" begin="60" fromJunction="J5" toJunction="J3" end="120" vehsPerHour="11.527604477335306"/>
  <flow id="JF201638" begin="60" fromJunction="J5" toJunction="J0" end="120" vehsPerHour="46.588774111463685"/>
  <flow id="JF201639" begin="60" fromJunction="J6" toJunction="J3" end="120" vehsPerHour="38.12882776107382"/>
  <flow id="JF201640" begin="60" fromJunction="J6" toJunction="J0" end="120" vehsPerHour="54.12514404545618"/>
  <flow id="JF201641" begin="120" fromJunction="J3" toJunction="J0" end="180" vehsPerHour="335.9733940955342"/>
  <flow id="JF201642" begin="120" fromJunction="J0" toJunction="J3" end="180" vehsPerHour="25.0728410603934"/>
  <flow id="JF201643" begin="120" fromJunction="J3" toJunction="J4" end="180" vehsPerHour="93.58886560377374"/>
  <flow id="JF201644" begin="120" fromJunction="J3" toJunction="J7" end="180" vehsPerHour="110.92856277720891"/>
  <flow id="JF201645" begin="120" fromJunction="J3" toJunction="J5" end="180" vehsPerHour="132.6751823909349"/>
  <flow id="JF201646" begin="120" fromJunction="J3" toJunction="J6" end="180" vehsPerHour="71.62082303796461"/>
  <flow id="JF201647" begin="120" fromJunction="J0" toJunction="J4" end="180" vehsPerHour="79.83615589596297"/>
  <flow id="JF201648" begin="120" fromJunction="J0" toJunction="J7" end="180" vehsPerHour="136.55962111728672"/>
  <flow id="JF201649" begin="120" fromJunction="J0" toJunction="J5" end="180" vehsPerHour="99.59975038839656"/>
  <flow id="JF201650" begin="120" fromJunction="J0" toJunction="J6" end="180" vehsPerHour="136.82896332957478"/>
  <flow id="JF201651" begin="120" fromJunction="J4" toJunction="J7" end="180" vehsPerHour="54.668890528447136"/>
  <flow id="JF201652" begin="120" fromJunction="J4" toJunction="J5" end="180" vehsPerHour="7.55214187494314"/>
  <flow id="JF201653" begin="120" fromJunction="J4" toJunction="J6" end="180" vehsPerHour="26.7898745541349"/>
  <flow id="JF201654" begin="120" fromJunction="J7" toJunction="J4" end="180" vehsPerHour="42.1494546774994"/>
  <flow id="JF201655" begin="120" fromJunction="J7" toJunction="J5" end="180" vehsPerHour="8.335725910656967"/>
  <flow id="JF201656" begin="120" fromJunction="J7" toJunction="J6" end="180" vehsPerHour="42.82987107039944"/>
  <flow id="JF201657" begin="120" fromJunction="J5" toJunction="J4" end="180" vehsPerHour="23.90933185193374"/>
  <flow id="JF201658" begin="120" fromJunction="J5" toJunction="J7" end="180" vehsPerHour="22.968432796770582"/>
  <flow id="JF201659" begin="120" fromJunction="J5" toJunction="J6" end="180" vehsPerHour="64.8206227822168"/>
  <flow id="JF201660" begin="120" fromJunction="J6" toJunction="J4" end="180" vehsPerHour="62.47328915274933"/>
  <flow id="JF201661" begin="120" fromJunction="J6" toJunction="J7" end="180" vehsPerHour="60.28720211640872"/>
  <flow id="JF201662" begin="120" fromJunction="J6" toJunction="J5" end="180" vehsPerHour="19.143150921263864"/>
  <flow id="JF201663" begin="120" fromJunction="J4" toJunction="J3" end="180" vehsPerHour="1.4065727970484427"/>
  <flow id="JF201664" begin="120" fromJunction="J4" toJunction="J0" end="180" vehsPerHour="0.9435457590117734"/>
  <flow id="JF201665" begin="120" fromJunction="J7" toJunction="J3" end="180" vehsPerHour="48.2700841105804"/>
  <flow id="JF201666" begin="120" fromJunction="J7" toJunction="J0" end="180" vehsPerHour="4.440536725390956"/>
  <flow id="JF201667" begin="120" fromJunction="J5" toJunction="J3" end="180" vehsPerHour="55.621132492122534"/>
  <flow id="JF201668" begin="120" fromJunction="J5" toJunction="J0" end="180" vehsPerHour="15.69476752627533"/>
  <flow id="JF201669" begin="120" fromJunction="J6" toJunction="J3" end="180" vehsPerHour="15.270466920250772"/>
  <flow id="JF201670" begin="120" fromJunction="J6" toJunction="J0" end="180" vehsPerHour="36.87044761148476"/>
  <flow id="JF201671" begin="180" fromJunction="J3" toJunction="J0" end="240" vehsPerHour="468.91736623201007"/>
  <flow id="JF201672" begin="180" fromJunction="J0" toJunction="J3" end="240" vehsPerHour="2.0410061080756727"/>
  <flow id="JF201673" begin="180" fromJunction="J3" toJunction="J4" end="240" vehsPerHour="127.52338975136688"/>
  <flow id="JF201674" begin="180" fromJunction="J3" toJunction="J7" end="240" vehsPerHour="129.3746477585038"/>
  <flow id="JF201675" begin="180" fromJunction="J3" toJunction="J5" end="240" vehsPerHour="68.42116128406337"/>
  <flow id="JF201676" begin="180" fromJunction="J3" toJunction="J6" end="240" vehsPerHour="12.089325174741267"/>
  <flow id="JF201677" begin="180" fromJunction="J0" toJunction="J4" end="240" vehsPerHour="65.77057841158401"/>
  <flow id="JF201678" begin="180" fromJunction="J0" toJunction="J7" end="240" vehsPerHour="27.99007759373492"/>
  <flow id="JF201679" begin="180" fromJunction="J0" toJunction="J5" end="240" vehsPerHour="31.461531597888126"/>
  <flow id="JF201680" begin="180" fromJunction="J0" toJunction="J6" end="240" vehsPerHour="70.82462438699638"/>
  <flow id="JF201681" begin="180" fromJunction="J4" toJunction="J7" end="240" vehsPerHour="1.3222149947431279"/>
  <flow id="JF201682" begin="180" fromJunction="J4" toJunction="J5" end="240" vehsPerHour="47.974117671279856"/>
  <flow id="JF201683" begin="180" fromJunction="J4" toJunction="J6" end="240" vehsPerHour="33.21296193190162"/>
  <flow id="JF201684" begin="180" fromJunction="J7" toJunction="J4" end="240" vehsPerHour="36.82525862845974"/>
  <flow id="JF201685" begin="180" fromJunction="J7" toJunction="J5" end="240" vehsPerHour="9.313501446132767"/>
  <flow id="JF201686" begin="180" fromJunction="J7" toJunction="J6" end="240" vehsPerHour="51.878833835010134"/>
  <flow id="JF201687" begin="180" fromJunction="J5" toJunction="J4" end="240" vehsPerHour="23.760578997283393"/>
  <flow id="JF201688" begin="180" fromJunction="J5" toJunction="J7" end="240" vehsPerHour="29.591589597671152"/>
  <flow id="JF201689" begin="180" fromJunction="J5" toJunction="J6" end="240" vehsPerHour="62.53191124648887"/>
  <flow id="JF201690" begin="180" fromJunction="J6" toJunction="J4" end="240" vehsPerHour="62.24924762317208"/>
  <flow id="JF201691" begin="180" fromJunction="J6" toJunction="J7" end="240" vehsPerHour="41.10074610484087"/>
  <flow id="JF201692" begin="180" fromJunction="J6" toJunction="J5" end="240" vehsPerHour="49.765382683719125"/>
  <flow id="JF201693" begin="180" fromJunction="J4" toJunction="J3" end="240" vehsPerHour="39.56319621815968"/>
  <flow id="JF201694" begin="180" fromJunction="J4" toJunction="J0" end="240" vehsPerHour="5.2938319167071555"/>
  <flow id="JF201695" begin="180" fromJunction="J7" toJunction="J3" end="240" vehsPerHour="21.99221066025796"/>
  <flow id="JF201696" begin="180" fromJunction="J7" toJunction="J0" end="240" vehsPerHour="37.91158391675896"/>
  <flow id="JF201697" begin="180" fromJunction="J5" toJunction="J3" end="240" vehsPerHour="44.10014091577644"/>
  <flow id="JF201698" begin="180" fromJunction="J5" toJunction="J0" end="240" vehsPerHour="21.099891514718653"/>
  <flow id="JF201699" begin="180" fromJunction="J6" toJunction="J3" end="240" vehsPerHour="65.64997879925593"/>
  <flow id="JF201700" begin="180" fromJunction="J6" toJunction="J0" end="240" vehsPerHour="68.55722618378891"/>
  <flow id="JF201701" begin="240" fromJunction="J3" toJunction="J0" end="300" vehsPerHour="449.72258057285967"/>
  <flow id="JF201702" begin="240" fromJunction="J0" toJunction="J3" end="300" vehsPerHour="325.7228221004274"/>
  <flow id="JF201703" begin="240" fromJunction="J3" toJunction="J4" end="300" vehsPerHour="28.802711231612875"/>
  <flow id="JF201704" begin="240" fromJunction="J3" toJunction="J7" end="300" vehsPerHour="96.07692558021802"/>
  <flow id="JF201705" begin="240" fromJunction="J3" toJunction="J5" end="300" vehsPerHour="83.47102203361713"/>
  <flow id="JF201706" begin="240" fromJunction="J3" toJunction="J6" end="300" vehsPerHour="89.3604503147943"/>
  <flow id="JF201707" begin="240" fromJunction="J0" toJunction="J4" end="300" vehsPerHour="112.85203171617803"/>
  <flow id="JF201708" begin="240" fromJunction="J0" toJunction="J7" end="300" vehsPerHour="6.225505193413513"/>
  <flow id="JF201709" begin="240" fromJunction="J0" toJunction="J5" end="300" vehsPerHour="110.84353235805507"/>
  <flow id="JF201710" begin="240" fromJunction="J0" toJunction="J6" end="300" vehsPerHour="135.84968947652854"/>
  <flow id="JF201711" begin="240" fromJunction="J4" toJunction="J7" end="300" vehsPerHour="57.68230282425155"/>
  <flow id="JF201712" begin="240" fromJunction="J4" toJunction="J5" end="300" vehsPerHour="18.602183988754373"/>
  <flow id="JF201713" begin="240" fromJunction="J4" toJunction="J6" end="300" vehsPerHour="55.34508444377946"/>
  <flow id="JF201714" begin="240" fromJunction="J7" toJunction="J4" end="300" vehsPerHour="13.06905711371397"/>
  <flow id="JF201715" begin="240" fromJunction="J7" toJunction="J5" end="300" vehsPerHour="59.90594881385188"/>
  <flow id="JF201716" begin="240" fromJunction="J7" toJunction="J6" end="300" vehsPerHour="46.73244931228805"/>
  <flow id="JF201717" begin="240" fromJunction="J5" toJunction="J4" end="300" vehsPerHour="63.96547853240736"/>
  <flow id="JF201718" begin="240" fromJunction="J5" toJunction="J7" end="300" vehsPerHour="30.67997448674545"/>
  <flow id="JF201719" begin="240" fromJunction="J5" toJunction="J6" end="300" vehsPerHour="35.93381900158079"/>
  <flow id="JF201720" begin="240" fromJunction="J6" toJunction="J4" end="300" vehsPerHour="28.46289136271405"/>
  <flow id="JF201721" begin="240" fromJunction="J6" toJunction="J7" end="300" vehsPerHour="56.15728405465001"/>
  <flow id="JF201722" begin="240" fromJunction="J6" toJunction="J5" end="300" vehsPerHour="8.239831026732679"/>
  <flow id="JF201723" begin="240" fromJunction="J4" toJunction="J3" end="300" vehsPerHour="43.48191730576096"/>
  <flow id="JF201724" begin="240" fromJunction="J4" toJunction="J0" end="300" vehsPerHour="54.05889455572133"/>
  <flow id="JF201725" begin="240" fromJunction="J7" toJunction="J3" end="300" vehsPerHour="6.8034336971180425"/>
  <flow id="JF201726" begin="240" fromJunction="J7" toJunction="J0" end="300" vehsPerHour="19.47235137448546"/>
  <flow id="JF201727" begin="240" fromJunction="J5" toJunction="J3" end="300" vehsPerHour="3.4274318151453254"/>
  <flow id="JF201728" begin="240" fromJunction="J5" toJunction="J0" end="300" vehsPerHour="31.977319559421943"/>
  <flow id="JF201729" begin="240" fromJunction="J6" toJunction="J3" end="300" vehsPerHour="41.610519460946826"/>
  <flow id="JF201730" begin="240" fromJunction="J6" toJunction="J0" end="300" vehsPerHour="32.618922541072564"/>
  <flow id="JF201731" begin="300" fromJunction="J3" toJunction="J0" end="360" vehsPerHour="530.8961348896884"/>
  <flow id="JF201732" begin="300" fromJunction="J0" toJunction="J3" end="360" vehsPerHour="423.0348578957199"/>
  <flow id="JF201733" begin="300" fromJunction="J3" toJunction="J4" end="360" vehsPerHour="103.07413113229299"/>
  <flow id="JF201734" begin="300" fromJunction="J3" toJunction="J7" end="360" vehsPerHour="93.2512970408815"/>
  <flow id="JF201735" begin="300" fromJunction="J3" toJunction="J5" end="360" vehsPerHour="23.85197894715952"/>
  <flow id="JF201736" begin="300" fromJunction="J3" toJunction="J6" end="360" vehsPerHour="34.802258603413506"/>
  <flow id="JF201737" begin="300" fromJunction="J0" toJunction="J4" end="360" vehsPerHour="118.5585120223493"/>
  <flow id="JF201738" begin="300" fromJunction="J0" toJunction="J7" end="360" vehsPerHour="33.904617308084255"/>
  <flow id="JF201739" begin="300" fromJunction="J0" toJunction="J5" end="360" vehsPerHour="124.75275085565632"/>
  <flow id="JF201740" begin="300" fromJunction="J0" toJunction="J6" end="360" vehsPerHour="16.653159084608316"/>
  <flow id="JF201741" begin="300" fromJunction="J4" toJunction="J7" end="360" vehsPerHour="25.938250517471747"/>
  <flow id="JF201742" begin="300" fromJunction="J4" toJunction="J5" end="360" vehsPerHour="37.10245348497513"/>
  <flow id="JF201743" begin="300" fromJunction="J4" toJunction="J6" end="360" vehsPerHour="42.76508107749104"/>
  <flow id="JF201744" begin="300" fromJunction="J7" toJunction="J4" end="360" vehsPerHour="10.13910513739141"/>
  <flow id="JF201745" begin="300" fromJunction="J7" toJunction="J5" end="360" vehsPerHour="63.55130751023103"/>
  <flow id="JF201746" begin="300" fromJunction="J7" toJunction="J6" end="360" vehsPerHour="34.63018634400252"/>
  <flow id="JF201747" begin="300" fromJunction="J5" toJunction="J4" end="360" vehsPerHour="59.98474716736288"/>
  <flow id="JF201748" begin="300" fromJunction="J5" toJunction="J7" end="360" vehsPerHour="27.967555809244114"/>
  <flow id="JF201749" begin="300" fromJunction="J5" toJunction="J6" end="360" vehsPerHour="18.603127308728954"/>
  <flow id="JF201750" begin="300" fromJunction="J6" toJunction="J4" end="360" vehsPerHour="54.4251778089544"/>
  <flow id="JF201751" begin="300" fromJunction="J6" toJunction="J7" end="360" vehsPerHour="34.45528799919766"/>
  <flow id="JF201752" begin="300" fromJunction="J6" toJunction="J5" end="360" vehsPerHour="36.46553871508127"/>
  <flow id="JF201753" begin="300" fromJunction="J4" toJunction="J3" end="360" vehsPerHour="42.422848158373036"/>
  <flow id="JF201754" begin="300" fromJunction="J4" toJunction="J0" end="360" vehsPerHour="68.60765779973354"/>
  <flow id="JF201755" begin="300" fromJunction="J7" toJunction="J3" end="360" vehsPerHour="58.056686153003994"/>
  <flow id="JF201756" begin="300" fromJunction="J7" toJunction="J0" end="360" vehsPerHour="50.67159685701386"/>
  <flow id="JF201757" begin="300" fromJunction="J5" toJunction="J3" end="360" vehsPerHour="7.8658519623047605"/>
  <flow id="JF201758" begin="300" fromJunction="J5" toJunction="J0" end="360" vehsPerHour="56.8351662938912"/>
  <flow id="JF201759" begin="300" fromJunction="J6" toJunction="J3" end="360" vehsPerHour="37.166171409024074"/>
  <flow id="JF201760" begin="300" fromJunction="J6" toJunction="J0" end="360" vehsPerHour="61.47868616687423"/>
  <flow id="JF201761" begin="360" fromJunction="J3" toJunction="J0" end="420" vehsPerHour="255.13709590859932"/>
  <flow id="JF201762" begin="360" fromJunction="J0" toJunction="J3" end="420" vehsPerHour="446.0114407235556"/>
  <flow id="JF201763" begin="360" fromJunction="J3" toJunction="J4" end="420" vehsPerHour="113.774787121806"/>
  <flow id="JF201764" begin="360" fromJunction="J3" toJunction="J7" end="420" vehsPerHour="106.82984703463201"/>
  <flow id="JF201765" begin="360" fromJunction="J3" toJunction="J5" end="420" vehsPerHour="22.585579146564996"/>
  <flow id="JF201766" begin="360" fromJunction="J3" toJunction="J6" end="420" vehsPerHour="38.545326297137095"/>
  <flow id="JF201767" begin="360" fromJunction="J0" toJunction="J4" end="420" vehsPerHour="58.544711390009105"/>
  <flow id="JF201768" begin="360" fromJunction="J0" toJunction="J7" end="420" vehsPerHour="54.1269972399185"/>
  <flow id="JF201769" begin="360" fromJunction="J0" toJunction="J5" end="420" vehsPerHour="38.83971908949059"/>
  <flow id="JF201770" begin="360" fromJunction="J0" toJunction="J6" end="420" vehsPerHour="98.59838879425651"/>
  <flow id="JF201771" begin="420" fromJunction="J3" toJunction="J0" end="480" vehsPerHour="208.98150967455354"/>
  <flow id="JF201772" begin="420" fromJunction="J0" toJunction="J3" end="480" vehsPerHour="63.33305834646148"/>
  <flow id="JF201773" begin="420" fromJunction="J3" toJunction="J4" end="480" vehsPerHour="78.3618069574112"/>
  <flow id="JF201774" begin="420" fromJunction="J3" toJunction="J7" end="480" vehsPerHour="85.7894536827669"/>
  <flow id="JF201775" begin="420" fromJunction="J3" toJunction="J5" end="480" vehsPerHour="105.87587434407679"/>
  <flow id="JF201776" begin="420" fromJunction="J3" toJunction="J6" end="480" vehsPerHour="111.47078649695611"/>
  <flow id="JF201777" begin="420" fromJunction="J0" toJunction="J4" end="480" vehsPerHour="115.19259761961672"/>
  <flow id="JF201778" begin="420" fromJunction="J0" toJunction="J7" end="480" vehsPerHour="25.867140944422307"/>
  <flow id="JF201779" begin="420" fromJunction="J0" toJunction="J5" end="480" vehsPerHour="32.864433078880516"/>
  <flow id="JF201780" begin="420" fromJunction="J0" toJunction="J6" end="480" vehsPerHour="26.485668838836297"/>
  <flow id="JF201781" begin="480" fromJunction="J3" toJunction="J0" end="540" vehsPerHour="69.43685394220172"/>
  <flow id="JF201782" begin="480" fromJunction="J0" toJunction="J3" end="540" vehsPerHour="456.3471550245302"/>
  <flow id="JF201783" begin="480" fromJunction="J3" toJunction="J4" end="540" vehsPerHour="57.71473992888294"/>
  <flow id="JF201784" begin="480" fromJunction="J3" toJunction="J7" end="540" vehsPerHour="122.995017633363"/>
  <flow id="JF201785" begin="480" fromJunction="J3" toJunction="J5" end="540" vehsPerHour="120.95953287585247"/>
  <flow id="JF201786" begin="480" fromJunction="J3" toJunction="J6" end="540" vehsPerHour="116.03801137105711"/>
  <flow id="JF201787" begin="480" fromJunction="J0" toJunction="J4" end="540" vehsPerHour="79.79036387847417"/>
  <flow id="JF201788" begin="480" fromJunction="J0" toJunction="J7" end="540" vehsPerHour="42.117861472749325"/>
  <flow id="JF201789" begin="480" fromJunction="J0" toJunction="J5" end="540" vehsPerHour="61.34292116560684"/>
  <flow id="JF201790" begin="480" fromJunction="J0" toJunction="J6" end="540" vehsPerHour="116.07518358653607"/>
  <flow id="JF201791" begin="480" fromJunction="J4" toJunction="J7" end="540" vehsPerHour="36.30253867031776"/>
  <flow id="JF201792" begin="480" fromJunction="J4" toJunction="J5" end="540" vehsPerHour="10.993802008488885"/>
  <flow id="JF201793" begin="480" fromJunction="J4" toJunction="J6" end="540" vehsPerHour="39.64006160683473"/>
  <flow id="JF201794" begin="480" fromJunction="J7" toJunction="J4" end="540" vehsPerHour="16.09352303801006"/>
  <flow id="JF201795" begin="480" fromJunction="J7" toJunction="J5" end="540" vehsPerHour="48.32034748030313"/>
  <flow id="JF201796" begin="480" fromJunction="J7" toJunction="J6" end="540" vehsPerHour="47.723403426821484"/>
  <flow id="JF201797" begin="480" fromJunction="J5" toJunction="J4" end="540" vehsPerHour="3.99121542430941"/>
  <flow id="JF201798" begin="480" fromJunction="J5" toJunction="J7" end="540" vehsPerHour="30.924696467932236"/>
  <flow id="JF201799" begin="480" fromJunction="J5" toJunction="J6" end="540" vehsPerHour="29.27264573736993"/>
  <flow id="JF201800" begin="480" fromJunction="J6" toJunction="J4" end="540" vehsPerHour="0.7999965674340531"/>
  <flow id="JF201801" begin="480" fromJunction="J6" toJunction="J7" end="540" vehsPerHour="53.828125907818524"/>
  <flow id="JF201802" begin="480" fromJunction="J6" toJunction="J5" end="540" vehsPerHour="7.5017774727182776"/>
  <flow id="JF201803" begin="480" fromJunction="J4" toJunction="J3" end="540" vehsPerHour="47.3153881046271"/>
  <flow id="JF201804" begin="480" fromJunction="J4" toJunction="J0" end="540" vehsPerHour="39.443391291026906"/>
  <flow id="JF201805" begin="480" fromJunction="J7" toJunction="J3" end="540" vehsPerHour="4.030613735973968"/>
  <flow id="JF201806" begin="480" fromJunction="J7" toJunction="J0" end="540" vehsPerHour="59.22258368606754"/>
  <flow id="JF201807" begin="480" fromJunction="J5" toJunction="J3" end="540" vehsPerHour="65.83452258213438"/>
  <flow id="JF201808" begin="480" fromJunction="J5" toJunction="J0" end="540" vehsPerHour="57.866268276825075"/>
  <flow id="JF201809" begin="480" fromJunction="J6" toJunction="J3" end="540" vehsPerHour="3.841149844283345"/>
  <flow id="JF201810" begin="480" fromJunction="J6" toJunction="J0" end="540" vehsPerHour="63.67409551432205"/>
  <flow id="JF201811" begin="540" fromJunction="J3" toJunction="J0" end="600" vehsPerHour="404.09056666683574"/>
  <flow id="JF201812" begin="540" fromJunction="J0" toJunction="J3" end="600" vehsPerHour="397.8036333138201"/>
  <flow id="JF201813" begin="540" fromJunction="J3" toJunction="J4" end="600" vehsPerHour="107.67627207352399"/>
  <flow id="JF201814" begin="540" fromJunction="J3" toJunction="J7" end="600" vehsPerHour="121.11056232442479"/>
  <flow id="JF201815" begin="540" fromJunction="J3" toJunction="J5" end="600" vehsPerHour="30.33424841775544"/>
  <flow id="JF201816" begin="540" fromJunction="J3" toJunction="J6" end="600" vehsPerHour="59.93250243303035"/>
  <flow id="JF201817" begin="540" fromJunction="J0" toJunction="J4" end="600" vehsPerHour="15.379494482218352"/>
  <flow id="JF201818" begin="540" fromJunction="J0" toJunction="J7" end="600" vehsPerHour="92.82357556936678"/>
  <flow id="JF201819" begin="540" fromJunction="J0" toJunction="J5" end="600" vehsPerHour="28.918594186231775"/>
  <flow id="JF201820" begin="540" fromJunction="J0" toJunction="J6" end="600" vehsPerHour="39.087659697429274"/>
  <flow id="JF201821" begin="540" fromJunction="J4" toJunction="J7" end="600" vehsPerHour="58.58434145466422"/>
  <flow id="JF201822" begin="540" fromJunction="J4" toJunction="J5" end="600" vehsPerHour="21.753172869694573"/>
  <flow id="JF201823" begin="540" fromJunction="J4" toJunction="J6" end="600" vehsPerHour="38.998863164173876"/>
  <flow id="JF201824" begin="540" fromJunction="J7" toJunction="J4" end="600" vehsPerHour="62.781099970729414"/>
  <flow id="JF201825" begin="540" fromJunction="J7" toJunction="J5" end="600" vehsPerHour="33.83275385825086"/>
  <flow id="JF201826" begin="540" fromJunction="J7" toJunction="J6" end="600" vehsPerHour="25.14017440598779"/>
  <flow id="JF201827" begin="540" fromJunction="J5" toJunction="J4" end="600" vehsPerHour="48.34335613083452"/>
  <flow id="JF201828" begin="540" fromJunction="J5" toJunction="J7" end="600" vehsPerHour="28.044577663604965"/>
  <flow id="JF201829" begin="540" fromJunction="J5" toJunction="J6" end="600" vehsPerHour="60.3651463641017"/>
  <flow id="JF201830" begin="540" fromJunction="J6" toJunction="J4" end="600" vehsPerHour="15.965776824122514"/>
  <flow id="JF201831" begin="540" fromJunction="J6" toJunction="J7" end="600" vehsPerHour="10.708668300617532"/>
  <flow id="JF201832" begin="540" fromJunction="J6" toJunction="J5" end="600" vehsPerHour="18.176116979267814"/>
  <flow id="JF201833" begin="540" fromJunction="J4" toJunction="J3" end="600" vehsPerHour="43.506946536353716"/>
  <flow id="JF201834" begin="540" fromJunction="J4" toJunction="J0" end="600" vehsPerHour="0.04849487354839194"/>
  <flow id="JF201835" begin="540" fromJunction="J7" toJunction="J3" end="600" vehsPerHour="15.901974988955562"/>
  <flow id="JF201836" begin="540" fromJunction="J7" toJunction="J0" end="600" vehsPerHour="58.51433110922459"/>
  <flow id="JF201837" begin="540" fromJunction="J5" toJunction="J3" end="600" vehsPerHour="49.2148870212251"/>
  <flow id="JF201838" begin="540" fromJunction="J5" toJunction="J0" end="600" vehsPerHour="21.515012566834823"/>
  <flow id="JF201839" begin="540" fromJunction="J6" toJunction="J3" end="600" vehsPerHour="18.799903308869823"/>
  <flow id="JF201840" begin="540" fromJunction="J6" toJunction="J0" end="600" vehsPerHour="3.1930880707730034"/>
  <flow id="JF201841" begin="600" fromJunction="J3" toJunction="J0" end="660" vehsPerHour="543.7624228576581"/>
  <flow id="JF201842" begin="600" fromJunction="J0" toJunction="J3" end="660" vehsPerHour="363.61036441003625"/>
  <flow id="JF201843" begin="600" fromJunction="J3" toJunction="J4" end="660" vehsPerHour="21.49702486969361"/>
  <flow id="JF201844" begin="600" fromJunction="J3" toJunction="J7" end="660" vehsPerHour="40.61605425787627"/>
  <flow id="JF201845" begin="600" fromJunction="J3" toJunction="J5" end="660" vehsPerHour="43.41391583789117"/>
  <flow id="JF201846" begin="600" fromJunction="J3" toJunction="J6" end="660" vehsPerHour="115.01729352370354"/>
  <flow id="JF201847" begin="600" fromJunction="J0" toJunction="J4" end="660" vehsPerHour="104.03733670163972"/>
  <flow id="JF201848" begin="600" fromJunction="J0" toJunction="J7" end="660" vehsPerHour="123.24977729729756"/>
  <flow id="JF201849" begin="600" fromJunction="J0" toJunction="J5" end="660" vehsPerHour="39.48004235982453"/>
  <flow id="JF201850" begin="600" fromJunction="J0" toJunction="J6" end="660" vehsPerHour="37.97586127152905"/>
  <flow id="JF201851" begin="600" fromJunction="J4" toJunction="J7" end="660" vehsPerHour="3.717708219963719"/>
  <flow id="JF201852" begin="600" fromJunction="J4" toJunction="J5" end="660" vehsPerHour="32.06618747858095"/>
  <flow id="JF201853" begin="600" fromJunction="J4" toJunction="J6" end="660" vehsPerHour="7.581278922063175"/>
  <flow id="JF201854" begin="600" fromJunction="J7" toJunction="J4" end="660" vehsPerHour="24.430089727772344"/>
  <flow id="JF201855" begin="600" fromJunction="J7" toJunction="J5" end="660" vehsPerHour="35.31538532500472"/>
  <flow id="JF201856" begin="600" fromJunction="J7" toJunction="J6" end="660" vehsPerHour="24.418208789622277"/>
  <flow id="JF201857" begin="600" fromJunction="J5" toJunction="J4" end="660" vehsPerHour="43.807273116039966"/>
  <flow id="JF201858" begin="600" fromJunction="J5" toJunction="J7" end="660" vehsPerHour="10.625685125211387"/>
  <flow id="JF201859" begin="600" fromJunction="J5" toJunction="J6" end="660" vehsPerHour="39.95497300929805"/>
  <flow id="JF201860" begin="600" fromJunction="J6" toJunction="J4" end="660" vehsPerHour="48.5740253558252"/>
  <flow id="JF201861" begin="600" fromJunction="J6" toJunction="J7" end="660" vehsPerHour="55.55256590678109"/>
  <flow id="JF201862" begin="600" fromJunction="J6" toJunction="J5" end="660" vehsPerHour="20.73134086144011"/>
  <flow id="JF201863" begin="600" fromJunction="J4" toJunction="J3" end="660" vehsPerHour="1.34497435373055"/>
  <flow id="JF201864" begin="600" fromJunction="J4" toJunction="J0" end="660" vehsPerHour="68.6092805780233"/>
  <flow id="JF201865" begin="600" fromJunction="J7" toJunction="J3" end="660" vehsPerHour="11.908329314266323"/>
  <flow id="JF201866" begin="600" fromJunction="J7" toJunction="J0" end="660" vehsPerHour="62.590837653309855"/>