<?xml version="1.0" encoding="UTF-8"?>
<routes xmlns:xsi="http://www.w3.org/2001/XMLSchema-instance" xsi:noNamespaceSchemaLocation="http://sumo.dlr.de/xsd/routes_file.xsd">
  <flow id="JF197843" begin="0" fromJunction="J3" toJunction="J0" end="60" vehsPerHour="134.6831990723111"/>
  <flow id="JF197844" begin="0" fromJunction="J0" toJunction="J3" end="60" vehsPerHour="203.9066644961792"/>
  <flow id="JF197845" begin="0" fromJunction="J3" toJunction="J4" end="60" vehsPerHour="136.88039478202867"/>
  <flow id="JF197846" begin="0" fromJunction="J3" toJunction="J7" end="60" vehsPerHour="101.79484787832524"/>
  <flow id="JF197847" begin="0" fromJunction="J3" toJunction="J5" end="60" vehsPerHour="122.6778964031468"/>
  <flow id="JF197848" begin="0" fromJunction="J3" toJunction="J6" end="60" vehsPerHour="87.44827471583706"/>
  <flow id="JF197849" begin="0" fromJunction="J0" toJunction="J4" end="60" vehsPerHour="27.555814020465867"/>
  <flow id="JF197850" begin="0" fromJunction="J0" toJunction="J7" end="60" vehsPerHour="100.41699424401405"/>
  <flow id="JF197851" begin="0" fromJunction="J0" toJunction="J5" end="60" vehsPerHour="121.78916354143445"/>
  <flow id="JF197852" begin="0" fromJunction="J0" toJunction="J6" end="60" vehsPerHour="136.85209688445656"/>
  <flow id="JF197853" begin="0" fromJunction="J4" toJunction="J7" end="60" vehsPerHour="57.38702440642922"/>
  <flow id="JF197854" begin="0" fromJunction="J4" toJunction="J5" end="60" vehsPerHour="18.589733549652998"/>
  <flow id="JF197855" begin="0" fromJunction="J4" toJunction="J6" end="60" vehsPerHour="67.03221625270419"/>
  <flow id="JF197856" begin="0" fromJunction="J7" toJunction="J4" end="60" vehsPerHour="40.69357646689491"/>
  <flow id="JF197857" begin="0" fromJunction="J7" toJunction="J5" end="60" vehsPerHour="20.672091413541636"/>
  <flow id="JF197858" begin="0" fromJunction="J7" toJunction="J6" end="60" vehsPerHour="7.410036082964737"/>
  <flow id="JF197859" begin="0" fromJunction="J5" toJunction="J4" end="60" vehsPerHour="36.86092614383185"/>
  <flow id="JF197860" begin="0" fromJunction="J5" toJunction="J7" end="60" vehsPerHour="17.01604000699033"/>
  <flow id="JF197861" begin="0" fromJunction="J5" toJunction="J6" end="60" vehsPerHour="39.56718862315655"/>
  <flow id="JF197862" begin="0" fromJunction="J6" toJunction="J4" end="60" vehsPerHour="33.50410584318557"/>
  <flow id="JF197863" begin="0" fromJunction="J6" toJunction="J7" end="60" vehsPerHour="16.78356127076205"/>
  <flow id="JF197864" begin="0" fromJunction="J6" toJunction="J5" end="60" vehsPerHour="26.33543643122382"/>
  <flow id="JF197865" begin="0" fromJunction="J4" toJunction="J3" end="60" vehsPerHour="21.536163291468096"/>
  <flow id="JF197866" begin="0" fromJunction="J4" toJunction="J0" end="60" vehsPerHour="50.00325397027094"/>
  <flow id="JF197867" begin="0" fromJunction="J7" toJunction="J3" end="60" vehsPerHour="35.76313665126333"/>
  <flow id="JF197868" begin="0" fromJunction="J7" toJunction="J0" end="60" vehsPerHour="49.90564450897122"/>
  <flow id="JF197869" begin="0" fromJunction="J5" toJunction="J3" end="60" vehsPerHour="5.147310626659886"/>
  <flow id="JF197870" begin="0" fromJunction="J5" toJunction="J0" end="60" vehsPerHour="15.807946569816094"/>
  <flow id="JF197871" begin="0" fromJunction="J6" toJunction="J3" end="60" vehsPerHour="23.9505098062388"/>
  <flow id="JF197872" begin="0" fromJunction="J6" toJunction="J0" end="60" vehsPerHour="2.1165772457668575"/>
  <flow id="JF197873" begin="60" fromJunction="J3" toJunction="J0" end="120" vehsPerHour="457.76455652892145"/>
  <flow id="JF197874" begin="60" fromJunction="J0" toJunction="J3" end="120" vehsPerHour="326.0449947855252"/>
  <flow id="JF197875" begin="60" fromJunction="J3" toJunction="J4" end="120" vehsPerHour="127.7725921825038"/>
  <flow id="JF197876" begin="60" fromJunction="J3" toJunction="J7" end="120" vehsPerHour="26.1936782815137"/>
  <flow id="JF197877" begin="60" fromJunction="J3" toJunction="J5" end="120" vehsPerHour="105.88154896972013"/>
  <flow id="JF197878" begin="60" fromJunction="J3" toJunction="J6" end="120" vehsPerHour="38.97274454627608"/>
  <flow id="JF197879" begin="60" fromJunction="J0" toJunction="J4" end="120" vehsPerHour="79.50507935173287"/>
  <flow id="JF197880" begin="60" fromJunction="J0" toJunction="J7" end="120" vehsPerHour="59.69256495365736"/>
  <flow id="JF197881" begin="60" fromJunction="J0" toJunction="J5" end="120" vehsPerHour="99.73765863202506"/>
  <flow id="JF197882" begin="60" fromJunction="J0" toJunction="J6" end="120" vehsPerHour="38.013593923665375"/>
  <flow id="JF197883" begin="60" fromJunction="J4" toJunction="J7" end="120" vehsPerHour="8.953633506089744"/>
  <flow id="JF197884" begin="60" fromJunction="J4" toJunction="J5" end="120" vehsPerHour="42.696847521811186"/>
  <flow id="JF197885" begin="60" fromJunction="J4" toJunction="J6" end="120" vehsPerHour="51.83092888375079"/>
  <flow id="JF197886" begin="60" fromJunction="J7" toJunction="J4" end="120" vehsPerHour="65.71016745443093"/>
  <flow id="JF197887" begin="60" fromJunction="J7" toJunction="J5" end="120" vehsPerHour="2.884138123417578"/>
  <flow id="JF197888" begin="60" fromJunction="J7" toJunction="J6" end="120" vehsPerHour="58.96904208544196"/>
  <flow id="JF197889" begin="60" fromJunction="J5" toJunction="J4" end="120" vehsPerHour="55.157880996636095"/>
  <flow id="JF197890" begin="60" fromJunction="J5" toJunction="J7" end="120" vehsPerHour="23.214903774002217"/>
  <flow id="JF197891" begin="60" fromJunction="J5" toJunction="J6" end="120" vehsPerHour="50.60708352619512"/>
  <flow id="JF197892" begin="60" fromJunction="J6" toJunction="J4" end="120" vehsPerHour="63.13877141628191"/>
  <flow id="JF197893" begin="60" fromJunction="J6" toJunction="J7" end="120" vehsPerHour="43.26619348153003"/>
  <flow id="JF197894" begin="60" fromJunction="J6" toJunction="J5" end="120" vehsPerHour="52.893233094093524"/>
  <flow id="JF197895" begin="60" fromJunction="J4" toJunction="J3" end="120" vehsPerHour="58.72155604452719"/>
  <flow id="JF197896" begin="60" fromJunction="J4" toJunction="J0" end="120" vehsPerHour="67.93511082040678"/>
  <flow id="JF197897" begin="60" fromJunction="J7" toJunction="J3" end="120" vehsPerHour="47.528082831687634"/>
  <flow id="JF197898" begin="60" fromJunction="J7" toJunction="J0" end="120" vehsPerHour="3.530889135914213"/>
  <flow id="JF197899" begin="60" fromJunction="J5" toJunction="J3" end="120" vehsPerHour="33.105651674378144"/>
  <flow id="JF197900" begin="60" fromJunction="J5" toJunction="J0" end="120" vehsPerHour="44.89768838827189"/>
  <flow id="JF197901" begin="60" fromJunction="J6" toJunction="J3" end="120" vehsPerHour="40.75851675324314"/>
  <flow id="JF197902" begin="60" fromJunction="J6" toJunction="J0" end="120" vehsPerHour="48.90518460501406"/>
  <flow id="JF197903" begin="120" fromJunction="J3" toJunction="J0" end="180" vehsPerHour="536.970698242049"/>
  <flow id="JF197904" begin="120" fromJunction="J0" toJunction="J3" end="180" vehsPerHour="391.7698380929814"/>
  <flow id="JF197905" begin="120" fromJunction="J3" toJunction="J4" end="180" vehsPerHour="84.72630832415597"/>
  <flow id="JF197906" begin="120" fromJunction="J3" toJunction="J7" end="180" vehsPerHour="5.835748932021678"/>
  <flow id="JF197907" begin="120" fromJunction="J3" toJunction="J5" end="180" vehsPerHour="103.24082968009941"/>
  <flow id="JF197908" begin="120" fromJunction="J3" toJunction="J6" end="180" vehsPerHour="3.397207293207338"/>
  <flow id="JF197909" begin="120" fromJunction="J0" toJunction="J4" end="180" vehsPerHour="20.96900538404858"/>
  <flow id="JF197910" begin="120" fromJunction="J0" toJunction="J7" end="180" vehsPerHour="1.6607535423107975"/>
  <flow id="JF197911" begin="120" fromJunction="J0" toJunction="J5" end="180" vehsPerHour="122.13341438420734"/>
  <flow id="JF197912" begin="120" fromJunction="J0" toJunction="J6" end="180" vehsPerHour="63.455224816690546"/>
  <flow id="JF197913" begin="120" fromJunction="J4" toJunction="J7" end="180" vehsPerHour="56.35275357737936"/>
  <flow id="JF197914" begin="120" fromJunction="J4" toJunction="J5" end="180" vehsPerHour="57.393435957634345"/>
  <flow id="JF197915" begin="120" fromJunction="J4" toJunction="J6" end="180" vehsPerHour="58.98316174413229"/>
  <flow id="JF197916" begin="120" fromJunction="J7" toJunction="J4" end="180" vehsPerHour="31.730892181597362"/>
  <flow id="JF197917" begin="120" fromJunction="J7" toJunction="J5" end="180" vehsPerHour="6.792632513816472"/>
  <flow id="JF197918" begin="120" fromJunction="J7" toJunction="J6" end="180" vehsPerHour="65.36762613434729"/>
  <flow id="JF197919" begin="120" fromJunction="J5" toJunction="J4" end="180" vehsPerHour="38.59172260485514"/>
  <flow id="JF197920" begin="120" fromJunction="J5" toJunction="J7" end="180" vehsPerHour="68.2742227124732"/>
  <flow id="JF197921" begin="120" fromJunction="J5" toJunction="J6" end="180" vehsPerHour="46.67786003867114"/>
  <flow id="JF197922" begin="120" fromJunction="J6" toJunction="J4" end="180" vehsPerHour="64.30651462790979"/>
  <flow id="JF197923" begin="120" fromJunction="J6" toJunction="J7" end="180" vehsPerHour="33.26478685487618"/>
  <flow id="JF197924" begin="120" fromJunction="J6" toJunction="J5" end="180" vehsPerHour="8.728760678318318"/>
  <flow id="JF197925" begin="120" fromJunction="J4" toJunction="J3" end="180" vehsPerHour="40.116987431323686"/>
  <flow id="JF197926" begin="120" fromJunction="J4" toJunction="J0" end="180" vehsPerHour="63.293511282119105"/>
  <flow id="JF197927" begin="120" fromJunction="J7" toJunction="J3" end="180" vehsPerHour="20.570629014837003"/>
  <flow id="JF197928" begin="120" fromJunction="J7" toJunction="J0" end="180" vehsPerHour="34.86335838821611"/>
  <flow id="JF197929" begin="120" fromJunction="J5" toJunction="J3" end="180" vehsPerHour="22.21948593037659"/>
  <flow id="JF197930" begin="120" fromJunction="J5" toJunction="J0" end="180" vehsPerHour="44.64759314380532"/>
  <flow id="JF197931" begin="120" fromJunction="J6" toJunction="J3" end="180" vehsPerHour="13.757809452977279"/>
  <flow id="JF197932" begin="120" fromJunction="J6" toJunction="J0" end="180" vehsPerHour="4.772057660748617"/>
  <flow id="JF197933" begin="180" fromJunction="J3" toJunction="J0" end="240" vehsPerHour="206.75296415139883"/>
  <flow id="JF197934" begin="180" fromJunction="J0" toJunction="J3" end="240" vehsPerHour="57.45247788510754"/>
  <flow id="JF197935" begin="180" fromJunction="J3" toJunction="J4" end="240" vehsPerHour="6.993679595892581"/>
  <flow id="JF197936" begin="180" fromJunction="J3" toJunction="J7" end="240" vehsPerHour="45.070946113428896"/>
  <flow id="JF197937" begin="180" fromJunction="J3" toJunction="J5" end="240" vehsPerHour="24.93168327370016"/>
  <flow id="JF197938" begin="180" fromJunction="J3" toJunction="J6" end="240" vehsPerHour="110.44852871317707"/>
  <flow id="JF197939" begin="180" fromJunction="J0" toJunction="J4" end="240" vehsPerHour="130.90113157862848"/>
  <flow id="JF197940" begin="180" fromJunction="J0" toJunction="J7" end="240" vehsPerHour="2.2582665138173907"/>
  <flow id="JF197941" begin="180" fromJunction="J0" toJunction="J5" end="240" vehsPerHour="61.89842046779443"/>
  <flow id="JF197942" begin="180" fromJunction="J0" toJunction="J6" end="240" vehsPerHour="99.0775902122619"/>
  <flow id="JF197943" begin="240" fromJunction="J3" toJunction="J0" end="300" vehsPerHour="116.42596384507304"/>
  <flow id="JF197944" begin="240" fromJunction="J0" toJunction="J3" end="300" vehsPerHour="98.99539917549734"/>
  <flow id="JF197945" begin="240" fromJunction="J3" toJunction="J4" end="300" vehsPerHour="70.71720351204205"/>
  <flow id="JF197946" begin="240" fromJunction="J3" toJunction="J7" end="300" vehsPerHour="17.317585584342332"/>
  <flow id="JF197947" begin="240" fromJunction="J3" toJunction="J5" end="300" vehsPerHour="64.11119067918199"/>
  <flow id="JF197948" begin="240" fromJunction="J3" toJunction="J6" end="300" vehsPerHour="107.69968394586611"/>
  <flow id="JF197949" begin="240" fromJunction="J0" toJunction="J4" end="300" vehsPerHour="19.980205532622445"/>
  <flow id="JF197950" begin="240" fromJunction="J0" toJunction="J7" end="300" vehsPerHour="90.97531584234576"/>
  <flow id="JF197951" begin="240" fromJunction="J0" toJunction="J5" end="300" vehsPerHour="14.21529228514976"/>
  <flow id="JF197952" begin="240" fromJunction="J0" toJunction="J6" end="300" vehsPerHour="31.846667942176655"/>
  <flow id="JF197953" begin="240" fromJunction="J4" toJunction="J7" end="300" vehsPerHour="38.7044048521895"/>
  <flow id="JF197954" begin="240" fromJunction="J4" toJunction="J5" end="300" vehsPerHour="32.29664234541127"/>
  <flow id="JF197955" begin="240" fromJunction="J4" toJunction="J6" end="300" vehsPerHour="61.58360331813633"/>
  <flow id="JF197956" begin="240" fromJunction="J7" toJunction="J4" end="300" vehsPerHour="1.1609485248608569"/>
  <flow id="JF197957" begin="240" fromJunction="J7" toJunction="J5" end="300" vehsPerHour="14.39106517141532"/>
  <flow id="JF197958" begin="240" fromJunction="J7" toJunction="J6" end="300" vehsPerHour="23.72428538844791"/>
  <flow id="JF197959" begin="240" fromJunction="J5" toJunction="J4" end="300" vehsPerHour="46.524752664349876"/>
  <flow id="JF197960" begin="240" fromJunction="J5" toJunction="J7" end="300" vehsPerHour="60.93835961284038"/>
  <flow id="JF197961" begin="240" fromJunction="J5" toJunction="J6" end="300" vehsPerHour="21.073034205853794"/>
  <flow id="JF197962" begin="240" fromJunction="J6" toJunction="J4" end="300" vehsPerHour="3.4948355962360136"/>
  <flow id="JF197963" begin="240" fromJunction="J6" toJunction="J7" end="300" vehsPerHour="11.546583737104145"/>
  <flow id="JF197964" begin="240" fromJunction="J6" toJunction="J5" end="300" vehsPerHour="35.60633092399335"/>
  <flow id="JF197965" begin="240" fromJunction="J4" toJunction="J3" end="300" vehsPerHour="66.57998554990728"/>
  <flow id="JF197966" begin="240" fromJunction="J4" toJunction="J0" end="300" vehsPerHour="33.844012810746634"/>
  <flow id="JF197967" begin="240" fromJunction="J7" toJunction="J3" end="300" vehsPerHour="59.70858696284879"/>
  <flow id="JF197968" begin="240" fromJunction="J7" toJunction="J0" end="300" vehsPerHour="8.848565831531621"/>
  <flow id="JF197969" begin="240" fromJunction="J5" toJunction="J3" end="300" vehsPerHour="22.53257070523922"/>
  <flow id="JF197970" begin="240" fromJunction="J5" toJunction="J0" end="300" vehsPerHour="67.4617856670541"/>
  <flow id="JF197971" begin="240" fromJunction="J6" toJunction="J3" end="300" vehsPerHour="51.54586129346769"/>
  <flow id="JF197972" begin="240" fromJunction="J6" toJunction="J0" end="300" vehsPerHour="27.49682581598117"/>
  <flow id="JF197973" begin="300" fromJunction="J3" toJunction="J0" end="360" vehsPerHour="341.0249806006278"/>
  <flow id="JF197974" begin="300" fromJunction="J0" toJunction="J3" end="360" vehsPerHour="212.73105092765587"/>
  <flow id="JF197975" begin="300" fromJunction="J3" toJunction="J4" end="360" vehsPerHour="103.12824724730261"/>
  <flow id="JF197976" begin="300" fromJunction="J3" toJunction="J7" end="360" vehsPerHour="56.677027967090204"/>
  <flow id="JF197977" begin="300" fromJunction="J3" toJunction="J5" end="360" vehsPerHour="16.15671966188207"/>
  <flow id="JF197978" begin="300" fromJunction="J3" toJunction="J6" end="360" vehsPerHour="131.11753333560807"/>
  <flow id="JF197979" begin="300" fromJunction="J0" toJunction="J4" end="360" vehsPerHour="24.81674326861413"/>
  <flow id="JF197980" begin="300" fromJunction="J0" toJunction="J7" end="360" vehsPerHour="67.58807268124798"/>
  <flow id="JF197981" begin="300" fromJunction="J0" toJunction="J5" end="360" vehsPerHour="34.51654733866845"/>
  <flow id="JF197982" begin="300" fromJunction="J0" toJunction="J6" end="360" vehsPerHour="132.5995570587641"/>
  <flow id="JF197983" begin="300" fromJunction="J4" toJunction="J7" end="360" vehsPerHour="24.87362179179331"/>
  <flow id="JF197984" begin="300" fromJunction="J4" toJunction="J5" end="360" vehsPerHour="39.37442069367584"/>
  <flow id="JF197985" begin="300" fromJunction="J4" toJunction="J6" end="360" vehsPerHour="59.17732262703635"/>
  <flow id="JF197986" begin="300" fromJunction="J7" toJunction="J4" end="360" vehsPerHour="36.9436005194015"/>
  <flow id="JF197987" begin="300" fromJunction="J7" toJunction="J5" end="360" vehsPerHour="52.52953589108777"/>
  <flow id="JF197988" begin="300" fromJunction="J7" toJunction="J6" end="360" vehsPerHour="68.2517583752731"/>
  <flow id="JF197989" begin="300" fromJunction="J5" toJunction="J4" end="360" vehsPerHour="28.589233822141185"/>
  <flow id="JF197990" begin="300" fromJunction="J5" toJunction="J7" end="360" vehsPerHour="20.994636393797844"/>
  <flow id="JF197991" begin="300" fromJunction="J5" toJunction="J6" end="360" vehsPerHour="3.2217680447127295"/>
  <flow id="JF197992" begin="300" fromJunction="J6" toJunction="J4" end="360" vehsPerHour="28.09434944567991"/>
  <flow id="JF197993" begin="300" fromJunction="J6" toJunction="J7" end="360" vehsPerHour="8.583623087195047"/>
  <flow id="JF197994" begin="300" fromJunction="J6" toJunction="J5" end="360" vehsPerHour="1.3280109983611925"/>
  <flow id="JF197995" begin="300" fromJunction="J4" toJunction="J3" end="360" vehsPerHour="66.09830484848749"/>
  <flow id="JF197996" begin="300" fromJunction="J4" toJunction="J0" end="360" vehsPerHour="1.5276666934177698"/>
  <flow id="JF197997" begin="300" fromJunction="J7" toJunction="J3" end="360" vehsPerHour="32.215042934320856"/>
  <flow id="JF197998" begin="300" fromJunction="J7" toJunction="J0" end="360" vehsPerHour="42.22005527834921"/>
  <flow id="JF197999" begin="300" fromJunction="J5" toJunction="J3" end="360" vehsPerHour="5.586446769107627"/>
  <flow id="JF198000" begin="300" fromJunction="J5" toJunction="J0" end="360" vehsPerHour="47.65736366267555"/>
  <flow id="JF198001" begin="300" fromJunction="J6" toJunction="J3" end="360" vehsPerHour="55.44198974063282"/>
  <flow id="JF198002" begin="300" fromJunction="J6" toJunction="J0" end="360" vehsPerHour="59.75071205456414"/>
  <flow id="JF198003" begin="360" fromJunction="J3" toJunction="J0" end="420" vehsPerHour="298.35740752398965"/>
  <flow id="JF198004" begin="360" fromJunction="J0" toJunction="J3" end="420" vehsPerHour="530.6395269909439"/>
  <flow id="JF198005" begin="360" fromJunction="J3" toJunction="J4" end="420" vehsPerHour="89.8652681203252"/>
  <flow id="JF198006" begin="360" fromJunction="J3" toJunction="J7" end="420" vehsPerHour="43.628630482556154"/>
  <flow id="JF198007" begin="360" fromJunction="J3" toJunction="J5" end="420" vehsPerHour="91.66074646834589"/>
  <flow id="JF198008" begin="360" fromJunction="J3" toJunction="J6" end="420" vehsPerHour="126.89076529082064"/>
  <flow id="JF198009" begin="360" fromJunction="J0" toJunction="J4" end="420" vehsPerHour="94.26036105575307"/>
  <flow id="JF198010" begin="360" fromJunction="J0" toJunction="J7" end="420" vehsPerHour="17.229040572177556"/>
  <flow id="JF198011" begin="360" fromJunction="J0" toJunction="J5" end="420" vehsPerHour="48.050690351846896"/>
  <flow id="JF198012" begin="360" fromJunction="J0" toJunction="J6" end="420" vehsPerHour="24.655614142646645"/>
  <flow id="JF198013" begin="360" fromJunction="J4" toJunction="J7" end="420" vehsPerHour="3.6363065781682895"/>
  <flow id="JF198014" begin="360" fromJunction="J4" toJunction="J5" end="420" vehsPerHour="6.408279301280983"/>
  <flow id="JF198015" begin="360" fromJunction="J4" toJunction="J6" end="420" vehsPerHour="31.59492005809006"/>
  <flow id="JF198016" begin="360" fromJunction="J7" toJunction="J4" end="420" vehsPerHour="42.786069506391975"/>
  <flow id="JF198017" begin="360" fromJunction="J7" toJunction="J5" end="420" vehsPerHour="16.55453543446468"/>
  <flow id="JF198018" begin="360" fromJunction="J7" toJunction="J6" end="420" vehsPerHour="67.26363554598994"/>
  <flow id="JF198019" begin="360" fromJunction="J5" toJunction="J4" end="420" vehsPerHour="54.254298423137556"/>
  <flow id="JF198020" begin="360" fromJunction="J5" toJunction="J7" end="420" vehsPerHour="42.83058459414171"/>
  <flow id="JF198021" begin="360" fromJunction="J5" toJunction="J6" end="420" vehsPerHour="11.545999810815374"/>
  <flow id="JF198022" begin="360" fromJunction="J6" toJunction="J4" end="420" vehsPerHour="43.73324768647391"/>
  <flow id="JF198023" begin="360" fromJunction="J6" toJunction="J7" end="420" vehsPerHour="9.065241225161316"/>
  <flow id="JF198024" begin="360" fromJunction="J6" toJunction="J5" end="420" vehsPerHour="19.643850327097315"/>
  <flow id="JF198025" begin="360" fromJunction="J4" toJunction="J3" end="420" vehsPerHour="60.21671022521279"/>
  <flow id="JF198026" begin="360" fromJunction="J4" toJunction="J0" end="420" vehsPerHour="7.426674883267888"/>
  <flow id="JF198027" begin="360" fromJunction="J7" toJunction="J3" end="420" vehsPerHour="67.86860576538996"/>
  <flow id="JF198028" begin="360" fromJunction="J7" toJunction="J0" end="420" vehsPerHour="23.564552851430317"/>
  <flow id="JF198029" begin="360" fromJunction="J5" toJunction="J3" end="420" vehsPerHour="16.044506208750615"/>
  <flow id="JF198030" begin="360" fromJunction="J5" toJunction="J0" end="420" vehsPerHour="47.01956421264083"/>
  <flow id="JF198031" begin="360" fromJunction="J6" toJunction="J3" end="420" vehsPerHour="41.502741853153516"/>
  <flow id="JF198032" begin="360" fromJunction="J6" toJunction="J0" end="420" vehsPerHour="47.42130214984446"/>
  <flow id="JF198033" begin="420" fromJunction="J3" toJunction="J0" end="480" vehsPerHour="54.23095642657253"/>
  <flow id="JF198034" begin="420" fromJunction="J0" toJunction="J3" end="480" vehsPerHour="171.1774567795257"/>
  <flow id="JF198035" begin="420" fromJunction="J3" toJunction="J4" end="480" vehsPerHour="116.51735720831546"/>
  <flow id="JF198036" begin="420" fromJunction="J3" toJunction="J7" end="480" vehsPerHour="73.69938063159648"/>
  <flow id="JF198037" begin="420" fromJunction="J3" toJunction="J5" end="480" vehsPerHour="52.15857914337444"/>
  <flow id="JF198038" begin="420" fromJunction="J3" toJunction="J6" end="480" vehsPerHour="64.22045123331488"/>
  <flow id="JF198039" begin="420" fromJunction="J0" toJunction="J4" end="480" vehsPerHour="56.85219143550247"/>
  <flow id="JF198040" begin="420" fromJunction="J0" toJunction="J7" end="480" vehsPerHour="39.86198083129099"/>
  <flow id="JF198041" begin="420" fromJunction="J0" toJunction="J5" end="480" vehsPerHour="0.4553124479104878"/>
  <flow id="JF198042" begin="420" fromJunction="J0" toJunction="J6" end="480" vehsPerHour="52.99427601362012"/>
  <flow id="JF198043" begin="420" fromJunction="J4" toJunction="J7" end="480" vehsPerHour="38.122358083545166"/>
  <flow id="JF198044" begin="420" fromJunction="J4" toJunction="J5" end="480" vehsPerHour="9.608955983236855"/>
  <flow id="JF198045" begin="420" fromJunction="J4" toJunction="J6" end="480" vehsPerHour="27.420746551996615"/>
  <flow id="JF198046" begin="420" fromJunction="J7" toJunction="J4" end="480" vehsPerHour="26.759673331217396"/>
  <flow id="JF198047" begin="420" fromJunction="J7" toJunction="J5" end="480" vehsPerHour="13.978605827065454"/>
  <flow id="JF198048" begin="420" fromJunction="J7" toJunction="J6" end="480" vehsPerHour="2.8830055807489634"/>
  <flow id="JF198049" begin="420" fromJunction="J5" toJunction="J4" end="480" vehsPerHour="19.039774511819896"/>
  <flow id="JF198050" begin="420" fromJunction="J5" toJunction="J7" end="480" vehsPerHour="52.050925129438276"/>
  <flow id="JF198051" begin="420" fromJunction="J5" toJunction="J6" end="480" vehsPerHour="62.47657355886617"/>
  <flow id="JF198052" begin="420" fromJunction="J6" toJunction="J4" end="480" vehsPerHour="45.47905392419707"/>
  <flow id="JF198053" begin="420" fromJunction="J6" toJunction="J7" end="480" vehsPerHour="13.019944580219889"/>
  <flow id="JF198054" begin="420" fromJunction="J6" toJunction="J5" end="480" vehsPerHour="60.707563873333406"/>
  <flow id="JF198055" begin="420" fromJunction="J4" toJunction="J3" end="480" vehsPerHour="51.81872370530637"/>
  <flow id="JF198056" begin="420" fromJunction="J4" toJunction="J0" end="480" vehsPerHour="58.54670438885314"/>
  <flow id="JF198057" begin="420" fromJunction="J7" toJunction="J3" end="480" vehsPerHour="7.204684682855667"/>
  <flow id="JF198058" begin="420" fromJunction="J7" toJunction="J0" end="480" vehsPerHour="58.61921435805099"/>
  <flow id="JF198059" begin="420" fromJunction="J5" toJunction="J3" end="480" vehsPerHour="0.37370019844453983"/>
  <flow id="JF198060" begin="420" fromJunction="J5" toJunction="J0" end="480" vehsPerHour="38.24687275515859"/>
  <flow id="JF198061" begin="420" fromJunction="J6" toJunction="J3" end="480" vehsPerHour="56.82767506121111"/>
  <flow id="JF198062" begin="420" fromJunction="J6" toJunction="J0" end="480" vehsPerHour="42.60482080748998"/>
  <flow id="JF198063" begin="480" fromJunction="J3" toJunction="J0" end="540" vehsPerHour="376.0371618360714"/>
  <flow id="JF198064" begin="480" fromJunction="J0" toJunction="J3" end="540" vehsPerHour="505.5434695774083"/>
  <flow id="JF198065" begin="480" fromJunction="J3" toJunction="J4" end="540" vehsPerHour="126.38601841841984"/>
  <flow id="JF198066" begin="480" fromJunction="J3" toJunction="J7" end="540" vehsPerHour="116.48806522768896"/>
  <flow id="JF198067" begin="480" fromJunction="J3" toJunction="J5" end="540" vehsPerHour="121.53578647015121"/>
  <flow id="JF198068" begin="480" fromJunction="J3" toJunction="J6" end="540" vehsPerHour="44.670194299857826"/>
  <flow id="JF198069" begin="480" fromJunction="J0" toJunction="J4" end="540" vehsPerHour="28.39279914685482"/>
  <flow id="JF198070" begin="480" fromJunction="J0" toJunction="J7" end="540" vehsPerHour="123.82360949901685"/>
  <flow id="JF198071" begin="480" fromJunction="J0" toJunction="J5" end="540" vehsPerHour="7.490118587089675"/>
  <flow id="JF198072" begin="480" fromJunction="J0" toJunction="J6" end="540" vehsPerHour="76.60942794261717"/>
  <flow id="JF198073" begin="480" fromJunction="J4" toJunction="J7" end="540" vehsPerHour="39.20453494627967"/>
  <flow id="JF198074" begin="480" fromJunction="J4" toJunction="J5" end="540" vehsPerHour="56.833925903941406"/>
  <flow id="JF198075" begin="480" fromJunction="J4" toJunction="J6" end="540" vehsPerHour="65.83522153753944"/>
  <flow id="JF198076" begin="480" fromJunction="J7" toJunction="J4" end="540" vehsPerHour="36.532620264338725"/>
  <flow id="JF198077" begin="480" fromJunction="J7" toJunction="J5" end="540" vehsPerHour="5.876864646671439"/>
  <flow id="JF198078" begin="480" fromJunction="J7" toJunction="J6" end="540" vehsPerHour="23.383810931285154"/>
  <flow id="JF198079" begin="480" fromJunction="J5" toJunction="J4" end="540" vehsPerHour="0.07309469306659765"/>
  <flow id="JF198080" begin="480" fromJunction="J5" toJunction="J7" end="540" vehsPerHour="50.5696489330921"/>
  <flow id="JF198081" begin="480" fromJunction="J5" toJunction="J6" end="540" vehsPerHour="41.39298633330716"/>
  <flow id="JF198082" begin="480" fromJunction="J6" toJunction="J4" end="540" vehsPerHour="44.973662353086276"/>
  <flow id="JF198083" begin="480" fromJunction="J6" toJunction="J7" end="540" vehsPerHour="10.053904331073772"/>
  <flow id="JF198084" begin="480" fromJunction="J6" toJunction="J5" end="540" vehsPerHour="28.92757803543044"/>
  <flow id="JF198085" begin="480" fromJunction="J4" toJunction="J3" end="540" vehsPerHour="26.160969769871148"/>
  <flow id="JF198086" begin="480" fromJunction="J4" toJunction="J0" end="540" vehsPerHour="17.67572156736065"/>
  <flow id="JF198087" begin="480" fromJunction="J7" toJunction="J3" end="540" vehsPerHour="0.7416344587780955"/>
  <flow id="JF198088" begin="480" fromJunction="J7" toJunction="J0" end="540" vehsPerHour="57.8502936939741"/>
  <flow id="JF198089" begin="480" fromJunction="J5" toJunction="J3" end="540" vehsPerHour="2.4370076501522213"/>
  <flow id="JF198090" begin="480" fromJunction="J5" toJunction="J0" end="540" vehsPerHour="5.345618962498871"/>
  <flow id="JF198091" begin="480" fromJunction="J6" toJunction="J3" end="540" vehsPerHour="48.488109004577275"/>
  <flow id="JF198092" begin="480" fromJunction="J6" toJunction="J0" end="540" vehsPerHour="32.34922699655882"/>
  <flow id="JF198093" begin="540" fromJunction="J3" toJunction="J0" end="600" vehsPerHour="360.6899146217132"/>
  <flow id="JF198094" begin="540" fromJunction="J0" toJunction="J3" end="600" vehsPerHour="324.143989444498"/>
  <flow id="JF198095" begin="540" fromJunction="J3" toJunction="J4" end="600" vehsPerHour="101.59478312749454"/>
  <flow id="JF198096" begin="540" fromJunction="J3" toJunction="J7" end="600" vehsPerHour="12.254515513417191"/>
  <flow id="JF198097" begin="540" fromJunction="J3" toJunction="J5" end="600" vehsPerHour="63.422215708329226"/>
  <flow id="JF198098" begin="540" fromJunction="J3" toJunction="J6" end="600" vehsPerHour="114.11965350809184"/>
  <flow id="JF198099" begin="540" fromJunction="J0" toJunction="J4" end="600" vehsPerHour="102.09583463126188"/>
  <flow id="JF198100" begin="540" fromJunction="J0" toJunction="J7" end="600" vehsPerHour="57.32686636109167"/>
  <flow id="JF198101" begin="540" fromJunction="J0" toJunction="J5" end="600" vehsPerHour="10.887871783925243"/>
  <flow id="JF198102" begin="540" fromJunction="J0" toJunction="J6" end="600" vehsPerHour="37.07452672100126"/>
  <flow id="JF198103" begin="540" fromJunction="J4" toJunction="J7" end="600" vehsPerHour="38.905522258302376"/>
  <flow id="JF198104" begin="540" fromJunction="J4" toJunction="J5" end="600" vehsPerHour="35.18774294896636"/>
  <flow id="JF198105" begin="540" fromJunction="J4" toJunction="J6" end="600" vehsPerHour="3.2129375756614587"/>
  <flow id="JF198106" begin="540" fromJunction="J7" toJunction="J4" end="600" vehsPerHour="41.32444758791476"/>
  <flow id="JF198107" begin="540" fromJunction="J7" toJunction="J5" end="600" vehsPerHour="67.57827617634135"/>
  <flow id="JF198108" begin="540" fromJunction="J7" toJunction="J6" end="600" vehsPerHour="50.306040116454625"/>