<?xml version="1.0" encoding="UTF-8"?>
<routes xmlns:xsi="http://www.w3.org/2001/XMLSchema-instance" xsi:noNamespaceSchemaLocation="http://sumo.dlr.de/xsd/routes_file.xsd">
  <flow id="JF194014" begin="0" fromJunction="J3" toJunction="J0" end="60" vehsPerHour="309.1025461960229"/>
  <flow id="JF194015" begin="0" fromJunction="J0" toJunction="J3" end="60" vehsPerHour="528.4475306344634"/>
  <flow id="JF194016" begin="0" fromJunction="J3" toJunction="J4" end="60" vehsPerHour="36.578819337173165"/>
  <flow id="JF194017" begin="0" fromJunction="J3" toJunction="J7" end="60" vehsPerHour="121.93172885588547"/>
  <flow id="JF194018" begin="0" fromJunction="J3" toJunction="J5" end="60" vehsPerHour="64.19549912634427"/>
  <flow id="JF194019" begin="0" fromJunction="J3" toJunction="J6" end="60" vehsPerHour="92.56469769216392"/>
  <flow id="JF194020" begin="0" fromJunction="J0" toJunction="J4" end="60" vehsPerHour="21.166408818088495"/>
  <flow id="JF194021" begin="0" fromJunction="J0" toJunction="J7" end="60" vehsPerHour="90.03387504309073"/>
  <flow id="JF194022" begin="0" fromJunction="J0" toJunction="J5" end="60" vehsPerHour="54.17620509908254"/>
  <flow id="JF194023" begin="0" fromJunction="J0" toJunction="J6" end="60" vehsPerHour="96.59521594285144"/>
  <flow id="JF194024" begin="0" fromJunction="J4" toJunction="J7" end="60" vehsPerHour="63.25500511019403"/>
  <flow id="JF194025" begin="0" fromJunction="J4" toJunction="J5" end="60" vehsPerHour="67.93271337285883"/>
  <flow id="JF194026" begin="0" fromJunction="J4" toJunction="J6" end="60" vehsPerHour="56.17797062456709"/>
  <flow id="JF194027" begin="0" fromJunction="J7" toJunction="J4" end="60" vehsPerHour="34.62768446498114"/>
  <flow id="JF194028" begin="0" fromJunction="J7" toJunction="J5" end="60" vehsPerHour="55.64302875273433"/>
  <flow id="JF194029" begin="0" fromJunction="J7" toJunction="J6" end="60" vehsPerHour="24.69295183978874"/>
  <flow id="JF194030" begin="0" fromJunction="J5" toJunction="J4" end="60" vehsPerHour="52.111425132579186"/>
  <flow id="JF194031" begin="0" fromJunction="J5" toJunction="J7" end="60" vehsPerHour="30.841454809695332"/>
  <flow id="JF194032" begin="0" fromJunction="J5" toJunction="J6" end="60" vehsPerHour="6.806284626664797"/>
  <flow id="JF194033" begin="0" fromJunction="J6" toJunction="J4" end="60" vehsPerHour="32.16563836221732"/>
  <flow id="JF194034" begin="0" fromJunction="J6" toJunction="J7" end="60" vehsPerHour="8.252384255646563"/>
  <flow id="JF194035" begin="0" fromJunction="J6" toJunction="J5" end="60" vehsPerHour="45.01543948132436"/>
  <flow id="JF194036" begin="0" fromJunction="J4" toJunction="J3" end="60" vehsPerHour="51.99859586198182"/>
  <flow id="JF194037" begin="0" fromJunction="J4" toJunction="J0" end="60" vehsPerHour="20.52847504941676"/>
  <flow id="JF194038" begin="0" fromJunction="J7" toJunction="J3" end="60" vehsPerHour="18.66906110149566"/>
  <flow id="JF194039" begin="0" fromJunction="J7" toJunction="J0" end="60" vehsPerHour="10.43448125877904"/>
  <flow id="JF194040" begin="0" fromJunction="J5" toJunction="J3" end="60" vehsPerHour="17.594106523786316"/>
  <flow id="JF194041" begin="0" fromJunction="J5" toJunction="J0" end="60" vehsPerHour="25.544600357856595"/>
  <flow id="JF194042" begin="0" fromJunction="J6" toJunction="J3" end="60" vehsPerHour="4.7676735788203395"/>
  <flow id="JF194043" begin="0" fromJunction="J6" toJunction="J0" end="60" vehsPerHour="13.48097815929819"/>
  <flow id="JF194044" begin="60" fromJunction="J3" toJunction="J0" end="120" vehsPerHour="391.6100780892363"/>
  <flow id="JF194045" begin="60" fromJunction="J0" toJunction="J3" end="120" vehsPerHour="10.960364872031613"/>
  <flow id="JF194046" begin="60" fromJunction="J3" toJunction="J4" end="120" vehsPerHour="130.38112779935713"/>
  <flow id="JF194047" begin="60" fromJunction="J3" toJunction="J7" end="120" vehsPerHour="29.479319006608822"/>
  <flow id="JF194048" begin="60" fromJunction="J3" toJunction="J5" end="120" vehsPerHour="80.68472676934176"/>
  <flow id="JF194049" begin="60" fromJunction="J3" toJunction="J6" end="120" vehsPerHour="105.17321135528833"/>
  <flow id="JF194050" begin="60" fromJunction="J0" toJunction="J4" end="120" vehsPerHour="127.70424656093319"/>
  <flow id="JF194051" begin="60" fromJunction="J0" toJunction="J7" end="120" vehsPerHour="95.68803560978542"/>
  <flow id="JF194052" begin="60" fromJunction="J0" toJunction="J5" end="120" vehsPerHour="0.8508134833537587"/>
  <flow id="JF194053" begin="60" fromJunction="J0" toJunction="J6" end="120" vehsPerHour="83.96981329338958"/>
  <flow id="JF194054" begin="120" fromJunction="J3" toJunction="J0" end="180" vehsPerHour="122.52400216809762"/>
  <flow id="JF194055" begin="120" fromJunction="J0" toJunction="J3" end="180" vehsPerHour="224.0871651251397"/>
  <flow id="JF194056" begin="120" fromJunction="J3" toJunction="J4" end="180" vehsPerHour="110.87928137602202"/>
  <flow id="JF194057" begin="120" fromJunction="J3" toJunction="J7" end="180" vehsPerHour="126.76709307401497"/>
  <flow id="JF194058" begin="120" fromJunction="J3" toJunction="J5" end="180" vehsPerHour="122.57379594552587"/>
  <flow id="JF194059" begin="120" fromJunction="J3" toJunction="J6" end="180" vehsPerHour="135.36132504850158"/>
  <flow id="JF194060" begin="120" fromJunction="J0" toJunction="J4" end="180" vehsPerHour="103.19302252922918"/>
  <flow id="JF194061" begin="120" fromJunction="J0" toJunction="J7" end="180" vehsPerHour="136.1468171016082"/>
  <flow id="JF194062" begin="120" fromJunction="J0" toJunction="J5" end="180" vehsPerHour="22.5744952657499"/>
  <flow id="JF194063" begin="120" fromJunction="J0" toJunction="J6" end="180" vehsPerHour="133.24407193673548"/>
  <flow id="JF194064" begin="180" fromJunction="J3" toJunction="J0" end="240" vehsPerHour="412.790458891709"/>
  <flow id="JF194065" begin="180" fromJunction="J0" toJunction="J3" end="240" vehsPerHour="351.02683681110676"/>
  <flow id="JF194066" begin="180" fromJunction="J3" toJunction="J4" end="240" vehsPerHour="98.75457980763692"/>
  <flow id="JF194067" begin="180" fromJunction="J3" toJunction="J7" end="240" vehsPerHour="15.691816264722258"/>
  <flow id="JF194068" begin="180" fromJunction="J3" toJunction="J5" end="240" vehsPerHour="25.292239847796704"/>
  <flow id="JF194069" begin="180" fromJunction="J3" toJunction="J6" end="240" vehsPerHour="111.14871187264114"/>
  <flow id="JF194070" begin="180" fromJunction="J0" toJunction="J4" end="240" vehsPerHour="79.68658214982506"/>
  <flow id="JF194071" begin="180" fromJunction="J0" toJunction="J7" end="240" vehsPerHour="121.76062718142255"/>
  <flow id="JF194072" begin="180" fromJunction="J0" toJunction="J5" end="240" vehsPerHour="120.07014328369131"/>
  <flow id="JF194073" begin="180" fromJunction="J0" toJunction="J6" end="240" vehsPerHour="83.12006890811999"/>
  <flow id="JF194074" begin="180" fromJunction="J4" toJunction="J7" end="240" vehsPerHour="57.66318616969267"/>
  <flow id="JF194075" begin="180" fromJunction="J4" toJunction="J5" end="240" vehsPerHour="36.921282542197844"/>
  <flow id="JF194076" begin="180" fromJunction="J4" toJunction="J6" end="240" vehsPerHour="2.7995046978636853"/>
  <flow id="JF194077" begin="180" fromJunction="J7" toJunction="J4" end="240" vehsPerHour="44.48571485174454"/>
  <flow id="JF194078" begin="180" fromJunction="J7" toJunction="J5" end="240" vehsPerHour="48.04855141249467"/>
  <flow id="JF194079" begin="180" fromJunction="J7" toJunction="J6" end="240" vehsPerHour="29.89622466273144"/>
  <flow id="JF194080" begin="180" fromJunction="J5" toJunction="J4" end="240" vehsPerHour="63.4650819130999"/>
  <flow id="JF194081" begin="180" fromJunction="J5" toJunction="J7" end="240" vehsPerHour="41.882170027210584"/>
  <flow id="JF194082" begin="180" fromJunction="J5" toJunction="J6" end="240" vehsPerHour="0.801629663555588"/>
  <flow id="JF194083" begin="180" fromJunction="J6" toJunction="J4" end="240" vehsPerHour="21.55533880725044"/>
  <flow id="JF194084" begin="180" fromJunction="J6" toJunction="J7" end="240" vehsPerHour="16.065793821095124"/>
  <flow id="JF194085" begin="180" fromJunction="J6" toJunction="J5" end="240" vehsPerHour="49.3399386915992"/>
  <flow id="JF194086" begin="180" fromJunction="J4" toJunction="J3" end="240" vehsPerHour="19.043178572674716"/>
  <flow id="JF194087" begin="180" fromJunction="J4" toJunction="J0" end="240" vehsPerHour="50.816640724386936"/>
  <flow id="JF194088" begin="180" fromJunction="J7" toJunction="J3" end="240" vehsPerHour="46.46251572605626"/>
  <flow id="JF194089" begin="180" fromJunction="J7" toJunction="J0" end="240" vehsPerHour="0.45789985904923863"/>
  <flow id="JF194090" begin="180" fromJunction="J5" toJunction="J3" end="240" vehsPerHour="42.13660270988532"/>
  <flow id="JF194091" begin="180" fromJunction="J5" toJunction="J0" end="240" vehsPerHour="54.698721226985235"/>
  <flow id="JF194092" begin="180" fromJunction="J6" toJunction="J3" end="240" vehsPerHour="13.638720991440634"/>
  <flow id="JF194093" begin="180" fromJunction="J6" toJunction="J0" end="240" vehsPerHour="14.081772683992842"/>
  <flow id="JF194094" begin="240" fromJunction="J3" toJunction="J0" end="300" vehsPerHour="341.4494751487261"/>
  <flow id="JF194095" begin="240" fromJunction="J0" toJunction="J3" end="300" vehsPerHour="504.5158775368987"/>
  <flow id="JF194096" begin="240" fromJunction="J3" toJunction="J4" end="300" vehsPerHour="54.43396804861051"/>
  <flow id="JF194097" begin="240" fromJunction="J3" toJunction="J7" end="300" vehsPerHour="45.0870748919191"/>
  <flow id="JF194098" begin="240" fromJunction="J3" toJunction="J5" end="300" vehsPerHour="65.32386000192001"/>
  <flow id="JF194099" begin="240" fromJunction="J3" toJunction="J6" end="300" vehsPerHour="47.37271906046567"/>
  <flow id="JF194100" begin="240" fromJunction="J0" toJunction="J4" end="300" vehsPerHour="66.85885674947826"/>
  <flow id="JF194101" begin="240" fromJunction="J0" toJunction="J7" end="300" vehsPerHour="54.11225035786019"/>
  <flow id="JF194102" begin="240" fromJunction="J0" toJunction="J5" end="300" vehsPerHour="121.6071203443296"/>
  <flow id="JF194103" begin="240" fromJunction="J0" toJunction="J6" end="300" vehsPerHour="36.216020866351435"/>
  <flow id="JF194104" begin="240" fromJunction="J4" toJunction="J7" end="300" vehsPerHour="53.711171467963396"/>
  <flow id="JF194105" begin="240" fromJunction="J4" toJunction="J5" end="300" vehsPerHour="47.21637789360547"/>
  <flow id="JF194106" begin="240" fromJunction="J4" toJunction="J6" end="300" vehsPerHour="11.800871673737799"/>
  <flow id="JF194107" begin="240" fromJunction="J7" toJunction="J4" end="300" vehsPerHour="36.97966968860358"/>
  <flow id="JF194108" begin="240" fromJunction="J7" toJunction="J5" end="300" vehsPerHour="50.02805289566311"/>
  <flow id="JF194109" begin="240" fromJunction="J7" toJunction="J6" end="300" vehsPerHour="64.76917851800685"/>
  <flow id="JF194110" begin="240" fromJunction="J5" toJunction="J4" end="300" vehsPerHour="49.680484580992896"/>
  <flow id="JF194111" begin="240" fromJunction="J5" toJunction="J7" end="300" vehsPerHour="31.99762343617634"/>
  <flow id="JF194112" begin="240" fromJunction="J5" toJunction="J6" end="300" vehsPerHour="10.067131391350298"/>
  <flow id="JF194113" begin="240" fromJunction="J6" toJunction="J4" end="300" vehsPerHour="48.33024932527444"/>
  <flow id="JF194114" begin="240" fromJunction="J6" toJunction="J7" end="300" vehsPerHour="34.61092644120892"/>
  <flow id="JF194115" begin="240" fromJunction="J6" toJunction="J5" end="300" vehsPerHour="16.81065471714874"/>
  <flow id="JF194116" begin="240" fromJunction="J4" toJunction="J3" end="300" vehsPerHour="56.738984729828154"/>
  <flow id="JF194117" begin="240" fromJunction="J4" toJunction="J0" end="300" vehsPerHour="8.789465408484888"/>
  <flow id="JF194118" begin="240" fromJunction="J7" toJunction="J3" end="300" vehsPerHour="28.59882266736292"/>
  <flow id="JF194119" begin="240" fromJunction="J7" toJunction="J0" end="300" vehsPerHour="31.88659827704778"/>
  <flow id="JF194120" begin="240" fromJunction="J5" toJunction="J3" end="300" vehsPerHour="41.09936516828293"/>
  <flow id="JF194121" begin="240" fromJunction="J5" toJunction="J0" end="300" vehsPerHour="64.5581576024918"/>
  <flow id="JF194122" begin="240" fromJunction="J6" toJunction="J3" end="300" vehsPerHour="49.55823279661594"/>
  <flow id="JF194123" begin="240" fromJunction="J6" toJunction="J0" end="300" vehsPerHour="50.89821753789962"/>
  <flow id="JF194124" begin="300" fromJunction="J3" toJunction="J0" end="360" vehsPerHour="366.6527641947289"/>
  <flow id="JF194125" begin="300" fromJunction="J0" toJunction="J3" end="360" vehsPerHour="138.3249270051051"/>
  <flow id="JF194126" begin="300" fromJunction="J3" toJunction="J4" end="360" vehsPerHour="66.1973704410362"/>
  <flow id="JF194127" begin="300" fromJunction="J3" toJunction="J7" end="360" vehsPerHour="36.755656193869385"/>
  <flow id="JF194128" begin="300" fromJunction="J3" toJunction="J5" end="360" vehsPerHour="81.38428633593436"/>
  <flow id="JF194129" begin="300" fromJunction="J3" toJunction="J6" end="360" vehsPerHour="39.720907405485704"/>
  <flow id="JF194130" begin="300" fromJunction="J0" toJunction="J4" end="360" vehsPerHour="89.75854913549392"/>
  <flow id="JF194131" begin="300" fromJunction="J0" toJunction="J7" end="360" vehsPerHour="80.13081138363458"/>
  <flow id="JF194132" begin="300" fromJunction="J0" toJunction="J5" end="360" vehsPerHour="60.898045398583136"/>
  <flow id="JF194133" begin="300" fromJunction="J0" toJunction="J6" end="360" vehsPerHour="107.97136160154629"/>
  <flow id="JF194134" begin="360" fromJunction="J3" toJunction="J0" end="420" vehsPerHour="258.56469465586883"/>
  <flow id="JF194135" begin="360" fromJunction="J0" toJunction="J3" end="420" vehsPerHour="107.34554765731522"/>
  <flow id="JF194136" begin="360" fromJunction="J3" toJunction="J4" end="420" vehsPerHour="34.76332305264757"/>
  <flow id="JF194137" begin="360" fromJunction="J3" toJunction="J7" end="420" vehsPerHour="44.39121246548253"/>
  <flow id="JF194138" begin="360" fromJunction="J3" toJunction="J5" end="420" vehsPerHour="98.72708809944942"/>
  <flow id="JF194139" begin="360" fromJunction="J3" toJunction="J6" end="420" vehsPerHour="5.291000924589531"/>
  <flow id="JF194140" begin="360" fromJunction="J0" toJunction="J4" end="420" vehsPerHour="54.63786973204467"/>
  <flow id="JF194141" begin="360" fromJunction="J0" toJunction="J7" end="420" vehsPerHour="27.081440145445207"/>
  <flow id="JF194142" begin="360" fromJunction="J0" toJunction="J5" end="420" vehsPerHour="33.17732349957689"/>
  <flow id="JF194143" begin="360" fromJunction="J0" toJunction="J6" end="420" vehsPerHour="112.39390372265491"/>
  <flow id="JF194144" begin="360" fromJunction="J4" toJunction="J7" end="420" vehsPerHour="50.203435104546585"/>
  <flow id="JF194145" begin="360" fromJunction="J4" toJunction="J5" end="420" vehsPerHour="65.99230309121688"/>
  <flow id="JF194146" begin="360" fromJunction="J4" toJunction="J6" end="420" vehsPerHour="49.61479787967478"/>
  <flow id="JF194147" begin="360" fromJunction="J7" toJunction="J4" end="420" vehsPerHour="57.50563792265551"/>
  <flow id="JF194148" begin="360" fromJunction="J7" toJunction="J5" end="420" vehsPerHour="23.67312212133199"/>
  <flow id="JF194149" begin="360" fromJunction="J7" toJunction="J6" end="420" vehsPerHour="30.72043142440679"/>
  <flow id="JF194150" begin="360" fromJunction="J5" toJunction="J4" end="420" vehsPerHour="59.36859180757135"/>
  <flow id="JF194151" begin="360" fromJunction="J5" toJunction="J7" end="420" vehsPerHour="5.615710993900122"/>
  <flow id="JF194152" begin="360" fromJunction="J5" toJunction="J6" end="420" vehsPerHour="48.977991925154946"/>
  <flow id="JF194153" begin="360" fromJunction="J6" toJunction="J4" end="420" vehsPerHour="51.03639347034769"/>
  <flow id="JF194154" begin="360" fromJunction="J6" toJunction="J7" end="420" vehsPerHour="31.698678491412863"/>
  <flow id="JF194155" begin="360" fromJunction="J6" toJunction="J5" end="420" vehsPerHour="56.56261736688003"/>
  <flow id="JF194156" begin="360" fromJunction="J4" toJunction="J3" end="420" vehsPerHour="49.83114460159482"/>
  <flow id="JF194157" begin="360" fromJunction="J4" toJunction="J0" end="420" vehsPerHour="59.6020345710034"/>
  <flow id="JF194158" begin="360" fromJunction="J7" toJunction="J3" end="420" vehsPerHour="24.007988244629498"/>
  <flow id="JF194159" begin="360" fromJunction="J7" toJunction="J0" end="420" vehsPerHour="0.7877956277632925"/>
  <flow id="JF194160" begin="360" fromJunction="J5" toJunction="J3" end="420" vehsPerHour="32.17636124253165"/>
  <flow id="JF194161" begin="360" fromJunction="J5" toJunction="J0" end="420" vehsPerHour="30.47822672558024"/>
  <flow id="JF194162" begin="360" fromJunction="J6" toJunction="J3" end="420" vehsPerHour="29.305233439942572"/>
  <flow id="JF194163" begin="360" fromJunction="J6" toJunction="J0" end="420" vehsPerHour="27.30367365450761"/>
  <flow id="JF194164" begin="420" fromJunction="J3" toJunction="J0" end="480" vehsPerHour="218.99472033271715"/>
  <flow id="JF194165" begin="420" fromJunction="J0" toJunction="J3" end="480" vehsPerHour="427.6332614510538"/>
  <flow id="JF194166" begin="420" fromJunction="J3" toJunction="J4" end="480" vehsPerHour="18.154289874761258"/>
  <flow id="JF194167" begin="420" fromJunction="J3" toJunction="J7" end="480" vehsPerHour="93.07031153528565"/>
  <flow id="JF194168" begin="420" fromJunction="J3" toJunction="J5" end="480" vehsPerHour="48.19773961788477"/>
  <flow id="JF194169" begin="420" fromJunction="J3" toJunction="J6" end="480" vehsPerHour="43.88378766390365"/>
  <flow id="JF194170" begin="420" fromJunction="J0" toJunction="J4" end="480" vehsPerHour="16.462255326820944"/>
  <flow id="JF194171" begin="420" fromJunction="J0" toJunction="J7" end="480" vehsPerHour="113.95750426233145"/>
  <flow id="JF194172" begin="420" fromJunction="J0" toJunction="J5" end="480" vehsPerHour="10.254471629032583"/>
  <flow id="JF194173" begin="420" fromJunction="J0" toJunction="J6" end="480" vehsPerHour="134.0056997983674"/>
  <flow id="JF194174" begin="420" fromJunction="J4" toJunction="J7" end="480" vehsPerHour="0.8959041110358186"/>
  <flow id="JF194175" begin="420" fromJunction="J4" toJunction="J5" end="480" vehsPerHour="3.346896477939238"/>
  <flow id="JF194176" begin="420" fromJunction="J4" toJunction="J6" end="480" vehsPerHour="8.742817404735089"/>
  <flow id="JF194177" begin="420" fromJunction="J7" toJunction="J4" end="480" vehsPerHour="24.120540115704355"/>
  <flow id="JF194178" begin="420" fromJunction="J7" toJunction="J5" end="480" vehsPerHour="3.653893239328524"/>
  <flow id="JF194179" begin="420" fromJunction="J7" toJunction="J6" end="480" vehsPerHour="25.677411274071147"/>
  <flow id="JF194180" begin="420" fromJunction="J5" toJunction="J4" end="480" vehsPerHour="2.4610402357251204"/>
  <flow id="JF194181" begin="420" fromJunction="J5" toJunction="J7" end="480" vehsPerHour="59.56161664764067"/>
  <flow id="JF194182" begin="420" fromJunction="J5" toJunction="J6" end="480" vehsPerHour="45.84633979954631"/>
  <flow id="JF194183" begin="420" fromJunction="J6" toJunction="J4" end="480" vehsPerHour="31.311120407879688"/>
  <flow id="JF194184" begin="420" fromJunction="J6" toJunction="J7" end="480" vehsPerHour="5.603034235708588"/>
  <flow id="JF194185" begin="420" fromJunction="J6" toJunction="J5" end="480" vehsPerHour="31.47484878990597"/>
  <flow id="JF194186" begin="420" fromJunction="J4" toJunction="J3" end="480" vehsPerHour="39.23585762355542"/>
  <flow id="JF194187" begin="420" fromJunction="J4" toJunction="J0" end="480" vehsPerHour="64.56076231432712"/>
  <flow id="JF194188" begin="420" fromJunction="J7" toJunction="J3" end="480" vehsPerHour="52.136600342808585"/>
  <flow id="JF194189" begin="420" fromJunction="J7" toJunction="J0" end="480" vehsPerHour="46.04685926865526"/>
  <flow id="JF194190" begin="420" fromJunction="J5" toJunction="J3" end="480" vehsPerHour="36.847439647988715"/>
  <flow id="JF194191" begin="420" fromJunction="J5" toJunction="J0" end="480" vehsPerHour="5.736840266854153"/>
  <flow id="JF194192" begin="420" fromJunction="J6" toJunction="J3" end="480" vehsPerHour="10.864786636371623"/>
  <flow id="JF194193" begin="420" fromJunction="J6" toJunction="J0" end="480" vehsPerHour="58.674215267227794"/>
  <flow id="JF194194" begin="480" fromJunction="J3" toJunction="J0" end="540" vehsPerHour="531.48938061098"/>
  <flow id="JF194195" begin="480" fromJunction="J0" toJunction="J3" end="540" vehsPerHour="472.7370608303033"/>
  <flow id="JF194196" begin="480" fromJunction="J3" toJunction="J4" end="540" vehsPerHour="75.191412633622"/>
  <flow id="JF194197" begin="480" fromJunction="J3" toJunction="J7" end="540" vehsPerHour="117.64193762594441"/>
  <flow id="JF194198" begin="480" fromJunction="J3" toJunction="J5" end="540" vehsPerHour="50.20736782049244"/>
  <flow id="JF194199" begin="480" fromJunction="J3" toJunction="J6" end="540" vehsPerHour="71.26953943740001"/>
  <flow id="JF194200" begin="480" fromJunction="J0" toJunction="J4" end="540" vehsPerHour="14.156269017164679"/>
  <flow id="JF194201" begin="480" fromJunction="J0" toJunction="J7" end="540" vehsPerHour="5.940811232303351"/>
  <flow id="JF194202" begin="480" fromJunction="J0" toJunction="J5" end="540" vehsPerHour="105.89721622518432"/>
  <flow id="JF194203" begin="480" fromJunction="J0" toJunction="J6" end="540" vehsPerHour="59.59892989427168"/>
  <flow id="JF194204" begin="540" fromJunction="J3" toJunction="J0" end="600" vehsPerHour="137.43142426459647"/>
  <flow id="JF194205" begin="540" fromJunction="J0" toJunction="J3" end="600" vehsPerHour="261.2290002206139"/>
  <flow id="JF194206" begin="540" fromJunction="J3" toJunction="J4" end="600" vehsPerHour="58.278724627583166"/>
  <flow id="JF194207" begin="540" fromJunction="J3" toJunction="J7" end="600" vehsPerHour="9.220594267203731"/>
  <flow id="JF194208" begin="540" fromJunction="J3" toJunction="J5" end="600" vehsPerHour="56.17928188388181"/>
  <flow id="JF194209" begin="540" fromJunction="J3" toJunction="J6" end="600" vehsPerHour="131.820699728312"/>
  <flow id="JF194210" begin="540" fromJunction="J0" toJunction="J4" end="600" vehsPerHour="53.90653573436232"/>
  <flow id="JF194211" begin="540" fromJunction="J0" toJunction="J7" end="600" vehsPerHour="85.78580448837236"/>
  <flow id="JF194212" begin="540" fromJunction="J0" toJunction="J5" end="600" vehsPerHour="92.67494603203681"/>
  <flow id="JF194213" begin="540" fromJunction="J0" toJunction="J6" end="600" vehsPerHour="132.74138026641845"/>
  <flow id="JF194214" begin="540" fromJunction="J4" toJunction="J7" end="600" vehsPerHour="49.88460206125918"/>
  <flow id="JF194215" begin="540" fromJunction="J4" toJunction="J5" end="600" vehsPerHour="58.263561676695474"/>
  <flow id="JF194216" begin="540" fromJunction="J4" toJunction="J6" end="600" vehsPerHour="31.922035338564505"/>
  <flow id="JF194217" begin="540" fromJunction="J7" toJunction="J4" end="600" vehsPerHour="64.9673449561508"/>
  <flow id="JF194218" begin="540" fromJunction="J7" toJunction="J5" end="600" vehsPerHour="14.462292323012917"/>
  <flow id="JF194219" begin="540" fromJunction="J7" toJunction="J6" end="600" vehsPerHour="38.665569908660345"/>
  <flow id="JF194220" begin="540" fromJunction="J5" toJunction="J4" end="600" vehsPerHour="54.600565987323215"/>
  <flow id="JF194221" begin="540" fromJunction="J5" toJunction="J7" end="600" vehsPerHour="14.274019997942258"/>
  <flow id="JF194222" begin="540" fromJunction="J5" toJunction="J6" end="600" vehsPerHour="8.710375299893057"/>
  <flow id="JF194223" begin="540" fromJunction="J6" toJunction="J4" end="600" vehsPerHour="12.735989987736266"/>
  <flow id="JF194224" begin="540" fromJunction="J6" toJunction="J7" end="600" vehsPerHour="54.704128507721585"/>
  <flow id="JF194225" begin="540" fromJunction="J6" toJunction="J5" end="600" vehsPerHour="3.9004813230590085"/>
  <flow id="JF194226" begin="540" fromJunction="J4" toJunction="J3" end="600" vehsPerHour="58.28809615079893"/>
  <flow id="JF194227" begin="540" fromJunction="J4" toJunction="J0" end="600" vehsPerHour="2.823674936433718"/>
  <flow id="JF194228" begin="540" fromJunction="J7" toJunction="J3" end="600" vehsPerHour="67.83209134247053"/>
  <flow id="JF194229" begin="540" fromJunction="J7" toJunction="J0" end="600" vehsPerHour="60.85585915748307"/>
  <flow id="JF194230" begin="540" fromJunction="J5" toJunction="J3" end="600" vehsPerHour="11.323949410904486"/>
  <flow id="JF194231" begin="540" fromJunction="J5" toJunction="J0" end="600" vehsPerHour="17.03084265931485"/>
  <flow id="JF194232" begin="540" fromJunction="J6" toJunction="J3" end="600" vehsPerHour="66.6639241353471"/>
  <flow id="JF194233" begin="540" fromJunction="J6" toJunction="J0" end="600" vehsPerHour="55.802680119077934"/>
  <flow id="JF194234" begin="600" fromJunction="J3" toJunction="J0" end="660" vehsPerHour="159.06988842580023"/>
  <flow id="JF194235" begin="600" fromJunction="J0" toJunction="J3" end="660" vehsPerHour="144.4216822559029"/>
  <flow id="JF194236" begin="600" fromJunction="J3" toJunction="J4" end="660" vehsPerHour="47.34381286823058"/>
  <flow id="JF194237" begin="600" fromJunction="J3" toJunction="J7" end="660" vehsPerHour="6.6520207178256285"/>
  <flow id="JF194238" begin="600" fromJunction="J3" toJunction="J5" end="660" vehsPerHour="24.117959412339673"/>
  <flow id="JF194239" begin="600" fromJunction="J3" toJunction="J6" end="660" vehsPerHour="77.18459371267537"/>
  <flow id="JF194240" begin="600" fromJunction="J0" toJunction="J4" end="660" vehsPerHour="21.54915889515995"/>
  <flow id="JF194241" begin="600" fromJunction="J0" toJunction="J7" end="660" vehsPerHour="85.27222583933472"/>
  <flow id="JF194242" begin="600" fromJunction="J0" toJunction="J5" end="660" vehsPerHour="60.99640163916203"/>
  <flow id="JF194243" begin="600" fromJunction="J0" toJunction="J6" end="660" vehsPerHour="45.2843782345676"/>
  <flow id="JF194244" begin="600" fromJunction="J4" toJunction="J7" end="660" vehsPerHour="58.06678861037848"/>
  <flow id="JF194245" begin="600" fromJunction="J4" toJunction="J5" end="660" vehsPerHour="29.799309041915652"/>
  <flow id="JF194246" begin="600" fromJunction="J4" toJunction="J6" end="660" vehsPerHour="53.046274086595496"/>
  <flow id="JF194247" begin="600" fromJunction="J7" toJunction="J4" end="660" vehsPerHour="27.549234205080072"/>
  <flow id="JF194248" begin="600" fromJunction="J7" toJunction="J5" end="660" vehsPerHour="39.4020275607349"/>
  <flow id="JF194249" begin="600" fromJunction="J7" toJunction="J6" end="660" vehsPerHour="35.67172505085919"/>
  <flow id="JF194250" begin="600" fromJunction="J5" toJunction="J4" end="660" vehsPerHour="2.902598507077384"/>
  <flow id="JF194251" begin="600" fromJunction="J5" toJunction="J7" end="660" vehsPerHour="28.07644782492913"/>
  <flow id="JF194252" begin="600" fromJunction="J5" toJunction="J6" end="660" vehsPerHour="3.474312791929919"/>
  <flow id="JF194253" begin="600" fromJunction="J6" toJunction="J4" end="660" vehsPerHour="66.36644407152966"/>
  <flow id="JF194254" begin="600" fromJunction="J6" toJunction="J7" end="660" vehsPerHour="19.266420193585883"/>
  <flow id="JF194255" begin="600" fromJunction="J6" toJunction="J5" end="660" vehsPerHour="45.66456409506256"/>
  <flow id="JF194256" begin="600" fromJunction="J4" toJunction="J3" end="660" vehsPerHour="66.63041440305483"/>
  <flow id="JF194257" begin="600" fromJunction="J4" toJunction="J0" end="660" vehsPerHour="64.7189696391671"/>
  <flow id="JF194258" begin="600" fromJunction="J7" toJunction="J3" end="660" vehsPerHour="43.5893621056824"/>
  <flow id="JF194259" begin="600" fromJunction="J7" toJunction="J0" end="660" vehsPerHour="10.330810027184997"/>
  <flow id="JF194260" begin="600" fromJunction="J5" toJunction="J3" end="660" vehsPerHour="3.6146264650057685"/>
  <flow id="JF194261" begin="600" fromJunction="J5" toJunction="J0" end="660" vehsPerHour="28.69665673525484"/>
  <flow id="JF194262" begin="600" fromJunction="J6" toJunction="J3" end="660" vehsPerHour="10.572297545615939"/>
  <flow id="JF194263" begin="600" fromJunction="J6" toJunction="J0" end="660" vehsPerHour="48.15604707882857"/>
  <flow id="JF194264" begin="660" fromJunction="J3" toJunction="J0" end="720" vehsPerHour="219.45746020484756"/>
  <flow id="JF194265" begin="660" fromJunction="J0" toJunction="J3" end="720" vehsPerHour="19.74981050693465"/>
  <flow id="JF194266" begin="660" fromJunction="J3" toJunction="J4" end="720" vehsPerHour="81.0870221777929"/>
  <flow id="JF194267" begin="660" fromJunction="J3" toJunction="J7" end="720" vehsPerHour="94.92409156641352"/>
  <flow id="JF194268" begin="660" fromJunction="J3" toJunction="J5" end="720" vehsPerHour="11.443749470846772"/>
  <flow id="JF194269" begin="660" fromJunction="J3" toJunction="J6" end="720" vehsPerHour="129.45140763805276"/>
  <flow id="JF194270" begin="660" fromJunction="J0" toJunction="J4" end="720" vehsPerHour="15.30483871685214"/>
  <flow id="JF194271" begin="660" fromJunction="J0" toJunction="J7" end="720" vehsPerHour="115.77544118221415"/>
  <flow id="JF194272" begin="660" fromJunction="J0" toJunction="J5" end="720" vehsPerHour="80.12568312860898"/>
  <flow id="JF194273" begin="660" fromJunction="J0" toJunction="J6" end="720" vehsPerHour="49.80744424752291"/>
  <flow id="JF194274" begin="720" fromJunction="J3" toJunction="J0" end="780" vehsPerHour="493.5064635439674"/>
  <flow id="JF194275" begin="720" fromJunction="J0" toJunction="J3" end="780" vehsPerHour="348.08926163178285"/>
  <flow id="JF194276" begin="720" fromJunction="J3" toJunction="J4" end="780" vehsPerHour="125.39350543280852"/>
  <flow id="JF194277" begin="720" fromJunction="J3" toJunction="J7" end="780" vehsPerHour="127.65224235075068"/>
  <flow id="JF194278" begin="720" fromJunction="J3" toJunction="J5" end="780" vehsPerHour="137.38771834937742"/>
  <flow id="JF194279" begin="720" fromJunction="J3" toJunction="J6" end="780" vehsPerHour="91.52932340770741"/>