<?xml version="1.0" encoding="UTF-8"?>
<routes xmlns:xsi="http://www.w3.org/2001/XMLSchema-instance" xsi:noNamespaceSchemaLocation="http://sumo.dlr.de/xsd/routes_file.xsd">
  <flow id="JF171628" begin="0" fromJunction="J3" toJunction="J0" end="60" vehsPerHour="153.42301190745485"/>
  <flow id="JF171629" begin="0" fromJunction="J0" toJunction="J3" end="60" vehsPerHour="454.6340012691232"/>
  <flow id="JF171630" begin="0" fromJunction="J3" toJunction="J4" end="60" vehsPerHour="134.9798840350889"/>
  <flow id="JF171631" begin="0" fromJunction="J3" toJunction="J7" end="60" vehsPerHour="25.102991984328234"/>
  <flow id="JF171632" begin="0" fromJunction="J3" toJunction="J5" end="60" vehsPerHour="34.988078531254644"/>
  <flow id="JF171633" begin="0" fromJunction="J3" toJunction="J6" end="60" vehsPerHour="12.412468492626049"/>
  <flow id="JF171634" begin="0" fromJunction="J0" toJunction="J4" end="60" vehsPerHour="30.45440303086724"/>
  <flow id="JF171635" begin="0" fromJunction="J0" toJunction="J7" end="60" vehsPerHour="82.54359232408436"/>
  <flow id="JF171636" begin="0" fromJunction="J0" toJunction="J5" end="60" vehsPerHour="78.05406502589199"/>
  <flow id="JF171637" begin="0" fromJunction="J0" toJunction="J6" end="60" vehsPerHour="119.16628292124797"/>
  <flow id="JF171638" begin="0" fromJunction="J4" toJunction="J7" end="60" vehsPerHour="68.02747456822905"/>
  <flow id="JF171639" begin="0" fromJunction="J4" toJunction="J5" end="60" vehsPerHour="38.99639797178496"/>
  <flow id="JF171640" begin="0" fromJunction="J4" toJunction="J6" end="60" vehsPerHour="63.53765967091938"/>
  <flow id="JF171641" begin="0" fromJunction="J7" toJunction="J4" end="60" vehsPerHour="31.749750071402488"/>
  <flow id="JF171642" begin="0" fromJunction="J7" toJunction="J5" end="60" vehsPerHour="41.66855900203473"/>
  <flow id="JF171643" begin="0" fromJunction="J7" toJunction="J6" end="60" vehsPerHour="20.087162160993067"/>
  <flow id="JF171644" begin="0" fromJunction="J5" toJunction="J4" end="60" vehsPerHour="18.50154055982234"/>
  <flow id="JF171645" begin="0" fromJunction="J5" toJunction="J7" end="60" vehsPerHour="30.268623854273102"/>
  <flow id="JF171646" begin="0" fromJunction="J5" toJunction="J6" end="60" vehsPerHour="56.132159343207"/>
  <flow id="JF171647" begin="0" fromJunction="J6" toJunction="J4" end="60" vehsPerHour="41.715689005508374"/>
  <flow id="JF171648" begin="0" fromJunction="J6" toJunction="J7" end="60" vehsPerHour="21.13174659907113"/>
  <flow id="JF171649" begin="0" fromJunction="J6" toJunction="J5" end="60" vehsPerHour="23.573650061680134"/>
  <flow id="JF171650" begin="0" fromJunction="J4" toJunction="J3" end="60" vehsPerHour="55.95580331498014"/>
  <flow id="JF171651" begin="0" fromJunction="J4" toJunction="J0" end="60" vehsPerHour="10.760760623210569"/>
  <flow id="JF171652" begin="0" fromJunction="J7" toJunction="J3" end="60" vehsPerHour="13.415279251020962"/>
  <flow id="JF171653" begin="0" fromJunction="J7" toJunction="J0" end="60" vehsPerHour="33.949118740672745"/>
  <flow id="JF171654" begin="0" fromJunction="J5" toJunction="J3" end="60" vehsPerHour="10.26997669378188"/>
  <flow id="JF171655" begin="0" fromJunction="J5" toJunction="J0" end="60" vehsPerHour="36.92770037098745"/>
  <flow id="JF171656" begin="0" fromJunction="J6" toJunction="J3" end="60" vehsPerHour="41.53981461692299"/>
  <flow id="JF171657" begin="0" fromJunction="J6" toJunction="J0" end="60" vehsPerHour="19.294815601253433"/>
  <flow id="JF171658" begin="60" fromJunction="J3" toJunction="J0" end="120" vehsPerHour="303.7601631602845"/>
  <flow id="JF171659" begin="60" fromJunction="J0" toJunction="J3" end="120" vehsPerHour="33.32760691425929"/>
  <flow id="JF171660" begin="60" fromJunction="J3" toJunction="J4" end="120" vehsPerHour="73.99779548849529"/>
  <flow id="JF171661" begin="60" fromJunction="J3" toJunction="J7" end="120" vehsPerHour="124.26242856219632"/>
  <flow id="JF171662" begin="60" fromJunction="J3" toJunction="J5" end="120" vehsPerHour="72.34901579183528"/>
  <flow id="JF171663" begin="60" fromJunction="J3" toJunction="J6" end="120" vehsPerHour="86.83655667621385"/>
  <flow id="JF171664" begin="60" fromJunction="J0" toJunction="J4" end="120" vehsPerHour="82.87812608433583"/>
  <flow id="JF171665" begin="60" fromJunction="J0" toJunction="J7" end="120" vehsPerHour="128.9274605151888"/>
  <flow id="JF171666" begin="60" fromJunction="J0" toJunction="J5" end="120" vehsPerHour="120.7395525428793"/>
  <flow id="JF171667" begin="60" fromJunction="J0" toJunction="J6" end="120" vehsPerHour="80.46246431089985"/>
  <flow id="JF171668" begin="60" fromJunction="J4" toJunction="J7" end="120" vehsPerHour="46.57090390414258"/>
  <flow id="JF171669" begin="60" fromJunction="J4" toJunction="J5" end="120" vehsPerHour="14.80345493062187"/>
  <flow id="JF171670" begin="60" fromJunction="J4" toJunction="J6" end="120" vehsPerHour="39.2066935694765"/>
  <flow id="JF171671" begin="60" fromJunction="J7" toJunction="J4" end="120" vehsPerHour="46.91986440758081"/>
  <flow id="JF171672" begin="60" fromJunction="J7" toJunction="J5" end="120" vehsPerHour="23.981098770325143"/>
  <flow id="JF171673" begin="60" fromJunction="J7" toJunction="J6" end="120" vehsPerHour="60.420499623743574"/>
  <flow id="JF171674" begin="60" fromJunction="J5" toJunction="J4" end="120" vehsPerHour="12.101458365312332"/>
  <flow id="JF171675" begin="60" fromJunction="J5" toJunction="J7" end="120" vehsPerHour="67.00106052040756"/>
  <flow id="JF171676" begin="60" fromJunction="J5" toJunction="J6" end="120" vehsPerHour="61.93317136695302"/>
  <flow id="JF171677" begin="60" fromJunction="J6" toJunction="J4" end="120" vehsPerHour="62.74901657026267"/>
  <flow id="JF171678" begin="60" fromJunction="J6" toJunction="J7" end="120" vehsPerHour="59.654450456831896"/>
  <flow id="JF171679" begin="60" fromJunction="J6" toJunction="J5" end="120" vehsPerHour="22.059246530699916"/>
  <flow id="JF171680" begin="60" fromJunction="J4" toJunction="J3" end="120" vehsPerHour="2.5652869284852184"/>
  <flow id="JF171681" begin="60" fromJunction="J4" toJunction="J0" end="120" vehsPerHour="3.9656751531579846"/>
  <flow id="JF171682" begin="60" fromJunction="J7" toJunction="J3" end="120" vehsPerHour="53.7253432876708"/>
  <flow id="JF171683" begin="60" fromJunction="J7" toJunction="J0" end="120" vehsPerHour="20.43676971644827"/>
  <flow id="JF171684" begin="60" fromJunction="J5" toJunction="J3" end="120" vehsPerHour="20.850966136880544"/>
  <flow id="JF171685" begin="60" fromJunction="J5" toJunction="J0" end="120" vehsPerHour="7.892764143974338"/>
  <flow id="JF171686" begin="60" fromJunction="J6" toJunction="J3" end="120" vehsPerHour="63.35591203892748"/>
  <flow id="JF171687" begin="60" fromJunction="J6" toJunction="J0" end="120" vehsPerHour="59.84995607327892"/>
  <flow id="JF171688" begin="120" fromJunction="J3" toJunction="J0" end="180" vehsPerHour="527.4557703847746"/>
  <flow id="JF171689" begin="120" fromJunction="J0" toJunction="J3" end="180" vehsPerHour="295.06227950536834"/>
  <flow id="JF171690" begin="120" fromJunction="J3" toJunction="J4" end="180" vehsPerHour="106.44452870893099"/>
  <flow id="JF171691" begin="120" fromJunction="J3" toJunction="J7" end="180" vehsPerHour="3.2713457823626175"/>
  <flow id="JF171692" begin="120" fromJunction="J3" toJunction="J5" end="180" vehsPerHour="77.2764701941422"/>
  <flow id="JF171693" begin="120" fromJunction="J3" toJunction="J6" end="180" vehsPerHour="35.581932022299576"/>
  <flow id="JF171694" begin="120" fromJunction="J0" toJunction="J4" end="180" vehsPerHour="34.55929421797476"/>
  <flow id="JF171695" begin="120" fromJunction="J0" toJunction="J7" end="180" vehsPerHour="17.29575282748648"/>
  <flow id="JF171696" begin="120" fromJunction="J0" toJunction="J5" end="180" vehsPerHour="87.4326321660265"/>
  <flow id="JF171697" begin="120" fromJunction="J0" toJunction="J6" end="180" vehsPerHour="41.74771182906938"/>
  <flow id="JF171698" begin="120" fromJunction="J4" toJunction="J7" end="180" vehsPerHour="40.7618757608829"/>
  <flow id="JF171699" begin="120" fromJunction="J4" toJunction="J5" end="180" vehsPerHour="4.158543469608932"/>
  <flow id="JF171700" begin="120" fromJunction="J4" toJunction="J6" end="180" vehsPerHour="34.16697854893762"/>
  <flow id="JF171701" begin="120" fromJunction="J7" toJunction="J4" end="180" vehsPerHour="8.487091385406917"/>
  <flow id="JF171702" begin="120" fromJunction="J7" toJunction="J5" end="180" vehsPerHour="32.06583356605499"/>
  <flow id="JF171703" begin="120" fromJunction="J7" toJunction="J6" end="180" vehsPerHour="59.632511525304814"/>
  <flow id="JF171704" begin="120" fromJunction="J5" toJunction="J4" end="180" vehsPerHour="20.97577605820382"/>
  <flow id="JF171705" begin="120" fromJunction="J5" toJunction="J7" end="180" vehsPerHour="47.53414121570791"/>
  <flow id="JF171706" begin="120" fromJunction="J5" toJunction="J6" end="180" vehsPerHour="63.20945678595911"/>
  <flow id="JF171707" begin="120" fromJunction="J6" toJunction="J4" end="180" vehsPerHour="64.47839366291113"/>
  <flow id="JF171708" begin="120" fromJunction="J6" toJunction="J7" end="180" vehsPerHour="8.38520825638733"/>
  <flow id="JF171709" begin="120" fromJunction="J6" toJunction="J5" end="180" vehsPerHour="41.94765036378046"/>
  <flow id="JF171710" begin="120" fromJunction="J4" toJunction="J3" end="180" vehsPerHour="13.650283011764351"/>
  <flow id="JF171711" begin="120" fromJunction="J4" toJunction="J0" end="180" vehsPerHour="2.1943804278091346"/>
  <flow id="JF171712" begin="120" fromJunction="J7" toJunction="J3" end="180" vehsPerHour="44.908949262633506"/>
  <flow id="JF171713" begin="120" fromJunction="J7" toJunction="J0" end="180" vehsPerHour="58.89988267747937"/>
  <flow id="JF171714" begin="120" fromJunction="J5" toJunction="J3" end="180" vehsPerHour="29.253411339690114"/>
  <flow id="JF171715" begin="120" fromJunction="J5" toJunction="J0" end="180" vehsPerHour="12.764408118604432"/>
  <flow id="JF171716" begin="120" fromJunction="J6" toJunction="J3" end="180" vehsPerHour="15.380225780094387"/>
  <flow id="JF171717" begin="120" fromJunction="J6" toJunction="J0" end="180" vehsPerHour="41.3890048052115"/>
  <flow id="JF171718" begin="180" fromJunction="J3" toJunction="J0" end="240" vehsPerHour="158.8473805872106"/>
  <flow id="JF171719" begin="180" fromJunction="J0" toJunction="J3" end="240" vehsPerHour="449.58479480074385"/>
  <flow id="JF171720" begin="180" fromJunction="J3" toJunction="J4" end="240" vehsPerHour="103.19102926697671"/>
  <flow id="JF171721" begin="180" fromJunction="J3" toJunction="J7" end="240" vehsPerHour="102.49944414956285"/>
  <flow id="JF171722" begin="180" fromJunction="J3" toJunction="J5" end="240" vehsPerHour="113.65870898825385"/>
  <flow id="JF171723" begin="180" fromJunction="J3" toJunction="J6" end="240" vehsPerHour="128.77851908078787"/>
  <flow id="JF171724" begin="180" fromJunction="J0" toJunction="J4" end="240" vehsPerHour="124.4535767110506"/>
  <flow id="JF171725" begin="180" fromJunction="J0" toJunction="J7" end="240" vehsPerHour="54.9684080801338"/>
  <flow id="JF171726" begin="180" fromJunction="J0" toJunction="J5" end="240" vehsPerHour="17.91561124939966"/>
  <flow id="JF171727" begin="180" fromJunction="J0" toJunction="J6" end="240" vehsPerHour="40.8870893631052"/>
  <flow id="JF171728" begin="180" fromJunction="J4" toJunction="J7" end="240" vehsPerHour="45.87914793143841"/>
  <flow id="JF171729" begin="180" fromJunction="J4" toJunction="J5" end="240" vehsPerHour="51.68051647555019"/>
  <flow id="JF171730" begin="180" fromJunction="J4" toJunction="J6" end="240" vehsPerHour="13.082204027714457"/>
  <flow id="JF171731" begin="180" fromJunction="J7" toJunction="J4" end="240" vehsPerHour="60.67240720592637"/>
  <flow id="JF171732" begin="180" fromJunction="J7" toJunction="J5" end="240" vehsPerHour="2.226779771395064"/>
  <flow id="JF171733" begin="180" fromJunction="J7" toJunction="J6" end="240" vehsPerHour="10.949875855783192"/>
  <flow id="JF171734" begin="180" fromJunction="J5" toJunction="J4" end="240" vehsPerHour="39.41807802068519"/>
  <flow id="JF171735" begin="180" fromJunction="J5" toJunction="J7" end="240" vehsPerHour="66.0521574737815"/>
  <flow id="JF171736" begin="180" fromJunction="J5" toJunction="J6" end="240" vehsPerHour="33.882018272587835"/>
  <flow id="JF171737" begin="180" fromJunction="J6" toJunction="J4" end="240" vehsPerHour="49.88082893584369"/>
  <flow id="JF171738" begin="180" fromJunction="J6" toJunction="J7" end="240" vehsPerHour="49.922732776369756"/>
  <flow id="JF171739" begin="180" fromJunction="J6" toJunction="J5" end="240" vehsPerHour="16.616508952821487"/>
  <flow id="JF171740" begin="180" fromJunction="J4" toJunction="J3" end="240" vehsPerHour="59.42807144537348"/>
  <flow id="JF171741" begin="180" fromJunction="J4" toJunction="J0" end="240" vehsPerHour="40.32120306519553"/>
  <flow id="JF171742" begin="180" fromJunction="J7" toJunction="J3" end="240" vehsPerHour="15.375509328779291"/>
  <flow id="JF171743" begin="180" fromJunction="J7" toJunction="J0" end="240" vehsPerHour="14.189794157213568"/>
  <flow id="JF171744" begin="180" fromJunction="J5" toJunction="J3" end="240" vehsPerHour="60.190629358626666"/>
  <flow id="JF171745" begin="180" fromJunction="J5" toJunction="J0" end="240" vehsPerHour="38.67365687511143"/>
  <flow id="JF171746" begin="180" fromJunction="J6" toJunction="J3" end="240" vehsPerHour="12.11143529824383"/>
  <flow id="JF171747" begin="180" fromJunction="J6" toJunction="J0" end="240" vehsPerHour="41.133623815890104"/>
  <flow id="JF171748" begin="240" fromJunction="J3" toJunction="J0" end="300" vehsPerHour="399.514365854233"/>
  <flow id="JF171749" begin="240" fromJunction="J0" toJunction="J3" end="300" vehsPerHour="212.32113716118405"/>
  <flow id="JF171750" begin="240" fromJunction="J3" toJunction="J4" end="300" vehsPerHour="40.666075726066325"/>
  <flow id="JF171751" begin="240" fromJunction="J3" toJunction="J7" end="300" vehsPerHour="36.31341616388067"/>
  <flow id="JF171752" begin="240" fromJunction="J3" toJunction="J5" end="300" vehsPerHour="68.8506386702067"/>
  <flow id="JF171753" begin="240" fromJunction="J3" toJunction="J6" end="300" vehsPerHour="62.08523902053236"/>
  <flow id="JF171754" begin="240" fromJunction="J0" toJunction="J4" end="300" vehsPerHour="5.491540399965357"/>
  <flow id="JF171755" begin="240" fromJunction="J0" toJunction="J7" end="300" vehsPerHour="32.65949683815243"/>
  <flow id="JF171756" begin="240" fromJunction="J0" toJunction="J5" end="300" vehsPerHour="86.57263956975716"/>
  <flow id="JF171757" begin="240" fromJunction="J0" toJunction="J6" end="300" vehsPerHour="117.5675647960621"/>
  <flow id="JF171758" begin="240" fromJunction="J4" toJunction="J7" end="300" vehsPerHour="35.1201418590999"/>
  <flow id="JF171759" begin="240" fromJunction="J4" toJunction="J5" end="300" vehsPerHour="33.84298452771587"/>
  <flow id="JF171760" begin="240" fromJunction="J4" toJunction="J6" end="300" vehsPerHour="16.67460782117449"/>
  <flow id="JF171761" begin="240" fromJunction="J7" toJunction="J4" end="300" vehsPerHour="67.51197793721508"/>
  <flow id="JF171762" begin="240" fromJunction="J7" toJunction="J5" end="300" vehsPerHour="5.111580579826095"/>
  <flow id="JF171763" begin="240" fromJunction="J7" toJunction="J6" end="300" vehsPerHour="5.538761897774361"/>
  <flow id="JF171764" begin="240" fromJunction="J5" toJunction="J4" end="300" vehsPerHour="43.76125243929757"/>
  <flow id="JF171765" begin="240" fromJunction="J5" toJunction="J7" end="300" vehsPerHour="66.87988896426033"/>
  <flow id="JF171766" begin="240" fromJunction="J5" toJunction="J6" end="300" vehsPerHour="66.0243829658075"/>
  <flow id="JF171767" begin="240" fromJunction="J6" toJunction="J4" end="300" vehsPerHour="0.3461657407849977"/>
  <flow id="JF171768" begin="240" fromJunction="J6" toJunction="J7" end="300" vehsPerHour="19.022136765656334"/>
  <flow id="JF171769" begin="240" fromJunction="J6" toJunction="J5" end="300" vehsPerHour="56.13440896705471"/>
  <flow id="JF171770" begin="240" fromJunction="J4" toJunction="J3" end="300" vehsPerHour="18.23007041595614"/>
  <flow id="JF171771" begin="240" fromJunction="J4" toJunction="J0" end="300" vehsPerHour="9.075552925748777"/>
  <flow id="JF171772" begin="240" fromJunction="J7" toJunction="J3" end="300" vehsPerHour="26.634822826216755"/>
  <flow id="JF171773" begin="240" fromJunction="J7" toJunction="J0" end="300" vehsPerHour="36.01654658353065"/>
  <flow id="JF171774" begin="240" fromJunction="J5" toJunction="J3" end="300" vehsPerHour="17.403900417605893"/>
  <flow id="JF171775" begin="240" fromJunction="J5" toJunction="J0" end="300" vehsPerHour="57.578375595976965"/>
  <flow id="JF171776" begin="240" fromJunction="J6" toJunction="J3" end="300" vehsPerHour="47.69674229808231"/>
  <flow id="JF171777" begin="240" fromJunction="J6" toJunction="J0" end="300" vehsPerHour="37.18755145121605"/>
  <flow id="JF171778" begin="300" fromJunction="J3" toJunction="J0" end="360" vehsPerHour="234.07950642448046"/>
  <flow id="JF171779" begin="300" fromJunction="J0" toJunction="J3" end="360" vehsPerHour="159.2117018948764"/>
  <flow id="JF171780" begin="300" fromJunction="J3" toJunction="J4" end="360" vehsPerHour="26.470039770641943"/>
  <flow id="JF171781" begin="300" fromJunction="J3" toJunction="J7" end="360" vehsPerHour="118.76630829686509"/>
  <flow id="JF171782" begin="300" fromJunction="J3" toJunction="J5" end="360" vehsPerHour="121.95559450920356"/>
  <flow id="JF171783" begin="300" fromJunction="J3" toJunction="J6" end="360" vehsPerHour="51.45116259904772"/>
  <flow id="JF171784" begin="300" fromJunction="J0" toJunction="J4" end="360" vehsPerHour="66.79516277028115"/>
  <flow id="JF171785" begin="300" fromJunction="J0" toJunction="J7" end="360" vehsPerHour="40.7607875363232"/>
  <flow id="JF171786" begin="300" fromJunction="J0" toJunction="J5" end="360" vehsPerHour="119.57551421609969"/>
  <flow id="JF171787" begin="300" fromJunction="J0" toJunction="J6" end="360" vehsPerHour="100.99543364033202"/>
  <flow id="JF171788" begin="360" fromJunction="J3" toJunction="J0" end="420" vehsPerHour="464.805610060069"/>
  <flow id="JF171789" begin="360" fromJunction="J0" toJunction="J3" end="420" vehsPerHour="522.6838444605232"/>
  <flow id="JF171790" begin="360" fromJunction="J3" toJunction="J4" end="420" vehsPerHour="136.73433159510387"/>
  <flow id="JF171791" begin="360" fromJunction="J3" toJunction="J7" end="420" vehsPerHour="69.83854977088865"/>
  <flow id="JF171792" begin="360" fromJunction="J3" toJunction="J5" end="420" vehsPerHour="44.65526599499522"/>
  <flow id="JF171793" begin="360" fromJunction="J3" toJunction="J6" end="420" vehsPerHour="98.12683561676754"/>
  <flow id="JF171794" begin="360" fromJunction="J0" toJunction="J4" end="420" vehsPerHour="29.76541714716562"/>
  <flow id="JF171795" begin="360" fromJunction="J0" toJunction="J7" end="420" vehsPerHour="28.37638168266762"/>
  <flow id="JF171796" begin="360" fromJunction="J0" toJunction="J5" end="420" vehsPerHour="114.14212642525366"/>
  <flow id="JF171797" begin="360" fromJunction="J0" toJunction="J6" end="420" vehsPerHour="60.19811624883193"/>
  <flow id="JF171798" begin="420" fromJunction="J3" toJunction="J0" end="480" vehsPerHour="434.7165023740942"/>
  <flow id="JF171799" begin="420" fromJunction="J0" toJunction="J3" end="480" vehsPerHour="201.83574139992675"/>
  <flow id="JF171800" begin="420" fromJunction="J3" toJunction="J4" end="480" vehsPerHour="29.782659015606903"/>
  <flow id="JF171801" begin="420" fromJunction="J3" toJunction="J7" end="480" vehsPerHour="44.55712442369068"/>
  <flow id="JF171802" begin="420" fromJunction="J3" toJunction="J5" end="480" vehsPerHour="54.404378378432405"/>
  <flow id="JF171803" begin="420" fromJunction="J3" toJunction="J6" end="480" vehsPerHour="41.839690090789006"/>
  <flow id="JF171804" begin="420" fromJunction="J0" toJunction="J4" end="480" vehsPerHour="53.27065942752497"/>
  <flow id="JF171805" begin="420" fromJunction="J0" toJunction="J7" end="480" vehsPerHour="81.82077272851906"/>
  <flow id="JF171806" begin="420" fromJunction="J0" toJunction="J5" end="480" vehsPerHour="41.20463668244113"/>
  <flow id="JF171807" begin="420" fromJunction="J0" toJunction="J6" end="480" vehsPerHour="118.77042507742635"/>
  <flow id="JF171808" begin="420" fromJunction="J4" toJunction="J7" end="480" vehsPerHour="14.136103076580673"/>
  <flow id="JF171809" begin="420" fromJunction="J4" toJunction="J5" end="480" vehsPerHour="43.13736922392521"/>
  <flow id="JF171810" begin="420" fromJunction="J4" toJunction="J6" end="480" vehsPerHour="51.60561422761588"/>
  <flow id="JF171811" begin="420" fromJunction="J7" toJunction="J4" end="480" vehsPerHour="64.25702375778442"/>
  <flow id="JF171812" begin="420" fromJunction="J7" toJunction="J5" end="480" vehsPerHour="21.915379718486374"/>
  <flow id="JF171813" begin="420" fromJunction="J7" toJunction="J6" end="480" vehsPerHour="0.4539193956500621"/>
  <flow id="JF171814" begin="420" fromJunction="J5" toJunction="J4" end="480" vehsPerHour="10.14479824819976"/>
  <flow id="JF171815" begin="420" fromJunction="J5" toJunction="J7" end="480" vehsPerHour="27.37958034706301"/>
  <flow id="JF171816" begin="420" fromJunction="J5" toJunction="J6" end="480" vehsPerHour="45.58061229026867"/>
  <flow id="JF171817" begin="420" fromJunction="J6" toJunction="J4" end="480" vehsPerHour="7.888596823255426"/>
  <flow id="JF171818" begin="420" fromJunction="J6" toJunction="J7" end="480" vehsPerHour="25.193348047762836"/>
  <flow id="JF171819" begin="420" fromJunction="J6" toJunction="J5" end="480" vehsPerHour="46.701033272217714"/>
  <flow id="JF171820" begin="420" fromJunction="J4" toJunction="J3" end="480" vehsPerHour="58.047736875765374"/>
  <flow id="JF171821" begin="420" fromJunction="J4" toJunction="J0" end="480" vehsPerHour="30.323759527528885"/>
  <flow id="JF171822" begin="420" fromJunction="J7" toJunction="J3" end="480" vehsPerHour="67.21516113846836"/>
  <flow id="JF171823" begin="420" fromJunction="J7" toJunction="J0" end="480" vehsPerHour="37.12338423144429"/>
  <flow id="JF171824" begin="420" fromJunction="J5" toJunction="J3" end="480" vehsPerHour="6.343317654658897"/>
  <flow id="JF171825" begin="420" fromJunction="J5" toJunction="J0" end="480" vehsPerHour="34.65841658757177"/>
  <flow id="JF171826" begin="420" fromJunction="J6" toJunction="J3" end="480" vehsPerHour="35.378218622273465"/>
  <flow id="JF171827" begin="420" fromJunction="J6" toJunction="J0" end="480" vehsPerHour="50.05576361966343"/>
  <flow id="JF171828" begin="480" fromJunction="J3" toJunction="J0" end="540" vehsPerHour="388.01910955174213"/>
  <flow id="JF171829" begin="480" fromJunction="J0" toJunction="J3" end="540" vehsPerHour="80.21186803087953"/>
  <flow id="JF171830" begin="480" fromJunction="J3" toJunction="J4" end="540" vehsPerHour="15.958535759184121"/>
  <flow id="JF171831" begin="480" fromJunction="J3" toJunction="J7" end="540" vehsPerHour="17.443210906285394"/>
  <flow id="JF171832" begin="480" fromJunction="J3" toJunction="J5" end="540" vehsPerHour="40.847094799905946"/>
  <flow id="JF171833" begin="480" fromJunction="J3" toJunction="J6" end="540" vehsPerHour="28.38261662285985"/>
  <flow id="JF171834" begin="480" fromJunction="J0" toJunction="J4" end="540" vehsPerHour="78.17264776112545"/>
  <flow id="JF171835" begin="480" fromJunction="J0" toJunction="J7" end="540" vehsPerHour="1.6563431986326906"/>
  <flow id="JF171836" begin="480" fromJunction="J0" toJunction="J5" end="540" vehsPerHour="52.18816810420081"/>
  <flow id="JF171837" begin="480" fromJunction="J0" toJunction="J6" end="540" vehsPerHour="61.73776020752716"/>
  <flow id="JF171838" begin="480" fromJunction="J4" toJunction="J7" end="540" vehsPerHour="2.699658820972881"/>
  <flow id="JF171839" begin="480" fromJunction="J4" toJunction="J5" end="540" vehsPerHour="4.382582627978952"/>
  <flow id="JF171840" begin="480" fromJunction="J4" toJunction="J6" end="540" vehsPerHour="22.23580435069032"/>
  <flow id="JF171841" begin="480" fromJunction="J7" toJunction="J4" end="540" vehsPerHour="30.088358935998425"/>
  <flow id="JF171842" begin="480" fromJunction="J7" toJunction="J5" end="540" vehsPerHour="2.359181585151664"/>
  <flow id="JF171843" begin="480" fromJunction="J7" toJunction="J6" end="540" vehsPerHour="30.67242027988931"/>
  <flow id="JF171844" begin="480" fromJunction="J5" toJunction="J4" end="540" vehsPerHour="54.41655378931153"/>
  <flow id="JF171845" begin="480" fromJunction="J5" toJunction="J7" end="540" vehsPerHour="32.43206513397663"/>
  <flow id="JF171846" begin="480" fromJunction="J5" toJunction="J6" end="540" vehsPerHour="14.430587052242027"/>
  <flow id="JF171847" begin="480" fromJunction="J6" toJunction="J4" end="540" vehsPerHour="2.066272287633737"/>
  <flow id="JF171848" begin="480" fromJunction="J6" toJunction="J7" end="540" vehsPerHour="39.508320200656875"/>
  <flow id="JF171849" begin="480" fromJunction="J6" toJunction="J5" end="540" vehsPerHour="28.88465677993311"/>
  <flow id="JF171850" begin="480" fromJunction="J4" toJunction="J3" end="540" vehsPerHour="54.33780957884994"/>
  <flow id="JF171851" begin="480" fromJunction="J4" toJunction="J0" end="540" vehsPerHour="66.02919676557539"/>
  <flow id="JF171852" begin="480" fromJunction="J7" toJunction="J3" end="540" vehsPerHour="40.14088132332838"/>
  <flow id="JF171853" begin="480" fromJunction="J7" toJunction="J0" end="540" vehsPerHour="21.21932291821871"/>
  <flow id="JF171854" begin="480" fromJunction="J5" toJunction="J3" end="540" vehsPerHour="39.54180924806849"/>
  <flow id="JF171855" begin="480" fromJunction="J5" toJunction="J0" end="540" vehsPerHour="29.984338140188704"/>
  <flow id="JF171856" begin="480" fromJunction="J6" toJunction="J3" end="540" vehsPerHour="6.413922840136878"/>
  <flow id="JF171857" begin="480" fromJunction="J6" toJunction="J0" end="540" vehsPerHour="22.799536204373688"/>
  <flow id="JF171858" begin="540" fromJunction="J3" toJunction="J0" end="600" vehsPerHour="402.85670348578833"/>
  <flow id="JF171859" begin="540" fromJunction="J0" toJunction="J3" end="600" vehsPerHour="147.96906584878423"/>
  <flow id="JF171860" begin="540" fromJunction="J3" toJunction="J4" end="600" vehsPerHour="91.15848749030661"/>
  <flow id="JF171861" begin="540" fromJunction="J3" toJunction="J7" end="600" vehsPerHour="63.31392198630354"/>
  <flow id="JF171862" begin="540" fromJunction="J3" toJunction="J5" end="600" vehsPerHour="131.22084051518772"/>
  <flow id="JF171863" begin="540" fromJunction="J3" toJunction="J6" end="600" vehsPerHour="131.91850077478477"/>
  <flow id="JF171864" begin="540" fromJunction="J0" toJunction="J4" end="600" vehsPerHour="83.6054690159125"/>
  <flow id="JF171865" begin="540" fromJunction="J0" toJunction="J7" end="600" vehsPerHour="118.37740062722611"/>
  <flow id="JF171866" begin="540" fromJunction="J0" toJunction="J5" end="600" vehsPerHour="123.92525998797879"/>
  <flow id="JF171867" begin="540" fromJunction="J0" toJunction="J6" end="600" vehsPerHour="20.490778551037742"/>
  <flow id="JF171868" begin="540" fromJunction="J4" toJunction="J7" end="600" vehsPerHour="56.14528134055233"/>
  <flow id="JF171869" begin="540" fromJunction="J4" toJunction="J5" end="600" vehsPerHour="43.33684109596084"/>
  <flow id="JF171870" begin="540" fromJunction="J4" toJunction="J6" end="600" vehsPerHour="2.7167194194106155"/>
  <flow id="JF171871" begin="540" fromJunction="J7" toJunction="J4" end="600" vehsPerHour="68.0264687158647"/>
  <flow id="JF171872" begin="540" fromJunction="J7" toJunction="J5" end="600" vehsPerHour="36.95820342030688"/>
  <flow id="JF171873" begin="540" fromJunction="J7" toJunction="J6" end="600" vehsPerHour="49.62742248543233"/>
  <flow id="JF171874" begin="540" fromJunction="J5" toJunction="J4" end="600" vehsPerHour="46.19993800528239"/>
  <flow id="JF171875" begin="540" fromJunction="J5" toJunction="J7" end="600" vehsPerHour="60.384690101160665"/>
  <flow id="JF171876" begin="540" fromJunction="J5" toJunction="J6" end="600" vehsPerHour="46.25137634026599"/>
  <flow id="JF171877" begin="540" fromJunction="J6" toJunction="J4" end="600" vehsPerHour="28.80707819532538"/>
  <flow id="JF171878" begin="540" fromJunction="J6" toJunction="J7" end="600" vehsPerHour="4.971321943930538"/>
  <flow id="JF171879" begin="540" fromJunction="J6" toJunction="J5" end="600" vehsPerHour="52.50925780150298"/>
  <flow id="JF171880" begin="540" fromJunction="J4" toJunction="J3" end="600" vehsPerHour="18.99492745550424"/>
  <flow id="JF171881" begin="540" fromJunction="J4" toJunction="J0" end="600" vehsPerHour="51.642823502435796"/>
  <flow id="JF171882" begin="540" fromJunction="J7" toJunction="J3" end="600" vehsPerHour="15.301973052651675"/>
  <flow id="JF171883" begin="540" fromJunction="J7" toJunction="J0" end="600" vehsPerHour="39.611805962459506"/>
  <flow id="JF171884" begin="540" fromJunction="J5" toJunction="J3" end="600" vehsPerHour="4.040602469860238"/>
  <flow id="JF171885" begin="540" fromJunction="J5" toJunction="J0" end="600" vehsPerHour="31.366166314837276"/>
  <flow id="JF171886" begin="540" fromJunction="J6" toJunction="J3" end="600" vehsPerHour="6.403466140179597"/>
  <flow id="JF171887" begin="540" fromJunction="J6" toJunction="J0" end="600" vehsPerHour="12.438646259617153"/>
  <flow id="JF171888" begin="600" fromJunction="J3" toJunction="J0" end="660" vehsPerHour="341.01900094488104"/>
  <flow id="JF171889" begin="600" fromJunction="J0" toJunction="J3" end="660" vehsPerHour="410.7195166115651"/>
  <flow id="JF171890" begin="600" fromJunction="J3" toJunction="J4" end="660" vehsPerHour="39.65362476390653"/>
  <flow id="JF171891" begin="600" fromJunction="J3" toJunction="J7" end="660" vehsPerHour="131.63548026612148"/>
  <flow id="JF171892" begin="600" fromJunction="J3" toJunction="J5" end="660" vehsPerHour="35.098503169109115"/>
  <flow id="JF171893" begin="600" fromJunction="J3" toJunction="J6" end="660" vehsPerHour="1.8484922864952231"/>