<?xml version="1.0" encoding="UTF-8"?>
<routes xmlns:xsi="http://www.w3.org/2001/XMLSchema-instance" xsi:noNamespaceSchemaLocation="http://sumo.dlr.de/xsd/routes_file.xsd">
  <flow id="JF190291" begin="0" fromJunction="J3" toJunction="J0" end="60" vehsPerHour="429.78915175688144"/>
  <flow id="JF190292" begin="0" fromJunction="J0" toJunction="J3" end="60" vehsPerHour="337.1830347889138"/>
  <flow id="JF190293" begin="0" fromJunction="J3" toJunction="J4" end="60" vehsPerHour="38.05263663495159"/>
  <flow id="JF190294" begin="0" fromJunction="J3" toJunction="J7" end="60" vehsPerHour="116.17181877201487"/>
  <flow id="JF190295" begin="0" fromJunction="J3" toJunction="J5" end="60" vehsPerHour="99.21800912312044"/>
  <flow id="JF190296" begin="0" fromJunction="J3" toJunction="J6" end="60" vehsPerHour="112.72280294723625"/>
  <flow id="JF190297" begin="0" fromJunction="J0" toJunction="J4" end="60" vehsPerHour="12.460436898207865"/>
  <flow id="JF190298" begin="0" fromJunction="J0" toJunction="J7" end="60" vehsPerHour="96.3880167486389"/>
  <flow id="JF190299" begin="0" fromJunction="J0" toJunction="J5" end="60" vehsPerHour="95.76181995482062"/>
  <flow id="JF190300" begin="0" fromJunction="J0" toJunction="J6" end="60" vehsPerHour="124.05782645558696"/>
  <flow id="JF190301" begin="0" fromJunction="J4" toJunction="J7" end="60" vehsPerHour="36.744216612967016"/>
  <flow id="JF190302" begin="0" fromJunction="J4" toJunction="J5" end="60" vehsPerHour="40.873454183419994"/>
  <flow id="JF190303" begin="0" fromJunction="J4" toJunction="J6" end="60" vehsPerHour="62.46400904208042"/>
  <flow id="JF190304" begin="0" fromJunction="J7" toJunction="J4" end="60" vehsPerHour="50.60942171465573"/>
  <flow id="JF190305" begin="0" fromJunction="J7" toJunction="J5" end="60" vehsPerHour="14.744716112748248"/>
  <flow id="JF190306" begin="0" fromJunction="J7" toJunction="J6" end="60" vehsPerHour="2.055993610045805"/>
  <flow id="JF190307" begin="0" fromJunction="J5" toJunction="J4" end="60" vehsPerHour="0.620790622669132"/>
  <flow id="JF190308" begin="0" fromJunction="J5" toJunction="J7" end="60" vehsPerHour="15.549637639966651"/>
  <flow id="JF190309" begin="0" fromJunction="J5" toJunction="J6" end="60" vehsPerHour="38.34329470937031"/>
  <flow id="JF190310" begin="0" fromJunction="J6" toJunction="J4" end="60" vehsPerHour="35.96916001147357"/>
  <flow id="JF190311" begin="0" fromJunction="J6" toJunction="J7" end="60" vehsPerHour="64.69344710538893"/>
  <flow id="JF190312" begin="0" fromJunction="J6" toJunction="J5" end="60" vehsPerHour="42.51374916116384"/>
  <flow id="JF190313" begin="0" fromJunction="J4" toJunction="J3" end="60" vehsPerHour="21.446503785243152"/>
  <flow id="JF190314" begin="0" fromJunction="J4" toJunction="J0" end="60" vehsPerHour="13.14175424777078"/>
  <flow id="JF190315" begin="0" fromJunction="J7" toJunction="J3" end="60" vehsPerHour="4.445177479907642"/>
  <flow id="JF190316" begin="0" fromJunction="J7" toJunction="J0" end="60" vehsPerHour="18.44525542656198"/>
  <flow id="JF190317" begin="0" fromJunction="J5" toJunction="J3" end="60" vehsPerHour="27.239480096809384"/>
  <flow id="JF190318" begin="0" fromJunction="J5" toJunction="J0" end="60" vehsPerHour="4.913308799456261"/>
  <flow id="JF190319" begin="0" fromJunction="J6" toJunction="J3" end="60" vehsPerHour="55.16863953324046"/>
  <flow id="JF190320" begin="0" fromJunction="J6" toJunction="J0" end="60" vehsPerHour="53.32353035949398"/>
  <flow id="JF190321" begin="60" fromJunction="J3" toJunction="J0" end="120" vehsPerHour="517.955826588367"/>
  <flow id="JF190322" begin="60" fromJunction="J0" toJunction="J3" end="120" vehsPerHour="322.62176395114744"/>
  <flow id="JF190323" begin="60" fromJunction="J3" toJunction="J4" end="120" vehsPerHour="38.22659065945434"/>
  <flow id="JF190324" begin="60" fromJunction="J3" toJunction="J7" end="120" vehsPerHour="116.36503568910427"/>
  <flow id="JF190325" begin="60" fromJunction="J3" toJunction="J5" end="120" vehsPerHour="57.00084842867554"/>
  <flow id="JF190326" begin="60" fromJunction="J3" toJunction="J6" end="120" vehsPerHour="57.4596387458445"/>
  <flow id="JF190327" begin="60" fromJunction="J0" toJunction="J4" end="120" vehsPerHour="104.99622342014368"/>
  <flow id="JF190328" begin="60" fromJunction="J0" toJunction="J7" end="120" vehsPerHour="84.99899075582887"/>
  <flow id="JF190329" begin="60" fromJunction="J0" toJunction="J5" end="120" vehsPerHour="132.8396274078386"/>
  <flow id="JF190330" begin="60" fromJunction="J0" toJunction="J6" end="120" vehsPerHour="56.2739128688778"/>
  <flow id="JF190331" begin="60" fromJunction="J4" toJunction="J7" end="120" vehsPerHour="27.392401651306063"/>
  <flow id="JF190332" begin="60" fromJunction="J4" toJunction="J5" end="120" vehsPerHour="62.82378118312941"/>
  <flow id="JF190333" begin="60" fromJunction="J4" toJunction="J6" end="120" vehsPerHour="64.63781925084454"/>
  <flow id="JF190334" begin="60" fromJunction="J7" toJunction="J4" end="120" vehsPerHour="26.755501563445225"/>
  <flow id="JF190335" begin="60" fromJunction="J7" toJunction="J5" end="120" vehsPerHour="14.48461172024751"/>
  <flow id="JF190336" begin="60" fromJunction="J7" toJunction="J6" end="120" vehsPerHour="54.302401741427886"/>
  <flow id="JF190337" begin="60" fromJunction="J5" toJunction="J4" end="120" vehsPerHour="63.58822610188273"/>
  <flow id="JF190338" begin="60" fromJunction="J5" toJunction="J7" end="120" vehsPerHour="64.25789442008418"/>
  <flow id="JF190339" begin="60" fromJunction="J5" toJunction="J6" end="120" vehsPerHour="35.43781617117919"/>
  <flow id="JF190340" begin="60" fromJunction="J6" toJunction="J4" end="120" vehsPerHour="53.27000613010367"/>
  <flow id="JF190341" begin="60" fromJunction="J6" toJunction="J7" end="120" vehsPerHour="46.41984602481964"/>
  <flow id="JF190342" begin="60" fromJunction="J6" toJunction="J5" end="120" vehsPerHour="24.100852623205803"/>
  <flow id="JF190343" begin="60" fromJunction="J4" toJunction="J3" end="120" vehsPerHour="26.795552781204417"/>
  <flow id="JF190344" begin="60" fromJunction="J4" toJunction="J0" end="120" vehsPerHour="54.06655194729049"/>
  <flow id="JF190345" begin="60" fromJunction="J7" toJunction="J3" end="120" vehsPerHour="18.90517752745988"/>
  <flow id="JF190346" begin="60" fromJunction="J7" toJunction="J0" end="120" vehsPerHour="25.678141434396437"/>
  <flow id="JF190347" begin="60" fromJunction="J5" toJunction="J3" end="120" vehsPerHour="9.951692910787601"/>
  <flow id="JF190348" begin="60" fromJunction="J5" toJunction="J0" end="120" vehsPerHour="54.90865923563616"/>
  <flow id="JF190349" begin="60" fromJunction="J6" toJunction="J3" end="120" vehsPerHour="28.06784872419407"/>
  <flow id="JF190350" begin="60" fromJunction="J6" toJunction="J0" end="120" vehsPerHour="24.975287241607255"/>
  <flow id="JF190351" begin="120" fromJunction="J3" toJunction="J0" end="180" vehsPerHour="339.4244965681194"/>
  <flow id="JF190352" begin="120" fromJunction="J0" toJunction="J3" end="180" vehsPerHour="126.3743770732444"/>
  <flow id="JF190353" begin="120" fromJunction="J3" toJunction="J4" end="180" vehsPerHour="5.375198506335154"/>
  <flow id="JF190354" begin="120" fromJunction="J3" toJunction="J7" end="180" vehsPerHour="102.25845972064737"/>
  <flow id="JF190355" begin="120" fromJunction="J3" toJunction="J5" end="180" vehsPerHour="119.56846582956126"/>
  <flow id="JF190356" begin="120" fromJunction="J3" toJunction="J6" end="180" vehsPerHour="60.4376865476945"/>
  <flow id="JF190357" begin="120" fromJunction="J0" toJunction="J4" end="180" vehsPerHour="112.78572002809273"/>
  <flow id="JF190358" begin="120" fromJunction="J0" toJunction="J7" end="180" vehsPerHour="120.57133105017259"/>
  <flow id="JF190359" begin="120" fromJunction="J0" toJunction="J5" end="180" vehsPerHour="12.06973208393156"/>
  <flow id="JF190360" begin="120" fromJunction="J0" toJunction="J6" end="180" vehsPerHour="9.16075527225806"/>
  <flow id="JF190361" begin="180" fromJunction="J3" toJunction="J0" end="240" vehsPerHour="20.716627006043414"/>
  <flow id="JF190362" begin="180" fromJunction="J0" toJunction="J3" end="240" vehsPerHour="397.7160270301786"/>
  <flow id="JF190363" begin="180" fromJunction="J3" toJunction="J4" end="240" vehsPerHour="100.33713517341171"/>
  <flow id="JF190364" begin="180" fromJunction="J3" toJunction="J7" end="240" vehsPerHour="44.376364450721624"/>
  <flow id="JF190365" begin="180" fromJunction="J3" toJunction="J5" end="240" vehsPerHour="62.07797566837765"/>
  <flow id="JF190366" begin="180" fromJunction="J3" toJunction="J6" end="240" vehsPerHour="92.67238575658409"/>
  <flow id="JF190367" begin="180" fromJunction="J0" toJunction="J4" end="240" vehsPerHour="66.17896164009841"/>
  <flow id="JF190368" begin="180" fromJunction="J0" toJunction="J7" end="240" vehsPerHour="39.307410749173684"/>
  <flow id="JF190369" begin="180" fromJunction="J0" toJunction="J5" end="240" vehsPerHour="35.94264513556953"/>
  <flow id="JF190370" begin="180" fromJunction="J0" toJunction="J6" end="240" vehsPerHour="27.168856770447256"/>
  <flow id="JF190371" begin="240" fromJunction="J3" toJunction="J0" end="300" vehsPerHour="518.6869445192906"/>
  <flow id="JF190372" begin="240" fromJunction="J0" toJunction="J3" end="300" vehsPerHour="152.26319857736274"/>
  <flow id="JF190373" begin="240" fromJunction="J3" toJunction="J4" end="300" vehsPerHour="8.229464950676642"/>
  <flow id="JF190374" begin="240" fromJunction="J3" toJunction="J7" end="300" vehsPerHour="7.432472109149704"/>
  <flow id="JF190375" begin="240" fromJunction="J3" toJunction="J5" end="300" vehsPerHour="102.18501328395838"/>
  <flow id="JF190376" begin="240" fromJunction="J3" toJunction="J6" end="300" vehsPerHour="27.966638531304394"/>
  <flow id="JF190377" begin="240" fromJunction="J0" toJunction="J4" end="300" vehsPerHour="135.05195702050304"/>
  <flow id="JF190378" begin="240" fromJunction="J0" toJunction="J7" end="300" vehsPerHour="26.96672176582332"/>
  <flow id="JF190379" begin="240" fromJunction="J0" toJunction="J5" end="300" vehsPerHour="101.36024374903106"/>
  <flow id="JF190380" begin="240" fromJunction="J0" toJunction="J6" end="300" vehsPerHour="87.33316086200504"/>
  <flow id="JF190381" begin="240" fromJunction="J4" toJunction="J7" end="300" vehsPerHour="64.18579682320564"/>
  <flow id="JF190382" begin="240" fromJunction="J4" toJunction="J5" end="300" vehsPerHour="51.73140136205095"/>
  <flow id="JF190383" begin="240" fromJunction="J4" toJunction="J6" end="300" vehsPerHour="63.16744625916766"/>
  <flow id="JF190384" begin="240" fromJunction="J7" toJunction="J4" end="300" vehsPerHour="19.80478803869451"/>
  <flow id="JF190385" begin="240" fromJunction="J7" toJunction="J5" end="300" vehsPerHour="41.515382985185596"/>
  <flow id="JF190386" begin="240" fromJunction="J7" toJunction="J6" end="300" vehsPerHour="32.51762825498206"/>
  <flow id="JF190387" begin="240" fromJunction="J5" toJunction="J4" end="300" vehsPerHour="40.78726011888982"/>
  <flow id="JF190388" begin="240" fromJunction="J5" toJunction="J7" end="300" vehsPerHour="44.82221480295073"/>
  <flow id="JF190389" begin="240" fromJunction="J5" toJunction="J6" end="300" vehsPerHour="52.35179508245554"/>
  <flow id="JF190390" begin="240" fromJunction="J6" toJunction="J4" end="300" vehsPerHour="35.22097447286939"/>
  <flow id="JF190391" begin="240" fromJunction="J6" toJunction="J7" end="300" vehsPerHour="16.858279073774476"/>
  <flow id="JF190392" begin="240" fromJunction="J6" toJunction="J5" end="300" vehsPerHour="45.292947717936045"/>
  <flow id="JF190393" begin="240" fromJunction="J4" toJunction="J3" end="300" vehsPerHour="68.59092349032412"/>
  <flow id="JF190394" begin="240" fromJunction="J4" toJunction="J0" end="300" vehsPerHour="24.532865023351604"/>
  <flow id="JF190395" begin="240" fromJunction="J7" toJunction="J3" end="300" vehsPerHour="51.755026337443425"/>
  <flow id="JF190396" begin="240" fromJunction="J7" toJunction="J0" end="300" vehsPerHour="38.08953110580833"/>
  <flow id="JF190397" begin="240" fromJunction="J5" toJunction="J3" end="300" vehsPerHour="57.09954660898009"/>
  <flow id="JF190398" begin="240" fromJunction="J5" toJunction="J0" end="300" vehsPerHour="56.28856500979747"/>
  <flow id="JF190399" begin="240" fromJunction="J6" toJunction="J3" end="300" vehsPerHour="4.339972306817955"/>
  <flow id="JF190400" begin="240" fromJunction="J6" toJunction="J0" end="300" vehsPerHour="15.501183380113932"/>
  <flow id="JF190401" begin="300" fromJunction="J3" toJunction="J0" end="360" vehsPerHour="463.277170648492"/>
  <flow id="JF190402" begin="300" fromJunction="J0" toJunction="J3" end="360" vehsPerHour="311.6272056361174"/>
  <flow id="JF190403" begin="300" fromJunction="J3" toJunction="J4" end="360" vehsPerHour="23.02553624107435"/>
  <flow id="JF190404" begin="300" fromJunction="J3" toJunction="J7" end="360" vehsPerHour="92.66349949554727"/>
  <flow id="JF190405" begin="300" fromJunction="J3" toJunction="J5" end="360" vehsPerHour="119.96761643206854"/>
  <flow id="JF190406" begin="300" fromJunction="J3" toJunction="J6" end="360" vehsPerHour="95.25385005721846"/>
  <flow id="JF190407" begin="300" fromJunction="J0" toJunction="J4" end="360" vehsPerHour="102.07832168395569"/>
  <flow id="JF190408" begin="300" fromJunction="J0" toJunction="J7" end="360" vehsPerHour="132.7781049932312"/>
  <flow id="JF190409" begin="300" fromJunction="J0" toJunction="J5" end="360" vehsPerHour="26.199127748567822"/>
  <flow id="JF190410" begin="300" fromJunction="J0" toJunction="J6" end="360" vehsPerHour="42.63619422047397"/>
  <flow id="JF190411" begin="300" fromJunction="J4" toJunction="J7" end="360" vehsPerHour="4.085726946394936"/>
  <flow id="JF190412" begin="300" fromJunction="J4" toJunction="J5" end="360" vehsPerHour="17.23261538418612"/>
  <flow id="JF190413" begin="300" fromJunction="J4" toJunction="J6" end="360" vehsPerHour="1.6188258923125503"/>
  <flow id="JF190414" begin="300" fromJunction="J7" toJunction="J4" end="360" vehsPerHour="12.611566083980568"/>
  <flow id="JF190415" begin="300" fromJunction="J7" toJunction="J5" end="360" vehsPerHour="2.320352214396647"/>
  <flow id="JF190416" begin="300" fromJunction="J7" toJunction="J6" end="360" vehsPerHour="20.550054901237417"/>
  <flow id="JF190417" begin="300" fromJunction="J5" toJunction="J4" end="360" vehsPerHour="55.60925716822036"/>
  <flow id="JF190418" begin="300" fromJunction="J5" toJunction="J7" end="360" vehsPerHour="20.31937471343934"/>
  <flow id="JF190419" begin="300" fromJunction="J5" toJunction="J6" end="360" vehsPerHour="11.934887950940908"/>
  <flow id="JF190420" begin="300" fromJunction="J6" toJunction="J4" end="360" vehsPerHour="13.785418917425138"/>
  <flow id="JF190421" begin="300" fromJunction="J6" toJunction="J7" end="360" vehsPerHour="9.471680894790348"/>
  <flow id="JF190422" begin="300" fromJunction="J6" toJunction="J5" end="360" vehsPerHour="37.63272881771095"/>
  <flow id="JF190423" begin="300" fromJunction="J4" toJunction="J3" end="360" vehsPerHour="3.708955801767852"/>
  <flow id="JF190424" begin="300" fromJunction="J4" toJunction="J0" end="360" vehsPerHour="45.806599848620614"/>
  <flow id="JF190425" begin="300" fromJunction="J7" toJunction="J3" end="360" vehsPerHour="53.23811044513011"/>
  <flow id="JF190426" begin="300" fromJunction="J7" toJunction="J0" end="360" vehsPerHour="26.713212161293907"/>
  <flow id="JF190427" begin="300" fromJunction="J5" toJunction="J3" end="360" vehsPerHour="21.05970012465366"/>
  <flow id="JF190428" begin="300" fromJunction="J5" toJunction="J0" end="360" vehsPerHour="17.721904323540773"/>
  <flow id="JF190429" begin="300" fromJunction="J6" toJunction="J3" end="360" vehsPerHour="22.878411879740213"/>
  <flow id="JF190430" begin="300" fromJunction="J6" toJunction="J0" end="360" vehsPerHour="43.76945871229307"/>
  <flow id="JF190431" begin="360" fromJunction="J3" toJunction="J0" end="420" vehsPerHour="246.4238275247813"/>
  <flow id="JF190432" begin="360" fromJunction="J0" toJunction="J3" end="420" vehsPerHour="140.5796325914822"/>
  <flow id="JF190433" begin="360" fromJunction="J3" toJunction="J4" end="420" vehsPerHour="124.779585511726"/>
  <flow id="JF190434" begin="360" fromJunction="J3" toJunction="J7" end="420" vehsPerHour="9.308346743945478"/>
  <flow id="JF190435" begin="360" fromJunction="J3" toJunction="J5" end="420" vehsPerHour="45.973797368595974"/>
  <flow id="JF190436" begin="360" fromJunction="J3" toJunction="J6" end="420" vehsPerHour="4.848608118413937"/>
  <flow id="JF190437" begin="360" fromJunction="J0" toJunction="J4" end="420" vehsPerHour="5.062072623042089"/>
  <flow id="JF190438" begin="360" fromJunction="J0" toJunction="J7" end="420" vehsPerHour="121.46740538497616"/>
  <flow id="JF190439" begin="360" fromJunction="J0" toJunction="J5" end="420" vehsPerHour="135.13808757959862"/>
  <flow id="JF190440" begin="360" fromJunction="J0" toJunction="J6" end="420" vehsPerHour="111.14531807605364"/>
  <flow id="JF190441" begin="420" fromJunction="J3" toJunction="J0" end="480" vehsPerHour="281.08107669065726"/>
  <flow id="JF190442" begin="420" fromJunction="J0" toJunction="J3" end="480" vehsPerHour="527.6179913667469"/>
  <flow id="JF190443" begin="420" fromJunction="J3" toJunction="J4" end="480" vehsPerHour="107.13821584746485"/>
  <flow id="JF190444" begin="420" fromJunction="J3" toJunction="J7" end="480" vehsPerHour="62.8736509707257"/>
  <flow id="JF190445" begin="420" fromJunction="J3" toJunction="J5" end="480" vehsPerHour="64.81921031296652"/>
  <flow id="JF190446" begin="420" fromJunction="J3" toJunction="J6" end="480" vehsPerHour="8.977645844852084"/>
  <flow id="JF190447" begin="420" fromJunction="J0" toJunction="J4" end="480" vehsPerHour="123.95210689828038"/>
  <flow id="JF190448" begin="420" fromJunction="J0" toJunction="J7" end="480" vehsPerHour="0.22370943740073837"/>
  <flow id="JF190449" begin="420" fromJunction="J0" toJunction="J5" end="480" vehsPerHour="133.20374779661137"/>
  <flow id="JF190450" begin="420" fromJunction="J0" toJunction="J6" end="480" vehsPerHour="81.0946128002471"/>
  <flow id="JF190451" begin="420" fromJunction="J4" toJunction="J7" end="480" vehsPerHour="67.06470869491893"/>
  <flow id="JF190452" begin="420" fromJunction="J4" toJunction="J5" end="480" vehsPerHour="25.68703654029787"/>
  <flow id="JF190453" begin="420" fromJunction="J4" toJunction="J6" end="480" vehsPerHour="54.40752646443864"/>
  <flow id="JF190454" begin="420" fromJunction="J7" toJunction="J4" end="480" vehsPerHour="40.305315998846716"/>
  <flow id="JF190455" begin="420" fromJunction="J7" toJunction="J5" end="480" vehsPerHour="17.881154316304805"/>
  <flow id="JF190456" begin="420" fromJunction="J7" toJunction="J6" end="480" vehsPerHour="40.29387328249888"/>
  <flow id="JF190457" begin="420" fromJunction="J5" toJunction="J4" end="480" vehsPerHour="41.17996105055764"/>
  <flow id="JF190458" begin="420" fromJunction="J5" toJunction="J7" end="480" vehsPerHour="49.29671269006985"/>
  <flow id="JF190459" begin="420" fromJunction="J5" toJunction="J6" end="480" vehsPerHour="31.11563721146511"/>
  <flow id="JF190460" begin="420" fromJunction="J6" toJunction="J4" end="480" vehsPerHour="57.4214537190208"/>
  <flow id="JF190461" begin="420" fromJunction="J6" toJunction="J7" end="480" vehsPerHour="15.013420419543433"/>
  <flow id="JF190462" begin="420" fromJunction="J6" toJunction="J5" end="480" vehsPerHour="9.586597384753194"/>
  <flow id="JF190463" begin="420" fromJunction="J4" toJunction="J3" end="480" vehsPerHour="44.89174224006558"/>
  <flow id="JF190464" begin="420" fromJunction="J4" toJunction="J0" end="480" vehsPerHour="37.958712124489324"/>
  <flow id="JF190465" begin="420" fromJunction="J7" toJunction="J3" end="480" vehsPerHour="54.72224725750644"/>
  <flow id="JF190466" begin="420" fromJunction="J7" toJunction="J0" end="480" vehsPerHour="44.62488117084194"/>
  <flow id="JF190467" begin="420" fromJunction="J5" toJunction="J3" end="480" vehsPerHour="10.270116399167613"/>
  <flow id="JF190468" begin="420" fromJunction="J5" toJunction="J0" end="480" vehsPerHour="42.17362362135024"/>
  <flow id="JF190469" begin="420" fromJunction="J6" toJunction="J3" end="480" vehsPerHour="67.12867340488688"/>
  <flow id="JF190470" begin="420" fromJunction="J6" toJunction="J0" end="480" vehsPerHour="33.19065736710653"/>
  <flow id="JF190471" begin="480" fromJunction="J3" toJunction="J0" end="540" vehsPerHour="435.16103748460324"/>
  <flow id="JF190472" begin="480" fromJunction="J0" toJunction="J3" end="540" vehsPerHour="449.0627061326296"/>
  <flow id="JF190473" begin="480" fromJunction="J3" toJunction="J4" end="540" vehsPerHour="60.69740652092463"/>
  <flow id="JF190474" begin="480" fromJunction="J3" toJunction="J7" end="540" vehsPerHour="10.936160045923465"/>
  <flow id="JF190475" begin="480" fromJunction="J3" toJunction="J5" end="540" vehsPerHour="102.33459457867977"/>
  <flow id="JF190476" begin="480" fromJunction="J3" toJunction="J6" end="540" vehsPerHour="36.64188996535173"/>
  <flow id="JF190477" begin="480" fromJunction="J0" toJunction="J4" end="540" vehsPerHour="17.14648432014882"/>
  <flow id="JF190478" begin="480" fromJunction="J0" toJunction="J7" end="540" vehsPerHour="133.79590691886952"/>
  <flow id="JF190479" begin="480" fromJunction="J0" toJunction="J5" end="540" vehsPerHour="61.974271186958184"/>
  <flow id="JF190480" begin="480" fromJunction="J0" toJunction="J6" end="540" vehsPerHour="16.22788267322667"/>
  <flow id="JF190481" begin="540" fromJunction="J3" toJunction="J0" end="600" vehsPerHour="432.2887837803687"/>
  <flow id="JF190482" begin="540" fromJunction="J0" toJunction="J3" end="600" vehsPerHour="304.84033572311"/>
  <flow id="JF190483" begin="540" fromJunction="J3" toJunction="J4" end="600" vehsPerHour="51.29062039339132"/>
  <flow id="JF190484" begin="540" fromJunction="J3" toJunction="J7" end="600" vehsPerHour="88.0311476447852"/>
  <flow id="JF190485" begin="540" fromJunction="J3" toJunction="J5" end="600" vehsPerHour="112.19546869567877"/>
  <flow id="JF190486" begin="540" fromJunction="J3" toJunction="J6" end="600" vehsPerHour="28.810489354760687"/>
  <flow id="JF190487" begin="540" fromJunction="J0" toJunction="J4" end="600" vehsPerHour="97.96229522934502"/>
  <flow id="JF190488" begin="540" fromJunction="J0" toJunction="J7" end="600" vehsPerHour="60.908396005376325"/>
  <flow id="JF190489" begin="540" fromJunction="J0" toJunction="J5" end="600" vehsPerHour="112.00393514750219"/>
  <flow id="JF190490" begin="540" fromJunction="J0" toJunction="J6" end="600" vehsPerHour="137.13967430050184"/>
  <flow id="JF190491" begin="600" fromJunction="J3" toJunction="J0" end="660" vehsPerHour="5.601893227693559"/>
  <flow id="JF190492" begin="600" fromJunction="J0" toJunction="J3" end="660" vehsPerHour="196.10719063507204"/>
  <flow id="JF190493" begin="600" fromJunction="J3" toJunction="J4" end="660" vehsPerHour="40.968982434505136"/>
  <flow id="JF190494" begin="600" fromJunction="J3" toJunction="J7" end="660" vehsPerHour="8.94308141157435"/>
  <flow id="JF190495" begin="600" fromJunction="J3" toJunction="J5" end="660" vehsPerHour="44.33779735500611"/>
  <flow id="JF190496" begin="600" fromJunction="J3" toJunction="J6" end="660" vehsPerHour="99.02273023400011"/>
  <flow id="JF190497" begin="600" fromJunction="J0" toJunction="J4" end="660" vehsPerHour="69.56853389023229"/>
  <flow id="JF190498" begin="600" fromJunction="J0" toJunction="J7" end="660" vehsPerHour="32.89671136675369"/>
  <flow id="JF190499" begin="600" fromJunction="J0" toJunction="J5" end="660" vehsPerHour="62.11404415414976"/>
  <flow id="JF190500" begin="600" fromJunction="J0" toJunction="J6" end="660" vehsPerHour="5.14159057354416"/>
  <flow id="JF190501" begin="660" fromJunction="J3" toJunction="J0" end="720" vehsPerHour="83.4794364870458"/>
  <flow id="JF190502" begin="660" fromJunction="J0" toJunction="J3" end="720" vehsPerHour="297.90974214548345"/>
  <flow id="JF190503" begin="660" fromJunction="J3" toJunction="J4" end="720" vehsPerHour="7.735232006023728"/>
  <flow id="JF190504" begin="660" fromJunction="J3" toJunction="J7" end="720" vehsPerHour="61.537928984945694"/>
  <flow id="JF190505" begin="660" fromJunction="J3" toJunction="J5" end="720" vehsPerHour="61.5251569491864"/>
  <flow id="JF190506" begin="660" fromJunction="J3" toJunction="J6" end="720" vehsPerHour="18.12601663791285"/>
  <flow id="JF190507" begin="660" fromJunction="J0" toJunction="J4" end="720" vehsPerHour="87.27681757980659"/>
  <flow id="JF190508" begin="660" fromJunction="J0" toJunction="J7" end="720" vehsPerHour="23.91864909451397"/>
  <flow id="JF190509" begin="660" fromJunction="J0" toJunction="J5" end="720" vehsPerHour="93.76580419407375"/>
  <flow id="JF190510" begin="660" fromJunction="J0" toJunction="J6" end="720" vehsPerHour="9.019453399813433"/>
  <flow id="JF190511" begin="660" fromJunction="J4" toJunction="J7" end="720" vehsPerHour="1.6027672927745527"/>
  <flow id="JF190512" begin="660" fromJunction="J4" toJunction="J5" end="720" vehsPerHour="39.22800523923759"/>
  <flow id="JF190513" begin="660" fromJunction="J4" toJunction="J6" end="720" vehsPerHour="6.566070424837804"/>
  <flow id="JF190514" begin="660" fromJunction="J7" toJunction="J4" end="720" vehsPerHour="63.31856372703411"/>
  <flow id="JF190515" begin="660" fromJunction="J7" toJunction="J5" end="720" vehsPerHour="51.91927492418757"/>
  <flow id="JF190516" begin="660" fromJunction="J7" toJunction="J6" end="720" vehsPerHour="21.100877120130225"/>
  <flow id="JF190517" begin="660" fromJunction="J5" toJunction="J4" end="720" vehsPerHour="11.917474242003102"/>
  <flow id="JF190518" begin="660" fromJunction="J5" toJunction="J7" end="720" vehsPerHour="8.486517271362304"/>
  <flow id="JF190519" begin="660" fromJunction="J5" toJunction="J6" end="720" vehsPerHour="30.37676267901384"/>
  <flow id="JF190520" begin="660" fromJunction="J6" toJunction="J4" end="720" vehsPerHour="55.56209750878172"/>
  <flow id="JF190521" begin="660" fromJunction="J6" toJunction="J7" end="720" vehsPerHour="6.974645480613732"/>
  <flow id="JF190522" begin="660" fromJunction="J6" toJunction="J5" end="720" vehsPerHour="45.024462921679294"/>
  <flow id="JF190523" begin="660" fromJunction="J4" toJunction="J3" end="720" vehsPerHour="0.5917191609545216"/>
  <flow id="JF190524" begin="660" fromJunction="J4" toJunction="J0" end="720" vehsPerHour="51.14522999781692"/>
  <flow id="JF190525" begin="660" fromJunction="J7" toJunction="J3" end="720" vehsPerHour="23.232279968693952"/>
  <flow id="JF190526" begin="660" fromJunction="J7" toJunction="J0" end="720" vehsPerHour="43.662090481394294"/>
  <flow id="JF190527" begin="660" fromJunction="J5" toJunction="J3" end="720" vehsPerHour="38.49012278032834"/>
  <flow id="JF190528" begin="660" fromJunction="J5" toJunction="J0" end="720" vehsPerHour="62.132876518284334"/>
  <flow id="JF190529" begin="660" fromJunction="J6" toJunction="J3" end="720" vehsPerHour="46.30384628657821"/>
  <flow id="JF190530" begin="660" fromJunction="J6" toJunction="J0" end="720" vehsPerHour="50.45432689235428"/>
  <flow id="JF190531" begin="720" fromJunction="J3" toJunction="J0" end="780" vehsPerHour="30.3076902146887"/>
  <flow id="JF190532" begin="720" fromJunction="J0" toJunction="J3" end="780" vehsPerHour="446.02268848384404"/>
  <flow id="JF190533" begin="720" fromJunction="J3" toJunction="J4" end="780" vehsPerHour="26.223143358124215"/>
  <flow id="JF190534" begin="720" fromJunction="J3" toJunction="J7" end="780" vehsPerHour="73.05031030338813"/>
  <flow id="JF190535" begin="720" fromJunction="J3" toJunction="J5" end="780" vehsPerHour="95.05591001344868"/>
  <flow id="JF190536" begin="720" fromJunction="J3" toJunction="J6" end="780" vehsPerHour="102.90381581276036"/>
  <flow id="JF190537" begin="720" fromJunction="J0" toJunction="J4" end="780" vehsPerHour="80.10183327978133"/>
  <flow id="JF190538" begin="720" fromJunction="J0" toJunction="J7" end="780" vehsPerHour="132.94889865577676"/>
  <flow id="JF190539" begin="720" fromJunction="J0" toJunction="J5" end="780" vehsPerHour="44.48679596456768"/>
  <flow id="JF190540" begin="720" fromJunction="J0" toJunction="J6" end="780" vehsPerHour="70.364026355367"/>
  <flow id="JF190541" begin="780" fromJunction="J3" toJunction="J0" end="840" vehsPerHour="54.29032145524297"/>
  <flow id="JF190542" begin="780" fromJunction="J0" toJunction="J3" end="840" vehsPerHour="7.738136429527709"/>
  <flow id="JF190543" begin="780" fromJunction="J3" toJunction="J4" end="840" vehsPerHour="113.60540320604176"/>
  <flow id="JF190544" begin="780" fromJunction="J3" toJunction="J7" end="840" vehsPerHour="60.04489441940105"/>
  <flow id="JF190545" begin="780" fromJunction="J3" toJunction="J5" end="840" vehsPerHour="4.594811871022323"/>
  <flow id="JF190546" begin="780" fromJunction="J3" toJunction="J6" end="840" vehsPerHour="56.28509285236072"/>
  <flow id="JF190547" begin="780" fromJunction="J0" toJunction="J4" end="840" vehsPerHour="12.769832237137996"/>
  <flow id="JF190548" begin="780" fromJunction="J0" toJunction="J7" end="840" vehsPerHour="39.50261077764666"/>
  <flow id="JF190549" begin="780" fromJunction="J0" toJunction="J5" end="840" vehsPerHour="106.35957463238361"/>
  <flow id="JF190550" begin="780" fromJunction="J0" toJunction="J6" end="840" vehsPerHour="56.96442598804484"/>
  <flow id="JF190551" begin="780" fromJunction="J4" toJunction="J7" end="840" vehsPerHour="28.44118291309127"/>
  <flow id="JF190552" begin="780" fromJunction="J4" toJunction="J5" end="840" vehsPerHour="62.125592030587654"/>
  <flow id="JF190553" begin="780" fromJunction="J4" toJunction="J6" end="840" vehsPerHour="19.679805687798943"/>
  <flow id="JF190554" begin="780" fromJunction="J7" toJunction="J4" end="840" vehsPerHour="29.190084071139502"/>
  <flow id="JF190555" begin="780" fromJunction="J7" toJunction="J5" end="840" vehsPerHour="20.51200881728707"/>
  <flow id="JF190556" begin="780" fromJunction="J7" toJunction="J6" end="840" vehsPerHour="2.0392946729536785"/>