<?xml version="1.0" encoding="UTF-8"?>
<routes xmlns:xsi="http://www.w3.org/2001/XMLSchema-instance" xsi:noNamespaceSchemaLocation="http://sumo.dlr.de/xsd/routes_file.xsd">
  <flow id="JF179181" begin="0" fromJunction="J3" toJunction="J0" end="60" vehsPerHour="58.35670690655455"/>
  <flow id="JF179182" begin="0" fromJunction="J0" toJunction="J3" end="60" vehsPerHour="471.86482686944953"/>
  <flow id="JF179183" begin="0" fromJunction="J3" toJunction="J4" end="60" vehsPerHour="42.6756998470342"/>
  <flow id="JF179184" begin="0" fromJunction="J3" toJunction="J7" end="60" vehsPerHour="97.82795792782774"/>
  <flow id="JF179185" begin="0" fromJunction="J3" toJunction="J5" end="60" vehsPerHour="77.61010907559348"/>
  <flow id="JF179186" begin="0" fromJunction="J3" toJunction="J6" end="60" vehsPerHour="133.05874862300203"/>
  <flow id="JF179187" begin="0" fromJunction="J0" toJunction="J4" end="60" vehsPerHour="90.65107533767872"/>
  <flow id="JF179188" begin="0" fromJunction="J0" toJunction="J7" end="60" vehsPerHour="109.66013753217605"/>
  <flow id="JF179189" begin="0" fromJunction="J0" toJunction="J5" end="60" vehsPerHour="11.532494480532367"/>
  <flow id="JF179190" begin="0" fromJunction="J0" toJunction="J6" end="60" vehsPerHour="102.89295681889806"/>
  <flow id="JF179191" begin="0" fromJunction="J4" toJunction="J7" end="60" vehsPerHour="17.19417634618734"/>
  <flow id="JF179192" begin="0" fromJunction="J4" toJunction="J5" end="60" vehsPerHour="16.101943399492445"/>
  <flow id="JF179193" begin="0" fromJunction="J4" toJunction="J6" end="60" vehsPerHour="27.184172226233432"/>
  <flow id="JF179194" begin="0" fromJunction="J7" toJunction="J4" end="60" vehsPerHour="4.574007507290703"/>
  <flow id="JF179195" begin="0" fromJunction="J7" toJunction="J5" end="60" vehsPerHour="50.97593838995297"/>
  <flow id="JF179196" begin="0" fromJunction="J7" toJunction="J6" end="60" vehsPerHour="39.32980702383519"/>
  <flow id="JF179197" begin="0" fromJunction="J5" toJunction="J4" end="60" vehsPerHour="2.102543052935255"/>
  <flow id="JF179198" begin="0" fromJunction="J5" toJunction="J7" end="60" vehsPerHour="18.4371607624869"/>
  <flow id="JF179199" begin="0" fromJunction="J5" toJunction="J6" end="60" vehsPerHour="50.304966286277114"/>
  <flow id="JF179200" begin="0" fromJunction="J6" toJunction="J4" end="60" vehsPerHour="53.54813319202735"/>
  <flow id="JF179201" begin="0" fromJunction="J6" toJunction="J7" end="60" vehsPerHour="38.37692011122657"/>
  <flow id="JF179202" begin="0" fromJunction="J6" toJunction="J5" end="60" vehsPerHour="40.7428746483423"/>
  <flow id="JF179203" begin="0" fromJunction="J4" toJunction="J3" end="60" vehsPerHour="0.21719787812386937"/>
  <flow id="JF179204" begin="0" fromJunction="J4" toJunction="J0" end="60" vehsPerHour="45.79797513445518"/>
  <flow id="JF179205" begin="0" fromJunction="J7" toJunction="J3" end="60" vehsPerHour="38.533287138802564"/>
  <flow id="JF179206" begin="0" fromJunction="J7" toJunction="J0" end="60" vehsPerHour="48.913364588256215"/>
  <flow id="JF179207" begin="0" fromJunction="J5" toJunction="J3" end="60" vehsPerHour="35.566937152546195"/>
  <flow id="JF179208" begin="0" fromJunction="J5" toJunction="J0" end="60" vehsPerHour="4.869395033531154"/>
  <flow id="JF179209" begin="0" fromJunction="J6" toJunction="J3" end="60" vehsPerHour="7.277849739204359"/>
  <flow id="JF179210" begin="0" fromJunction="J6" toJunction="J0" end="60" vehsPerHour="66.63980730555267"/>
  <flow id="JF179211" begin="60" fromJunction="J3" toJunction="J0" end="120" vehsPerHour="353.217835039876"/>
  <flow id="JF179212" begin="60" fromJunction="J0" toJunction="J3" end="120" vehsPerHour="384.7737655130924"/>
  <flow id="JF179213" begin="60" fromJunction="J3" toJunction="J4" end="120" vehsPerHour="25.976094088860194"/>
  <flow id="JF179214" begin="60" fromJunction="J3" toJunction="J7" end="120" vehsPerHour="93.64127817585549"/>
  <flow id="JF179215" begin="60" fromJunction="J3" toJunction="J5" end="120" vehsPerHour="85.95267974245284"/>
  <flow id="JF179216" begin="60" fromJunction="J3" toJunction="J6" end="120" vehsPerHour="89.98415542105809"/>
  <flow id="JF179217" begin="60" fromJunction="J0" toJunction="J4" end="120" vehsPerHour="103.46319931542554"/>
  <flow id="JF179218" begin="60" fromJunction="J0" toJunction="J7" end="120" vehsPerHour="6.093535506391653"/>
  <flow id="JF179219" begin="60" fromJunction="J0" toJunction="J5" end="120" vehsPerHour="109.13461227689584"/>
  <flow id="JF179220" begin="60" fromJunction="J0" toJunction="J6" end="120" vehsPerHour="24.561978566517695"/>
  <flow id="JF179221" begin="60" fromJunction="J4" toJunction="J7" end="120" vehsPerHour="38.21655767286872"/>
  <flow id="JF179222" begin="60" fromJunction="J4" toJunction="J5" end="120" vehsPerHour="46.242761444949544"/>
  <flow id="JF179223" begin="60" fromJunction="J4" toJunction="J6" end="120" vehsPerHour="55.81939215803142"/>
  <flow id="JF179224" begin="60" fromJunction="J7" toJunction="J4" end="120" vehsPerHour="22.60711895380901"/>
  <flow id="JF179225" begin="60" fromJunction="J7" toJunction="J5" end="120" vehsPerHour="33.68448256813781"/>
  <flow id="JF179226" begin="60" fromJunction="J7" toJunction="J6" end="120" vehsPerHour="20.03505591156174"/>
  <flow id="JF179227" begin="60" fromJunction="J5" toJunction="J4" end="120" vehsPerHour="47.08988593112813"/>
  <flow id="JF179228" begin="60" fromJunction="J5" toJunction="J7" end="120" vehsPerHour="26.5528419434943"/>
  <flow id="JF179229" begin="60" fromJunction="J5" toJunction="J6" end="120" vehsPerHour="37.18875674543745"/>
  <flow id="JF179230" begin="60" fromJunction="J6" toJunction="J4" end="120" vehsPerHour="46.45757527470631"/>
  <flow id="JF179231" begin="60" fromJunction="J6" toJunction="J7" end="120" vehsPerHour="38.47001443389415"/>
  <flow id="JF179232" begin="60" fromJunction="J6" toJunction="J5" end="120" vehsPerHour="2.2782938583604624"/>
  <flow id="JF179233" begin="60" fromJunction="J4" toJunction="J3" end="120" vehsPerHour="15.971925486879295"/>
  <flow id="JF179234" begin="60" fromJunction="J4" toJunction="J0" end="120" vehsPerHour="52.85042524684326"/>
  <flow id="JF179235" begin="60" fromJunction="J7" toJunction="J3" end="120" vehsPerHour="59.50515924486278"/>
  <flow id="JF179236" begin="60" fromJunction="J7" toJunction="J0" end="120" vehsPerHour="33.75611080867538"/>
  <flow id="JF179237" begin="60" fromJunction="J5" toJunction="J3" end="120" vehsPerHour="0.7917325038474587"/>
  <flow id="JF179238" begin="60" fromJunction="J5" toJunction="J0" end="120" vehsPerHour="2.6215616910432447"/>
  <flow id="JF179239" begin="60" fromJunction="J6" toJunction="J3" end="120" vehsPerHour="52.52014838879077"/>
  <flow id="JF179240" begin="60" fromJunction="J6" toJunction="J0" end="120" vehsPerHour="23.82211400033046"/>
  <flow id="JF179241" begin="120" fromJunction="J3" toJunction="J0" end="180" vehsPerHour="499.9715859746998"/>
  <flow id="JF179242" begin="120" fromJunction="J0" toJunction="J3" end="180" vehsPerHour="165.68347900185864"/>
  <flow id="JF179243" begin="120" fromJunction="J3" toJunction="J4" end="180" vehsPerHour="102.53874562882973"/>
  <flow id="JF179244" begin="120" fromJunction="J3" toJunction="J7" end="180" vehsPerHour="64.74935974670285"/>
  <flow id="JF179245" begin="120" fromJunction="J3" toJunction="J5" end="180" vehsPerHour="124.00671759198876"/>
  <flow id="JF179246" begin="120" fromJunction="J3" toJunction="J6" end="180" vehsPerHour="41.542162408511686"/>
  <flow id="JF179247" begin="120" fromJunction="J0" toJunction="J4" end="180" vehsPerHour="111.41005076204594"/>
  <flow id="JF179248" begin="120" fromJunction="J0" toJunction="J7" end="180" vehsPerHour="45.7585411208758"/>
  <flow id="JF179249" begin="120" fromJunction="J0" toJunction="J5" end="180" vehsPerHour="18.457151094751797"/>
  <flow id="JF179250" begin="120" fromJunction="J0" toJunction="J6" end="180" vehsPerHour="66.74122741193631"/>
  <flow id="JF179251" begin="120" fromJunction="J4" toJunction="J7" end="180" vehsPerHour="68.64351113440901"/>
  <flow id="JF179252" begin="120" fromJunction="J4" toJunction="J5" end="180" vehsPerHour="5.115371166029437"/>
  <flow id="JF179253" begin="120" fromJunction="J4" toJunction="J6" end="180" vehsPerHour="39.646953254284234"/>
  <flow id="JF179254" begin="120" fromJunction="J7" toJunction="J4" end="180" vehsPerHour="14.953463744167502"/>
  <flow id="JF179255" begin="120" fromJunction="J7" toJunction="J5" end="180" vehsPerHour="6.2116605471120065"/>
  <flow id="JF179256" begin="120" fromJunction="J7" toJunction="J6" end="180" vehsPerHour="32.08326217442443"/>
  <flow id="JF179257" begin="120" fromJunction="J5" toJunction="J4" end="180" vehsPerHour="3.28828123203614"/>
  <flow id="JF179258" begin="120" fromJunction="J5" toJunction="J7" end="180" vehsPerHour="19.206435109042154"/>
  <flow id="JF179259" begin="120" fromJunction="J5" toJunction="J6" end="180" vehsPerHour="44.47525969268463"/>
  <flow id="JF179260" begin="120" fromJunction="J6" toJunction="J4" end="180" vehsPerHour="33.32966245244738"/>
  <flow id="JF179261" begin="120" fromJunction="J6" toJunction="J7" end="180" vehsPerHour="45.152534095511086"/>
  <flow id="JF179262" begin="120" fromJunction="J6" toJunction="J5" end="180" vehsPerHour="26.235185627159105"/>
  <flow id="JF179263" begin="120" fromJunction="J4" toJunction="J3" end="180" vehsPerHour="13.9848000280199"/>
  <flow id="JF179264" begin="120" fromJunction="J4" toJunction="J0" end="180" vehsPerHour="29.280456288441076"/>
  <flow id="JF179265" begin="120" fromJunction="J7" toJunction="J3" end="180" vehsPerHour="28.888977052537122"/>
  <flow id="JF179266" begin="120" fromJunction="J7" toJunction="J0" end="180" vehsPerHour="38.648333637890865"/>
  <flow id="JF179267" begin="120" fromJunction="J5" toJunction="J3" end="180" vehsPerHour="37.37161537768065"/>
  <flow id="JF179268" begin="120" fromJunction="J5" toJunction="J0" end="180" vehsPerHour="66.67667727944156"/>
  <flow id="JF179269" begin="120" fromJunction="J6" toJunction="J3" end="180" vehsPerHour="39.603189450483974"/>
  <flow id="JF179270" begin="120" fromJunction="J6" toJunction="J0" end="180" vehsPerHour="50.72204898060169"/>
  <flow id="JF179271" begin="180" fromJunction="J3" toJunction="J0" end="240" vehsPerHour="198.23185061920054"/>
  <flow id="JF179272" begin="180" fromJunction="J0" toJunction="J3" end="240" vehsPerHour="471.2809495362857"/>
  <flow id="JF179273" begin="180" fromJunction="J3" toJunction="J4" end="240" vehsPerHour="122.1082237491362"/>
  <flow id="JF179274" begin="180" fromJunction="J3" toJunction="J7" end="240" vehsPerHour="130.42559420455322"/>
  <flow id="JF179275" begin="180" fromJunction="J3" toJunction="J5" end="240" vehsPerHour="32.3561268649575"/>
  <flow id="JF179276" begin="180" fromJunction="J3" toJunction="J6" end="240" vehsPerHour="63.84889591279243"/>
  <flow id="JF179277" begin="180" fromJunction="J0" toJunction="J4" end="240" vehsPerHour="55.84744714209175"/>
  <flow id="JF179278" begin="180" fromJunction="J0" toJunction="J7" end="240" vehsPerHour="106.40680948362497"/>
  <flow id="JF179279" begin="180" fromJunction="J0" toJunction="J5" end="240" vehsPerHour="79.16689819211204"/>
  <flow id="JF179280" begin="180" fromJunction="J0" toJunction="J6" end="240" vehsPerHour="105.0966605535629"/>
  <flow id="JF179281" begin="180" fromJunction="J4" toJunction="J7" end="240" vehsPerHour="54.29901236336908"/>
  <flow id="JF179282" begin="180" fromJunction="J4" toJunction="J5" end="240" vehsPerHour="19.14866386277651"/>
  <flow id="JF179283" begin="180" fromJunction="J4" toJunction="J6" end="240" vehsPerHour="64.23416402443506"/>
  <flow id="JF179284" begin="180" fromJunction="J7" toJunction="J4" end="240" vehsPerHour="13.502229005065153"/>
  <flow id="JF179285" begin="180" fromJunction="J7" toJunction="J5" end="240" vehsPerHour="28.389481973917157"/>
  <flow id="JF179286" begin="180" fromJunction="J7" toJunction="J6" end="240" vehsPerHour="27.96463450042614"/>
  <flow id="JF179287" begin="180" fromJunction="J5" toJunction="J4" end="240" vehsPerHour="4.579092215249053"/>
  <flow id="JF179288" begin="180" fromJunction="J5" toJunction="J7" end="240" vehsPerHour="58.43518997052427"/>
  <flow id="JF179289" begin="180" fromJunction="J5" toJunction="J6" end="240" vehsPerHour="12.389622278693166"/>
  <flow id="JF179290" begin="180" fromJunction="J6" toJunction="J4" end="240" vehsPerHour="4.825926150817635"/>
  <flow id="JF179291" begin="180" fromJunction="J6" toJunction="J7" end="240" vehsPerHour="67.63066414108428"/>
  <flow id="JF179292" begin="180" fromJunction="J6" toJunction="J5" end="240" vehsPerHour="4.486715170118689"/>
  <flow id="JF179293" begin="180" fromJunction="J4" toJunction="J3" end="240" vehsPerHour="66.1409232652587"/>
  <flow id="JF179294" begin="180" fromJunction="J4" toJunction="J0" end="240" vehsPerHour="65.9525184502824"/>
  <flow id="JF179295" begin="180" fromJunction="J7" toJunction="J3" end="240" vehsPerHour="36.49957808145397"/>
  <flow id="JF179296" begin="180" fromJunction="J7" toJunction="J0" end="240" vehsPerHour="32.93689127106417"/>
  <flow id="JF179297" begin="180" fromJunction="J5" toJunction="J3" end="240" vehsPerHour="43.444656104414626"/>
  <flow id="JF179298" begin="180" fromJunction="J5" toJunction="J0" end="240" vehsPerHour="14.906386169865383"/>
  <flow id="JF179299" begin="180" fromJunction="J6" toJunction="J3" end="240" vehsPerHour="53.866490037509756"/>
  <flow id="JF179300" begin="180" fromJunction="J6" toJunction="J0" end="240" vehsPerHour="38.87482226549448"/>
  <flow id="JF179301" begin="240" fromJunction="J3" toJunction="J0" end="300" vehsPerHour="418.1369229454842"/>
  <flow id="JF179302" begin="240" fromJunction="J0" toJunction="J3" end="300" vehsPerHour="50.483264523008074"/>
  <flow id="JF179303" begin="240" fromJunction="J3" toJunction="J4" end="300" vehsPerHour="103.41400230827723"/>
  <flow id="JF179304" begin="240" fromJunction="J3" toJunction="J7" end="300" vehsPerHour="52.92661585001916"/>
  <flow id="JF179305" begin="240" fromJunction="J3" toJunction="J5" end="300" vehsPerHour="43.57308975444165"/>
  <flow id="JF179306" begin="240" fromJunction="J3" toJunction="J6" end="300" vehsPerHour="101.53912239116393"/>
  <flow id="JF179307" begin="240" fromJunction="J0" toJunction="J4" end="300" vehsPerHour="55.60291580496115"/>
  <flow id="JF179308" begin="240" fromJunction="J0" toJunction="J7" end="300" vehsPerHour="6.293381175876631"/>
  <flow id="JF179309" begin="240" fromJunction="J0" toJunction="J5" end="300" vehsPerHour="108.9607497004031"/>
  <flow id="JF179310" begin="240" fromJunction="J0" toJunction="J6" end="300" vehsPerHour="58.48162706272975"/>
  <flow id="JF179311" begin="240" fromJunction="J4" toJunction="J7" end="300" vehsPerHour="6.276873556645863"/>
  <flow id="JF179312" begin="240" fromJunction="J4" toJunction="J5" end="300" vehsPerHour="49.8244778765972"/>
  <flow id="JF179313" begin="240" fromJunction="J4" toJunction="J6" end="300" vehsPerHour="47.91072238562666"/>
  <flow id="JF179314" begin="240" fromJunction="J7" toJunction="J4" end="300" vehsPerHour="32.329313740643215"/>
  <flow id="JF179315" begin="240" fromJunction="J7" toJunction="J5" end="300" vehsPerHour="2.4432356878872943"/>
  <flow id="JF179316" begin="240" fromJunction="J7" toJunction="J6" end="300" vehsPerHour="7.863073553295239"/>
  <flow id="JF179317" begin="240" fromJunction="J5" toJunction="J4" end="300" vehsPerHour="19.201625805050842"/>
  <flow id="JF179318" begin="240" fromJunction="J5" toJunction="J7" end="300" vehsPerHour="57.61935970497532"/>
  <flow id="JF179319" begin="240" fromJunction="J5" toJunction="J6" end="300" vehsPerHour="68.07699352380212"/>
  <flow id="JF179320" begin="240" fromJunction="J6" toJunction="J4" end="300" vehsPerHour="19.01038250472726"/>
  <flow id="JF179321" begin="240" fromJunction="J6" toJunction="J7" end="300" vehsPerHour="40.37854310079057"/>
  <flow id="JF179322" begin="240" fromJunction="J6" toJunction="J5" end="300" vehsPerHour="20.11649658983476"/>
  <flow id="JF179323" begin="240" fromJunction="J4" toJunction="J3" end="300" vehsPerHour="4.051522029029049"/>
  <flow id="JF179324" begin="240" fromJunction="J4" toJunction="J0" end="300" vehsPerHour="33.99189176900265"/>
  <flow id="JF179325" begin="240" fromJunction="J7" toJunction="J3" end="300" vehsPerHour="5.108657428895387"/>
  <flow id="JF179326" begin="240" fromJunction="J7" toJunction="J0" end="300" vehsPerHour="10.619503126175974"/>
  <flow id="JF179327" begin="240" fromJunction="J5" toJunction="J3" end="300" vehsPerHour="17.765700061889486"/>
  <flow id="JF179328" begin="240" fromJunction="J5" toJunction="J0" end="300" vehsPerHour="12.791702459723208"/>
  <flow id="JF179329" begin="240" fromJunction="J6" toJunction="J3" end="300" vehsPerHour="65.10434463388317"/>
  <flow id="JF179330" begin="240" fromJunction="J6" toJunction="J0" end="300" vehsPerHour="52.44159686113485"/>
  <flow id="JF179331" begin="300" fromJunction="J3" toJunction="J0" end="360" vehsPerHour="539.6174344986449"/>
  <flow id="JF179332" begin="300" fromJunction="J0" toJunction="J3" end="360" vehsPerHour="115.02034598973096"/>
  <flow id="JF179333" begin="300" fromJunction="J3" toJunction="J4" end="360" vehsPerHour="32.81497208721337"/>
  <flow id="JF179334" begin="300" fromJunction="J3" toJunction="J7" end="360" vehsPerHour="1.8954780389722614"/>
  <flow id="JF179335" begin="300" fromJunction="J3" toJunction="J5" end="360" vehsPerHour="100.98361727164814"/>
  <flow id="JF179336" begin="300" fromJunction="J3" toJunction="J6" end="360" vehsPerHour="45.309776206400535"/>
  <flow id="JF179337" begin="300" fromJunction="J0" toJunction="J4" end="360" vehsPerHour="49.97279295426471"/>
  <flow id="JF179338" begin="300" fromJunction="J0" toJunction="J7" end="360" vehsPerHour="3.80919305548506"/>
  <flow id="JF179339" begin="300" fromJunction="J0" toJunction="J5" end="360" vehsPerHour="44.50420069462532"/>
  <flow id="JF179340" begin="300" fromJunction="J0" toJunction="J6" end="360" vehsPerHour="36.97433733125141"/>
  <flow id="JF179341" begin="360" fromJunction="J3" toJunction="J0" end="420" vehsPerHour="494.2078788716078"/>
  <flow id="JF179342" begin="360" fromJunction="J0" toJunction="J3" end="420" vehsPerHour="100.65205996757729"/>
  <flow id="JF179343" begin="360" fromJunction="J3" toJunction="J4" end="420" vehsPerHour="118.9005596965193"/>
  <flow id="JF179344" begin="360" fromJunction="J3" toJunction="J7" end="420" vehsPerHour="39.18122418946647"/>
  <flow id="JF179345" begin="360" fromJunction="J3" toJunction="J5" end="420" vehsPerHour="8.139742983023917"/>
  <flow id="JF179346" begin="360" fromJunction="J3" toJunction="J6" end="420" vehsPerHour="133.4123647642783"/>
  <flow id="JF179347" begin="360" fromJunction="J0" toJunction="J4" end="420" vehsPerHour="114.18639803687348"/>
  <flow id="JF179348" begin="360" fromJunction="J0" toJunction="J7" end="420" vehsPerHour="38.41501498133068"/>
  <flow id="JF179349" begin="360" fromJunction="J0" toJunction="J5" end="420" vehsPerHour="19.871875507513323"/>
  <flow id="JF179350" begin="360" fromJunction="J0" toJunction="J6" end="420" vehsPerHour="82.1122320250785"/>
  <flow id="JF179351" begin="360" fromJunction="J4" toJunction="J7" end="420" vehsPerHour="31.63202563764924"/>
  <flow id="JF179352" begin="360" fromJunction="J4" toJunction="J5" end="420" vehsPerHour="68.28361455047916"/>
  <flow id="JF179353" begin="360" fromJunction="J4" toJunction="J6" end="420" vehsPerHour="17.195837571186775"/>
  <flow id="JF179354" begin="360" fromJunction="J7" toJunction="J4" end="420" vehsPerHour="22.202174413574735"/>
  <flow id="JF179355" begin="360" fromJunction="J7" toJunction="J5" end="420" vehsPerHour="23.337434983456376"/>
  <flow id="JF179356" begin="360" fromJunction="J7" toJunction="J6" end="420" vehsPerHour="30.040471375019525"/>
  <flow id="JF179357" begin="360" fromJunction="J5" toJunction="J4" end="420" vehsPerHour="13.75652081626079"/>
  <flow id="JF179358" begin="360" fromJunction="J5" toJunction="J7" end="420" vehsPerHour="20.344150521202543"/>
  <flow id="JF179359" begin="360" fromJunction="J5" toJunction="J6" end="420" vehsPerHour="16.754823937780344"/>
  <flow id="JF179360" begin="360" fromJunction="J6" toJunction="J4" end="420" vehsPerHour="2.6219695587461818"/>
  <flow id="JF179361" begin="360" fromJunction="J6" toJunction="J7" end="420" vehsPerHour="33.77319619867563"/>
  <flow id="JF179362" begin="360" fromJunction="J6" toJunction="J5" end="420" vehsPerHour="9.628416503075792"/>
  <flow id="JF179363" begin="360" fromJunction="J4" toJunction="J3" end="420" vehsPerHour="13.414631332820994"/>
  <flow id="JF179364" begin="360" fromJunction="J4" toJunction="J0" end="420" vehsPerHour="41.19360444101596"/>
  <flow id="JF179365" begin="360" fromJunction="J7" toJunction="J3" end="420" vehsPerHour="59.93040234086319"/>
  <flow id="JF179366" begin="360" fromJunction="J7" toJunction="J0" end="420" vehsPerHour="17.1481320209739"/>
  <flow id="JF179367" begin="360" fromJunction="J5" toJunction="J3" end="420" vehsPerHour="19.75115453452003"/>
  <flow id="JF179368" begin="360" fromJunction="J5" toJunction="J0" end="420" vehsPerHour="0.9037391403516671"/>
  <flow id="JF179369" begin="360" fromJunction="J6" toJunction="J3" end="420" vehsPerHour="59.560943032623605"/>
  <flow id="JF179370" begin="360" fromJunction="J6" toJunction="J0" end="420" vehsPerHour="16.474296926824223"/>
  <flow id="JF179371" begin="420" fromJunction="J3" toJunction="J0" end="480" vehsPerHour="68.19507023739042"/>
  <flow id="JF179372" begin="420" fromJunction="J0" toJunction="J3" end="480" vehsPerHour="163.57529758115518"/>
  <flow id="JF179373" begin="420" fromJunction="J3" toJunction="J4" end="480" vehsPerHour="101.39419877593673"/>
  <flow id="JF179374" begin="420" fromJunction="J3" toJunction="J7" end="480" vehsPerHour="7.135095358637425"/>
  <flow id="JF179375" begin="420" fromJunction="J3" toJunction="J5" end="480" vehsPerHour="0.7447384736584703"/>
  <flow id="JF179376" begin="420" fromJunction="J3" toJunction="J6" end="480" vehsPerHour="133.22388215630417"/>
  <flow id="JF179377" begin="420" fromJunction="J0" toJunction="J4" end="480" vehsPerHour="110.57172446526013"/>
  <flow id="JF179378" begin="420" fromJunction="J0" toJunction="J7" end="480" vehsPerHour="98.48019361472005"/>
  <flow id="JF179379" begin="420" fromJunction="J0" toJunction="J5" end="480" vehsPerHour="33.64007980204727"/>
  <flow id="JF179380" begin="420" fromJunction="J0" toJunction="J6" end="480" vehsPerHour="99.06264621470228"/>
  <flow id="JF179381" begin="420" fromJunction="J4" toJunction="J7" end="480" vehsPerHour="27.719200224495175"/>
  <flow id="JF179382" begin="420" fromJunction="J4" toJunction="J5" end="480" vehsPerHour="30.548750054911284"/>
  <flow id="JF179383" begin="420" fromJunction="J4" toJunction="J6" end="480" vehsPerHour="38.21348053174167"/>
  <flow id="JF179384" begin="420" fromJunction="J7" toJunction="J4" end="480" vehsPerHour="53.98659257344441"/>
  <flow id="JF179385" begin="420" fromJunction="J7" toJunction="J5" end="480" vehsPerHour="68.68388644329694"/>
  <flow id="JF179386" begin="420" fromJunction="J7" toJunction="J6" end="480" vehsPerHour="30.637178024027122"/>
  <flow id="JF179387" begin="420" fromJunction="J5" toJunction="J4" end="480" vehsPerHour="45.841320713092344"/>
  <flow id="JF179388" begin="420" fromJunction="J5" toJunction="J7" end="480" vehsPerHour="30.59790753909548"/>
  <flow id="JF179389" begin="420" fromJunction="J5" toJunction="J6" end="480" vehsPerHour="46.356583787805725"/>
  <flow id="JF179390" begin="420" fromJunction="J6" toJunction="J4" end="480" vehsPerHour="5.928630747341171"/>
  <flow id="JF179391" begin="420" fromJunction="J6" toJunction="J7" end="480" vehsPerHour="52.26225885289597"/>
  <flow id="JF179392" begin="420" fromJunction="J6" toJunction="J5" end="480" vehsPerHour="23.058551478149464"/>
  <flow id="JF179393" begin="420" fromJunction="J4" toJunction="J3" end="480" vehsPerHour="16.887952335807388"/>
  <flow id="JF179394" begin="420" fromJunction="J4" toJunction="J0" end="480" vehsPerHour="64.3682096459549"/>
  <flow id="JF179395" begin="420" fromJunction="J7" toJunction="J3" end="480" vehsPerHour="8.312655332556488"/>
  <flow id="JF179396" begin="420" fromJunction="J7" toJunction="J0" end="480" vehsPerHour="16.571707189822703"/>
  <flow id="JF179397" begin="420" fromJunction="J5" toJunction="J3" end="480" vehsPerHour="15.383921160380922"/>
  <flow id="JF179398" begin="420" fromJunction="J5" toJunction="J0" end="480" vehsPerHour="7.763177388763042"/>
  <flow id="JF179399" begin="420" fromJunction="J6" toJunction="J3" end="480" vehsPerHour="26.76035265451527"/>
  <flow id="JF179400" begin="420" fromJunction="J6" toJunction="J0" end="480" vehsPerHour="56.42297814414701"/>
  <flow id="JF179401" begin="480" fromJunction="J3" toJunction="J0" end="540" vehsPerHour="69.50748910272394"/>
  <flow id="JF179402" begin="480" fromJunction="J0" toJunction="J3" end="540" vehsPerHour="485.9770687960855"/>
  <flow id="JF179403" begin="480" fromJunction="J3" toJunction="J4" end="540" vehsPerHour="73.44532575711644"/>
  <flow id="JF179404" begin="480" fromJunction="J3" toJunction="J7" end="540" vehsPerHour="117.77770846817334"/>
  <flow id="JF179405" begin="480" fromJunction="J3" toJunction="J5" end="540" vehsPerHour="24.151922146691945"/>
  <flow id="JF179406" begin="480" fromJunction="J3" toJunction="J6" end="540" vehsPerHour="100.90152641970654"/>
  <flow id="JF179407" begin="480" fromJunction="J0" toJunction="J4" end="540" vehsPerHour="10.8431126519324"/>
  <flow id="JF179408" begin="480" fromJunction="J0" toJunction="J7" end="540" vehsPerHour="20.464017086203615"/>
  <flow id="JF179409" begin="480" fromJunction="J0" toJunction="J5" end="540" vehsPerHour="96.37166696382235"/>
  <flow id="JF179410" begin="480" fromJunction="J0" toJunction="J6" end="540" vehsPerHour="78.81237597153329"/>
  <flow id="JF179411" begin="540" fromJunction="J3" toJunction="J0" end="600" vehsPerHour="321.9985203279345"/>
  <flow id="JF179412" begin="540" fromJunction="J0" toJunction="J3" end="600" vehsPerHour="364.2164717526755"/>
  <flow id="JF179413" begin="540" fromJunction="J3" toJunction="J4" end="600" vehsPerHour="43.7200172714839"/>
  <flow id="JF179414" begin="540" fromJunction="J3" toJunction="J7" end="600" vehsPerHour="41.325645038554065"/>
  <flow id="JF179415" begin="540" fromJunction="J3" toJunction="J5" end="600" vehsPerHour="11.310828472363243"/>
  <flow id="JF179416" begin="540" fromJunction="J3" toJunction="J6" end="600" vehsPerHour="31.591460085474132"/>
  <flow id="JF179417" begin="540" fromJunction="J0" toJunction="J4" end="600" vehsPerHour="72.71695010511176"/>
  <flow id="JF179418" begin="540" fromJunction="J0" toJunction="J7" end="600" vehsPerHour="32.789984831198524"/>
  <flow id="JF179419" begin="540" fromJunction="J0" toJunction="J5" end="600" vehsPerHour="42.58022406204695"/>
  <flow id="JF179420" begin="540" fromJunction="J0" toJunction="J6" end="600" vehsPerHour="39.87316872914418"/>
  <flow id="JF179421" begin="540" fromJunction="J4" toJunction="J7" end="600" vehsPerHour="55.297468163064956"/>
  <flow id="JF179422" begin="540" fromJunction="J4" toJunction="J5" end="600" vehsPerHour="37.66733071560693"/>
  <flow id="JF179423" begin="540" fromJunction="J4" toJunction="J6" end="600" vehsPerHour="60.55179821687086"/>
  <flow id="JF179424" begin="540" fromJunction="J7" toJunction="J4" end="600" vehsPerHour="5.323315896861512"/>
  <flow id="JF179425" begin="540" fromJunction="J7" toJunction="J5" end="600" vehsPerHour="12.455528714782993"/>
  <flow id="JF179426" begin="540" fromJunction="J7" toJunction="J6" end="600" vehsPerHour="22.11887508698565"/>
  <flow id="JF179427" begin="540" fromJunction="J5" toJunction="J4" end="600" vehsPerHour="34.27251592166134"/>
  <flow id="JF179428" begin="540" fromJunction="J5" toJunction="J7" end="600" vehsPerHour="39.22365497445389"/>
  <flow id="JF179429" begin="540" fromJunction="J5" toJunction="J6" end="600" vehsPerHour="38.44133227759803"/>
  <flow id="JF179430" begin="540" fromJunction="J6" toJunction="J4" end="600" vehsPerHour="63.48612648400049"/>
  <flow id="JF179431" begin="540" fromJunction="J6" toJunction="J7" end="600" vehsPerHour="13.963196632279095"/>
  <flow id="JF179432" begin="540" fromJunction="J6" toJunction="J5" end="600" vehsPerHour="38.84377755772751"/>
  <flow id="JF179433" begin="540" fromJunction="J4" toJunction="J3" end="600" vehsPerHour="4.640084733000932"/>
  <flow id="JF179434" begin="540" fromJunction="J4" toJunction="J0" end="600" vehsPerHour="2.398596280553147"/>
  <flow id="JF179435" begin="540" fromJunction="J7" toJunction="J3" end="600" vehsPerHour="59.51320606052814"/>
  <flow id="JF179436" begin="540" fromJunction="J7" toJunction="J0" end="600" vehsPerHour="40.83389758578305"/>
  <flow id="JF179437" begin="540" fromJunction="J5" toJunction="J3" end="600" vehsPerHour="68.57833141736492"/>
  <flow id="JF179438" begin="540" fromJunction="J5" toJunction="J0" end="600" vehsPerHour="19.17793804470557"/>
  <flow id="JF179439" begin="540" fromJunction="J6" toJunction="J3" end="600" vehsPerHour="12.453055503428741"/>
  <flow id="JF179440" begin="540" fromJunction="J6" toJunction="J0" end="600" vehsPerHour="18.14663567174593"/>
  <flow id="JF179441" begin="600" fromJunction="J3" toJunction="J0" end="660" vehsPerHour="507.2232159149039"/>
  <flow id="JF179442" begin="600" fromJunction="J0" toJunction="J3" end="660" vehsPerHour="341.833365401349"/>
  <flow id="JF179443" begin="600" fromJunction="J3" toJunction="J4" end="660" vehsPerHour="106.28210328243954"/>
  <flow id="JF179444" begin="600" fromJunction="J3" toJunction="J7" end="660" vehsPerHour="125.976337704491"/>
  <flow id="JF179445" begin="600" fromJunction="J3" toJunction="J5" end="660" vehsPerHour="78.26939879048363"/>
  <flow id="JF179446" begin="600" fromJunction="J3" toJunction="J6" end="660" vehsPerHour="95.94600915910476"/>