<?xml version="1.0" encoding="UTF-8"?>
<routes xmlns:xsi="http://www.w3.org/2001/XMLSchema-instance" xsi:noNamespaceSchemaLocation="http://sumo.dlr.de/xsd/routes_file.xsd">
  <flow id="JF182789" begin="0" fromJunction="J3" toJunction="J0" end="60" vehsPerHour="88.82124972451085"/>
  <flow id="JF182790" begin="0" fromJunction="J0" toJunction="J3" end="60" vehsPerHour="405.37414113879373"/>
  <flow id="JF182791" begin="0" fromJunction="J3" toJunction="J4" end="60" vehsPerHour="28.41681043191018"/>
  <flow id="JF182792" begin="0" fromJunction="J3" toJunction="J7" end="60" vehsPerHour="113.03183995352525"/>
  <flow id="JF182793" begin="0" fromJunction="J3" toJunction="J5" end="60" vehsPerHour="68.92216634010956"/>
  <flow id="JF182794" begin="0" fromJunction="J3" toJunction="J6" end="60" vehsPerHour="51.758518714921856"/>
  <flow id="JF182795" begin="0" fromJunction="J0" toJunction="J4" end="60" vehsPerHour="108.13392951314597"/>
  <flow id="JF182796" begin="0" fromJunction="J0" toJunction="J7" end="60" vehsPerHour="22.410247118662838"/>
  <flow id="JF182797" begin="0" fromJunction="J0" toJunction="J5" end="60" vehsPerHour="64.1812040922471"/>
  <flow id="JF182798" begin="0" fromJunction="J0" toJunction="J6" end="60" vehsPerHour="128.12562728132662"/>
  <flow id="JF182799" begin="60" fromJunction="J3" toJunction="J0" end="120" vehsPerHour="94.49293196972057"/>
  <flow id="JF182800" begin="60" fromJunction="J0" toJunction="J3" end="120" vehsPerHour="175.84213026949604"/>
  <flow id="JF182801" begin="60" fromJunction="J3" toJunction="J4" end="120" vehsPerHour="68.34322842738597"/>
  <flow id="JF182802" begin="60" fromJunction="J3" toJunction="J7" end="120" vehsPerHour="47.82490976360508"/>
  <flow id="JF182803" begin="60" fromJunction="J3" toJunction="J5" end="120" vehsPerHour="47.843948081089735"/>
  <flow id="JF182804" begin="60" fromJunction="J3" toJunction="J6" end="120" vehsPerHour="30.333263722173943"/>
  <flow id="JF182805" begin="60" fromJunction="J0" toJunction="J4" end="120" vehsPerHour="26.845206208824393"/>
  <flow id="JF182806" begin="60" fromJunction="J0" toJunction="J7" end="120" vehsPerHour="57.952141605137335"/>
  <flow id="JF182807" begin="60" fromJunction="J0" toJunction="J5" end="120" vehsPerHour="21.259672482003715"/>
  <flow id="JF182808" begin="60" fromJunction="J0" toJunction="J6" end="120" vehsPerHour="62.98417762399053"/>
  <flow id="JF182809" begin="120" fromJunction="J3" toJunction="J0" end="180" vehsPerHour="347.48076268553825"/>
  <flow id="JF182810" begin="120" fromJunction="J0" toJunction="J3" end="180" vehsPerHour="112.50936126843361"/>
  <flow id="JF182811" begin="120" fromJunction="J3" toJunction="J4" end="180" vehsPerHour="0.3064780456796491"/>
  <flow id="JF182812" begin="120" fromJunction="J3" toJunction="J7" end="180" vehsPerHour="51.4416109788251"/>
  <flow id="JF182813" begin="120" fromJunction="J3" toJunction="J5" end="180" vehsPerHour="88.43650090522125"/>
  <flow id="JF182814" begin="120" fromJunction="J3" toJunction="J6" end="180" vehsPerHour="13.527887491099797"/>
  <flow id="JF182815" begin="120" fromJunction="J0" toJunction="J4" end="180" vehsPerHour="39.844874763799744"/>
  <flow id="JF182816" begin="120" fromJunction="J0" toJunction="J7" end="180" vehsPerHour="25.308399082940547"/>
  <flow id="JF182817" begin="120" fromJunction="J0" toJunction="J5" end="180" vehsPerHour="120.35026927400033"/>
  <flow id="JF182818" begin="120" fromJunction="J0" toJunction="J6" end="180" vehsPerHour="22.61268492109029"/>
  <flow id="JF182819" begin="120" fromJunction="J4" toJunction="J7" end="180" vehsPerHour="60.28499399174764"/>
  <flow id="JF182820" begin="120" fromJunction="J4" toJunction="J5" end="180" vehsPerHour="37.9262663927387"/>
  <flow id="JF182821" begin="120" fromJunction="J4" toJunction="J6" end="180" vehsPerHour="64.17704851551821"/>
  <flow id="JF182822" begin="120" fromJunction="J7" toJunction="J4" end="180" vehsPerHour="20.425175819433107"/>
  <flow id="JF182823" begin="120" fromJunction="J7" toJunction="J5" end="180" vehsPerHour="58.09632397527397"/>
  <flow id="JF182824" begin="120" fromJunction="J7" toJunction="J6" end="180" vehsPerHour="1.7150568597666418"/>
  <flow id="JF182825" begin="120" fromJunction="J5" toJunction="J4" end="180" vehsPerHour="20.02107514519112"/>
  <flow id="JF182826" begin="120" fromJunction="J5" toJunction="J7" end="180" vehsPerHour="61.2761477559005"/>
  <flow id="JF182827" begin="120" fromJunction="J5" toJunction="J6" end="180" vehsPerHour="7.608382194023398"/>
  <flow id="JF182828" begin="120" fromJunction="J6" toJunction="J4" end="180" vehsPerHour="25.49450632091704"/>
  <flow id="JF182829" begin="120" fromJunction="J6" toJunction="J7" end="180" vehsPerHour="22.853484350203114"/>
  <flow id="JF182830" begin="120" fromJunction="J6" toJunction="J5" end="180" vehsPerHour="43.48610297272789"/>
  <flow id="JF182831" begin="120" fromJunction="J4" toJunction="J3" end="180" vehsPerHour="13.465526130176958"/>
  <flow id="JF182832" begin="120" fromJunction="J4" toJunction="J0" end="180" vehsPerHour="44.63083684570375"/>
  <flow id="JF182833" begin="120" fromJunction="J7" toJunction="J3" end="180" vehsPerHour="58.41563892057226"/>
  <flow id="JF182834" begin="120" fromJunction="J7" toJunction="J0" end="180" vehsPerHour="31.080834079970774"/>
  <flow id="JF182835" begin="120" fromJunction="J5" toJunction="J3" end="180" vehsPerHour="13.629060759766201"/>
  <flow id="JF182836" begin="120" fromJunction="J5" toJunction="J0" end="180" vehsPerHour="63.63053513591517"/>
  <flow id="JF182837" begin="120" fromJunction="J6" toJunction="J3" end="180" vehsPerHour="39.87520866981216"/>
  <flow id="JF182838" begin="120" fromJunction="J6" toJunction="J0" end="180" vehsPerHour="67.50236992179443"/>
  <flow id="JF182839" begin="180" fromJunction="J3" toJunction="J0" end="240" vehsPerHour="279.9297192739493"/>
  <flow id="JF182840" begin="180" fromJunction="J0" toJunction="J3" end="240" vehsPerHour="184.70001868315344"/>
  <flow id="JF182841" begin="180" fromJunction="J3" toJunction="J4" end="240" vehsPerHour="74.55425803938378"/>
  <flow id="JF182842" begin="180" fromJunction="J3" toJunction="J7" end="240" vehsPerHour="94.76728543099232"/>
  <flow id="JF182843" begin="180" fromJunction="J3" toJunction="J5" end="240" vehsPerHour="42.99887193540437"/>
  <flow id="JF182844" begin="180" fromJunction="J3" toJunction="J6" end="240" vehsPerHour="50.20538703618132"/>
  <flow id="JF182845" begin="180" fromJunction="J0" toJunction="J4" end="240" vehsPerHour="65.23309394630607"/>
  <flow id="JF182846" begin="180" fromJunction="J0" toJunction="J7" end="240" vehsPerHour="130.18461926055204"/>
  <flow id="JF182847" begin="180" fromJunction="J0" toJunction="J5" end="240" vehsPerHour="71.53271115747835"/>
  <flow id="JF182848" begin="180" fromJunction="J0" toJunction="J6" end="240" vehsPerHour="94.55863789369073"/>
  <flow id="JF182849" begin="180" fromJunction="J4" toJunction="J7" end="240" vehsPerHour="59.72399194616628"/>
  <flow id="JF182850" begin="180" fromJunction="J4" toJunction="J5" end="240" vehsPerHour="21.07155874546268"/>
  <flow id="JF182851" begin="180" fromJunction="J4" toJunction="J6" end="240" vehsPerHour="30.770267490473596"/>
  <flow id="JF182852" begin="180" fromJunction="J7" toJunction="J4" end="240" vehsPerHour="50.24697255722483"/>
  <flow id="JF182853" begin="180" fromJunction="J7" toJunction="J5" end="240" vehsPerHour="65.00461955948099"/>
  <flow id="JF182854" begin="180" fromJunction="J7" toJunction="J6" end="240" vehsPerHour="15.430716214336885"/>
  <flow id="JF182855" begin="180" fromJunction="J5" toJunction="J4" end="240" vehsPerHour="51.96041241416628"/>
  <flow id="JF182856" begin="180" fromJunction="J5" toJunction="J7" end="240" vehsPerHour="66.42173140602317"/>
  <flow id="JF182857" begin="180" fromJunction="J5" toJunction="J6" end="240" vehsPerHour="53.90910968758076"/>
  <flow id="JF182858" begin="180" fromJunction="J6" toJunction="J4" end="240" vehsPerHour="58.879891401599224"/>
  <flow id="JF182859" begin="180" fromJunction="J6" toJunction="J7" end="240" vehsPerHour="41.940655236073255"/>
  <flow id="JF182860" begin="180" fromJunction="J6" toJunction="J5" end="240" vehsPerHour="28.45849530783807"/>
  <flow id="JF182861" begin="180" fromJunction="J4" toJunction="J3" end="240" vehsPerHour="16.88178762601382"/>
  <flow id="JF182862" begin="180" fromJunction="J4" toJunction="J0" end="240" vehsPerHour="55.95490863950392"/>
  <flow id="JF182863" begin="180" fromJunction="J7" toJunction="J3" end="240" vehsPerHour="17.169425582154876"/>
  <flow id="JF182864" begin="180" fromJunction="J7" toJunction="J0" end="240" vehsPerHour="16.86333873227595"/>
  <flow id="JF182865" begin="180" fromJunction="J5" toJunction="J3" end="240" vehsPerHour="21.988844477033375"/>
  <flow id="JF182866" begin="180" fromJunction="J5" toJunction="J0" end="240" vehsPerHour="26.44035179589513"/>
  <flow id="JF182867" begin="180" fromJunction="J6" toJunction="J3" end="240" vehsPerHour="27.836534748121593"/>
  <flow id="JF182868" begin="180" fromJunction="J6" toJunction="J0" end="240" vehsPerHour="37.55998043770669"/>
  <flow id="JF182869" begin="240" fromJunction="J3" toJunction="J0" end="300" vehsPerHour="134.50744903995184"/>
  <flow id="JF182870" begin="240" fromJunction="J0" toJunction="J3" end="300" vehsPerHour="421.73805160221445"/>
  <flow id="JF182871" begin="240" fromJunction="J3" toJunction="J4" end="300" vehsPerHour="98.26102168363752"/>
  <flow id="JF182872" begin="240" fromJunction="J3" toJunction="J7" end="300" vehsPerHour="89.6409851236827"/>
  <flow id="JF182873" begin="240" fromJunction="J3" toJunction="J5" end="300" vehsPerHour="82.9658850625956"/>
  <flow id="JF182874" begin="240" fromJunction="J3" toJunction="J6" end="300" vehsPerHour="62.763308456146994"/>
  <flow id="JF182875" begin="240" fromJunction="J0" toJunction="J4" end="300" vehsPerHour="52.55250782982126"/>
  <flow id="JF182876" begin="240" fromJunction="J0" toJunction="J7" end="300" vehsPerHour="47.018835345208366"/>
  <flow id="JF182877" begin="240" fromJunction="J0" toJunction="J5" end="300" vehsPerHour="5.114672840980632"/>
  <flow id="JF182878" begin="240" fromJunction="J0" toJunction="J6" end="300" vehsPerHour="107.97997582738938"/>
  <flow id="JF182879" begin="240" fromJunction="J4" toJunction="J7" end="300" vehsPerHour="29.274973190423076"/>
  <flow id="JF182880" begin="240" fromJunction="J4" toJunction="J5" end="300" vehsPerHour="51.482490611679026"/>
  <flow id="JF182881" begin="240" fromJunction="J4" toJunction="J6" end="300" vehsPerHour="2.7795543569681525"/>
  <flow id="JF182882" begin="240" fromJunction="J7" toJunction="J4" end="300" vehsPerHour="63.635483146367555"/>
  <flow id="JF182883" begin="240" fromJunction="J7" toJunction="J5" end="300" vehsPerHour="17.41075434453749"/>
  <flow id="JF182884" begin="240" fromJunction="J7" toJunction="J6" end="300" vehsPerHour="67.27885350656763"/>
  <flow id="JF182885" begin="240" fromJunction="J5" toJunction="J4" end="300" vehsPerHour="25.762612976943963"/>
  <flow id="JF182886" begin="240" fromJunction="J5" toJunction="J7" end="300" vehsPerHour="49.58355836835051"/>
  <flow id="JF182887" begin="240" fromJunction="J5" toJunction="J6" end="300" vehsPerHour="56.74225189359283"/>
  <flow id="JF182888" begin="240" fromJunction="J6" toJunction="J4" end="300" vehsPerHour="4.623717269790117"/>
  <flow id="JF182889" begin="240" fromJunction="J6" toJunction="J7" end="300" vehsPerHour="1.8611653594478617"/>
  <flow id="JF182890" begin="240" fromJunction="J6" toJunction="J5" end="300" vehsPerHour="8.179257620966387"/>
  <flow id="JF182891" begin="240" fromJunction="J4" toJunction="J3" end="300" vehsPerHour="16.655517311467506"/>
  <flow id="JF182892" begin="240" fromJunction="J4" toJunction="J0" end="300" vehsPerHour="25.59626993673427"/>
  <flow id="JF182893" begin="240" fromJunction="J7" toJunction="J3" end="300" vehsPerHour="67.4071108688097"/>
  <flow id="JF182894" begin="240" fromJunction="J7" toJunction="J0" end="300" vehsPerHour="51.67904815560423"/>
  <flow id="JF182895" begin="240" fromJunction="J5" toJunction="J3" end="300" vehsPerHour="29.86071045606704"/>
  <flow id="JF182896" begin="240" fromJunction="J5" toJunction="J0" end="300" vehsPerHour="18.519968494243944"/>
  <flow id="JF182897" begin="240" fromJunction="J6" toJunction="J3" end="300" vehsPerHour="23.10225018538629"/>
  <flow id="JF182898" begin="240" fromJunction="J6" toJunction="J0" end="300" vehsPerHour="52.09788450485403"/>
  <flow id="JF182899" begin="300" fromJunction="J3" toJunction="J0" end="360" vehsPerHour="346.4506158835608"/>
  <flow id="JF182900" begin="300" fromJunction="J0" toJunction="J3" end="360" vehsPerHour="398.9085407965342"/>
  <flow id="JF182901" begin="300" fromJunction="J3" toJunction="J4" end="360" vehsPerHour="53.43973138845349"/>
  <flow id="JF182902" begin="300" fromJunction="J3" toJunction="J7" end="360" vehsPerHour="8.820969254420154"/>
  <flow id="JF182903" begin="300" fromJunction="J3" toJunction="J5" end="360" vehsPerHour="121.3207447305651"/>
  <flow id="JF182904" begin="300" fromJunction="J3" toJunction="J6" end="360" vehsPerHour="59.27228950994745"/>
  <flow id="JF182905" begin="300" fromJunction="J0" toJunction="J4" end="360" vehsPerHour="121.33375603264139"/>
  <flow id="JF182906" begin="300" fromJunction="J0" toJunction="J7" end="360" vehsPerHour="110.1519197355243"/>
  <flow id="JF182907" begin="300" fromJunction="J0" toJunction="J5" end="360" vehsPerHour="40.89998115887382"/>
  <flow id="JF182908" begin="300" fromJunction="J0" toJunction="J6" end="360" vehsPerHour="93.4767352630082"/>
  <flow id="JF182909" begin="300" fromJunction="J4" toJunction="J7" end="360" vehsPerHour="39.16607531857444"/>
  <flow id="JF182910" begin="300" fromJunction="J4" toJunction="J5" end="360" vehsPerHour="66.41499656145838"/>
  <flow id="JF182911" begin="300" fromJunction="J4" toJunction="J6" end="360" vehsPerHour="16.33614349973109"/>
  <flow id="JF182912" begin="300" fromJunction="J7" toJunction="J4" end="360" vehsPerHour="10.550821394317971"/>
  <flow id="JF182913" begin="300" fromJunction="J7" toJunction="J5" end="360" vehsPerHour="64.9635757993926"/>
  <flow id="JF182914" begin="300" fromJunction="J7" toJunction="J6" end="360" vehsPerHour="4.838031940498466"/>
  <flow id="JF182915" begin="300" fromJunction="J5" toJunction="J4" end="360" vehsPerHour="60.74157845185307"/>
  <flow id="JF182916" begin="300" fromJunction="J5" toJunction="J7" end="360" vehsPerHour="29.624245380106753"/>
  <flow id="JF182917" begin="300" fromJunction="J5" toJunction="J6" end="360" vehsPerHour="53.85350731142747"/>
  <flow id="JF182918" begin="300" fromJunction="J6" toJunction="J4" end="360" vehsPerHour="66.1177700180489"/>
  <flow id="JF182919" begin="300" fromJunction="J6" toJunction="J7" end="360" vehsPerHour="59.24501589624362"/>
  <flow id="JF182920" begin="300" fromJunction="J6" toJunction="J5" end="360" vehsPerHour="55.443983187136695"/>
  <flow id="JF182921" begin="300" fromJunction="J4" toJunction="J3" end="360" vehsPerHour="8.429718436693648"/>
  <flow id="JF182922" begin="300" fromJunction="J4" toJunction="J0" end="360" vehsPerHour="50.393942007540375"/>
  <flow id="JF182923" begin="300" fromJunction="J7" toJunction="J3" end="360" vehsPerHour="20.322203023445553"/>
  <flow id="JF182924" begin="300" fromJunction="J7" toJunction="J0" end="360" vehsPerHour="37.37431939407706"/>
  <flow id="JF182925" begin="300" fromJunction="J5" toJunction="J3" end="360" vehsPerHour="17.603184886606364"/>
  <flow id="JF182926" begin="300" fromJunction="J5" toJunction="J0" end="360" vehsPerHour="11.151230847627238"/>
  <flow id="JF182927" begin="300" fromJunction="J6" toJunction="J3" end="360" vehsPerHour="49.02578311925359"/>
  <flow id="JF182928" begin="300" fromJunction="J6" toJunction="J0" end="360" vehsPerHour="45.40803659307239"/>
  <flow id="JF182929" begin="360" fromJunction="J3" toJunction="J0" end="420" vehsPerHour="247.6600607756497"/>
  <flow id="JF182930" begin="360" fromJunction="J0" toJunction="J3" end="420" vehsPerHour="184.25305595931343"/>
  <flow id="JF182931" begin="360" fromJunction="J3" toJunction="J4" end="420" vehsPerHour="43.566911211193236"/>
  <flow id="JF182932" begin="360" fromJunction="J3" toJunction="J7" end="420" vehsPerHour="8.976379588801167"/>
  <flow id="JF182933" begin="360" fromJunction="J3" toJunction="J5" end="420" vehsPerHour="43.79319562166749"/>
  <flow id="JF182934" begin="360" fromJunction="J3" toJunction="J6" end="420" vehsPerHour="135.907155769543"/>
  <flow id="JF182935" begin="360" fromJunction="J0" toJunction="J4" end="420" vehsPerHour="99.9322205740292"/>
  <flow id="JF182936" begin="360" fromJunction="J0" toJunction="J7" end="420" vehsPerHour="105.68686830563713"/>
  <flow id="JF182937" begin="360" fromJunction="J0" toJunction="J5" end="420" vehsPerHour="21.739159272869593"/>
  <flow id="JF182938" begin="360" fromJunction="J0" toJunction="J6" end="420" vehsPerHour="85.71868519140975"/>
  <flow id="JF182939" begin="420" fromJunction="J3" toJunction="J0" end="480" vehsPerHour="62.643356505396774"/>
  <flow id="JF182940" begin="420" fromJunction="J0" toJunction="J3" end="480" vehsPerHour="84.85157425149029"/>
  <flow id="JF182941" begin="420" fromJunction="J3" toJunction="J4" end="480" vehsPerHour="122.03519728990369"/>
  <flow id="JF182942" begin="420" fromJunction="J3" toJunction="J7" end="480" vehsPerHour="84.02082040263362"/>
  <flow id="JF182943" begin="420" fromJunction="J3" toJunction="J5" end="480" vehsPerHour="12.069419366022702"/>
  <flow id="JF182944" begin="420" fromJunction="J3" toJunction="J6" end="480" vehsPerHour="124.86686273315664"/>
  <flow id="JF182945" begin="420" fromJunction="J0" toJunction="J4" end="480" vehsPerHour="15.254200583836742"/>
  <flow id="JF182946" begin="420" fromJunction="J0" toJunction="J7" end="480" vehsPerHour="133.19196465490876"/>
  <flow id="JF182947" begin="420" fromJunction="J0" toJunction="J5" end="480" vehsPerHour="18.802021694320587"/>
  <flow id="JF182948" begin="420" fromJunction="J0" toJunction="J6" end="480" vehsPerHour="130.28814505443157"/>
  <flow id="JF182949" begin="420" fromJunction="J4" toJunction="J7" end="480" vehsPerHour="30.068106320179346"/>
  <flow id="JF182950" begin="420" fromJunction="J4" toJunction="J5" end="480" vehsPerHour="63.43630862222988"/>
  <flow id="JF182951" begin="420" fromJunction="J4" toJunction="J6" end="480" vehsPerHour="2.3060995848761556"/>
  <flow id="JF182952" begin="420" fromJunction="J7" toJunction="J4" end="480" vehsPerHour="64.49583194745333"/>
  <flow id="JF182953" begin="420" fromJunction="J7" toJunction="J5" end="480" vehsPerHour="32.330490151507966"/>
  <flow id="JF182954" begin="420" fromJunction="J7" toJunction="J6" end="480" vehsPerHour="39.97736478353129"/>
  <flow id="JF182955" begin="420" fromJunction="J5" toJunction="J4" end="480" vehsPerHour="47.576480762142765"/>
  <flow id="JF182956" begin="420" fromJunction="J5" toJunction="J7" end="480" vehsPerHour="8.399757661356897"/>
  <flow id="JF182957" begin="420" fromJunction="J5" toJunction="J6" end="480" vehsPerHour="52.122785091373395"/>
  <flow id="JF182958" begin="420" fromJunction="J6" toJunction="J4" end="480" vehsPerHour="62.29549561073409"/>
  <flow id="JF182959" begin="420" fromJunction="J6" toJunction="J7" end="480" vehsPerHour="28.542216863010907"/>
  <flow id="JF182960" begin="420" fromJunction="J6" toJunction="J5" end="480" vehsPerHour="62.9145712413106"/>
  <flow id="JF182961" begin="420" fromJunction="J4" toJunction="J3" end="480" vehsPerHour="65.10820988166287"/>
  <flow id="JF182962" begin="420" fromJunction="J4" toJunction="J0" end="480" vehsPerHour="10.341739947214847"/>
  <flow id="JF182963" begin="420" fromJunction="J7" toJunction="J3" end="480" vehsPerHour="16.90047055330291"/>
  <flow id="JF182964" begin="420" fromJunction="J7" toJunction="J0" end="480" vehsPerHour="32.63249385435171"/>
  <flow id="JF182965" begin="420" fromJunction="J5" toJunction="J3" end="480" vehsPerHour="59.19909397296801"/>
  <flow id="JF182966" begin="420" fromJunction="J5" toJunction="J0" end="480" vehsPerHour="67.3318129839843"/>
  <flow id="JF182967" begin="420" fromJunction="J6" toJunction="J3" end="480" vehsPerHour="1.5060238072684504"/>
  <flow id="JF182968" begin="420" fromJunction="J6" toJunction="J0" end="480" vehsPerHour="65.11742550851137"/>
  <flow id="JF182969" begin="480" fromJunction="J3" toJunction="J0" end="540" vehsPerHour="482.8624130362656"/>
  <flow id="JF182970" begin="480" fromJunction="J0" toJunction="J3" end="540" vehsPerHour="147.7685339371156"/>
  <flow id="JF182971" begin="480" fromJunction="J3" toJunction="J4" end="540" vehsPerHour="46.351640367381556"/>
  <flow id="JF182972" begin="480" fromJunction="J3" toJunction="J7" end="540" vehsPerHour="64.87752317294039"/>
  <flow id="JF182973" begin="480" fromJunction="J3" toJunction="J5" end="540" vehsPerHour="64.16091380758473"/>
  <flow id="JF182974" begin="480" fromJunction="J3" toJunction="J6" end="540" vehsPerHour="98.00286898859666"/>
  <flow id="JF182975" begin="480" fromJunction="J0" toJunction="J4" end="540" vehsPerHour="113.74593151477343"/>
  <flow id="JF182976" begin="480" fromJunction="J0" toJunction="J7" end="540" vehsPerHour="46.08513954049631"/>
  <flow id="JF182977" begin="480" fromJunction="J0" toJunction="J5" end="540" vehsPerHour="82.25251111986134"/>
  <flow id="JF182978" begin="480" fromJunction="J0" toJunction="J6" end="540" vehsPerHour="113.77954789876554"/>
  <flow id="JF182979" begin="480" fromJunction="J4" toJunction="J7" end="540" vehsPerHour="56.347428144801896"/>
  <flow id="JF182980" begin="480" fromJunction="J4" toJunction="J5" end="540" vehsPerHour="12.494333809987612"/>
  <flow id="JF182981" begin="480" fromJunction="J4" toJunction="J6" end="540" vehsPerHour="21.546137234590898"/>
  <flow id="JF182982" begin="480" fromJunction="J7" toJunction="J4" end="540" vehsPerHour="46.51353837470066"/>
  <flow id="JF182983" begin="480" fromJunction="J7" toJunction="J5" end="540" vehsPerHour="14.649268823461876"/>
  <flow id="JF182984" begin="480" fromJunction="J7" toJunction="J6" end="540" vehsPerHour="32.56838968102645"/>
  <flow id="JF182985" begin="480" fromJunction="J5" toJunction="J4" end="540" vehsPerHour="47.70058371711723"/>
  <flow id="JF182986" begin="480" fromJunction="J5" toJunction="J7" end="540" vehsPerHour="46.485486876003804"/>
  <flow id="JF182987" begin="480" fromJunction="J5" toJunction="J6" end="540" vehsPerHour="50.92774771510172"/>
  <flow id="JF182988" begin="480" fromJunction="J6" toJunction="J4" end="540" vehsPerHour="66.87442253709932"/>
  <flow id="JF182989" begin="480" fromJunction="J6" toJunction="J7" end="540" vehsPerHour="24.679442480682127"/>
  <flow id="JF182990" begin="480" fromJunction="J6" toJunction="J5" end="540" vehsPerHour="5.027683464636767"/>
  <flow id="JF182991" begin="480" fromJunction="J4" toJunction="J3" end="540" vehsPerHour="9.69382160071563"/>
  <flow id="JF182992" begin="480" fromJunction="J4" toJunction="J0" end="540" vehsPerHour="24.7820971897564"/>
  <flow id="JF182993" begin="480" fromJunction="J7" toJunction="J3" end="540" vehsPerHour="67.5494440298913"/>
  <flow id="JF182994" begin="480" fromJunction="J7" toJunction="J0" end="540" vehsPerHour="8.505090575118983"/>
  <flow id="JF182995" begin="480" fromJunction="J5" toJunction="J3" end="540" vehsPerHour="61.28158518868872"/>
  <flow id="JF182996" begin="480" fromJunction="J5" toJunction="J0" end="540" vehsPerHour="47.61186634583249"/>
  <flow id="JF182997" begin="480" fromJunction="J6" toJunction="J3" end="540" vehsPerHour="39.32606137002573"/>
  <flow id="JF182998" begin="480" fromJunction="J6" toJunction="J0" end="540" vehsPerHour="62.13318585605955"/>
  <flow id="JF182999" begin="540" fromJunction="J3" toJunction="J0" end="600" vehsPerHour="313.4330683940135"/>
  <flow id="JF183000" begin="540" fromJunction="J0" toJunction="J3" end="600" vehsPerHour="314.49349603197066"/>
  <flow id="JF183001" begin="540" fromJunction="J3" toJunction="J4" end="600" vehsPerHour="41.87724142036462"/>
  <flow id="JF183002" begin="540" fromJunction="J3" toJunction="J7" end="600" vehsPerHour="124.05066332974445"/>
  <flow id="JF183003" begin="540" fromJunction="J3" toJunction="J5" end="600" vehsPerHour="114.57595425341047"/>
  <flow id="JF183004" begin="540" fromJunction="J3" toJunction="J6" end="600" vehsPerHour="20.825123776128788"/>
  <flow id="JF183005" begin="540" fromJunction="J0" toJunction="J4" end="600" vehsPerHour="128.35034177033077"/>
  <flow id="JF183006" begin="540" fromJunction="J0" toJunction="J7" end="600" vehsPerHour="22.26912766854009"/>
  <flow id="JF183007" begin="540" fromJunction="J0" toJunction="J5" end="600" vehsPerHour="18.248509739052963"/>
  <flow id="JF183008" begin="540" fromJunction="J0" toJunction="J6" end="600" vehsPerHour="129.75234193471016"/>
  <flow id="JF183009" begin="540" fromJunction="J4" toJunction="J7" end="600" vehsPerHour="0.8716358451571817"/>
  <flow id="JF183010" begin="540" fromJunction="J4" toJunction="J5" end="600" vehsPerHour="45.508908022918206"/>
  <flow id="JF183011" begin="540" fromJunction="J4" toJunction="J6" end="600" vehsPerHour="3.0878974070391005"/>
  <flow id="JF183012" begin="540" fromJunction="J7" toJunction="J4" end="600" vehsPerHour="24.85647059585877"/>
  <flow id="JF183013" begin="540" fromJunction="J7" toJunction="J5" end="600" vehsPerHour="49.958622329877166"/>
  <flow id="JF183014" begin="540" fromJunction="J7" toJunction="J6" end="600" vehsPerHour="12.222795587845711"/>
  <flow id="JF183015" begin="540" fromJunction="J5" toJunction="J4" end="600" vehsPerHour="37.26422612121967"/>
  <flow id="JF183016" begin="540" fromJunction="J5" toJunction="J7" end="600" vehsPerHour="54.76527740790933"/>
  <flow id="JF183017" begin="540" fromJunction="J5" toJunction="J6" end="600" vehsPerHour="6.953282817091039"/>
  <flow id="JF183018" begin="540" fromJunction="J6" toJunction="J4" end="600" vehsPerHour="62.829947386978574"/>
  <flow id="JF183019" begin="540" fromJunction="J6" toJunction="J7" end="600" vehsPerHour="52.17790832772849"/>
  <flow id="JF183020" begin="540" fromJunction="J6" toJunction="J5" end="600" vehsPerHour="10.079612556832954"/>
  <flow id="JF183021" begin="540" fromJunction="J4" toJunction="J3" end="600" vehsPerHour="22.87759046618757"/>
  <flow id="JF183022" begin="540" fromJunction="J4" toJunction="J0" end="600" vehsPerHour="6.621342045986854"/>
  <flow id="JF183023" begin="540" fromJunction="J7" toJunction="J3" end="600" vehsPerHour="39.62477494630686"/>
  <flow id="JF183024" begin="540" fromJunction="J7" toJunction="J0" end="600" vehsPerHour="65.79149619835414"/>
  <flow id="JF183025" begin="540" fromJunction="J5" toJunction="J3" end="600" vehsPerHour="67.55114989019067"/>
  <flow id="JF183026" begin="540" fromJunction="J5" toJunction="J0" end="600" vehsPerHour="8.180434552195793"/>
  <flow id="JF183027" begin="540" fromJunction="J6" toJunction="J3" end="600" vehsPerHour="56.1381032802184"/>
  <flow id="JF183028" begin="540" fromJunction="J6" toJunction="J0" end="600" vehsPerHour="21.81306399512341"/>
  <flow id="JF183029" begin="600" fromJunction="J3" toJunction="J0" end="660" vehsPerHour="526.5546274050013"/>
  <flow id="JF183030" begin="600" fromJunction="J0" toJunction="J3" end="660" vehsPerHour="16.119006391759054"/>
  <flow id="JF183031" begin="600" fromJunction="J3" toJunction="J4" end="660" vehsPerHour="71.91016988899698"/>
  <flow id="JF183032" begin="600" fromJunction="J3" toJunction="J7" end="660" vehsPerHour="17.008709986663845"/>
  <flow id="JF183033" begin="600" fromJunction="J3" toJunction="J5" end="660" vehsPerHour="18.62342853864096"/>
  <flow id="JF183034" begin="600" fromJunction="J3" toJunction="J6" end="660" vehsPerHour="111.62389487349316"/>
  <flow id="JF183035" begin="600" fromJunction="J0" toJunction="J4" end="660" vehsPerHour="134.72494059941374"/>
  <flow id="JF183036" begin="600" fromJunction="J0" toJunction="J7" end="660" vehsPerHour="128.280134326426"/>
  <flow id="JF183037" begin="600" fromJunction="J0" toJunction="J5" end="660" vehsPerHour="30.328421802964787"/>
  <flow id="JF183038" begin="600" fromJunction="J0" toJunction="J6" end="660" vehsPerHour="93.14953733540968"/>
  <flow id="JF183039" begin="600" fromJunction="J4" toJunction="J7" end="660" vehsPerHour="52.78970457348976"/>
  <flow id="JF183040" begin="600" fromJunction="J4" toJunction="J5" end="660" vehsPerHour="43.89342813222949"/>
  <flow id="JF183041" begin="600" fromJunction="J4" toJunction="J6" end="660" vehsPerHour="32.765922982014416"/>
  <flow id="JF183042" begin="600" fromJunction="J7" toJunction="J4" end="660" vehsPerHour="33.30487375504561"/>
  <flow id="JF183043" begin="600" fromJunction="J7" toJunction="J5" end="660" vehsPerHour="59.485142601777504"/>
  <flow id="JF183044" begin="600" fromJunction="J7" toJunction="J6" end="660" vehsPerHour="52.281297917672774"/>
  <flow id="JF183045" begin="600" fromJunction="J5" toJunction="J4" end="660" vehsPerHour="24.21571812386136"/>
  <flow id="JF183046" begin="600" fromJunction="J5" toJunction="J7" end="660" vehsPerHour="1.1244048334998775"/>
  <flow id="JF183047" begin="600" fromJunction="J5" toJunction="J6" end="660" vehsPerHour="0.9405406550994168"/>
  <flow id="JF183048" begin="600" fromJunction="J6" toJunction="J4" end="660" vehsPerHour="66.15790624563753"/>
  <flow id="JF183049" begin="600" fromJunction="J6" toJunction="J7" end="660" vehsPerHour="50.511902248157874"/>
  <flow id="JF183050" begin="600" fromJunction="J6" toJunction="J5" end="660" vehsPerHour="22.19872590956331"/>
  <flow id="JF183051" begin="600" fromJunction="J4" toJunction="J3" end="660" vehsPerHour="18.11234743560931"/>
  <flow id="JF183052" begin="600" fromJunction="J4" toJunction="J0" end="660" vehsPerHour="40.86212040486218"/>
  <flow id="JF183053" begin="600" fromJunction="J7" toJunction="J3" end="660" vehsPerHour="29.167808348021484"/>