<?xml version="1.0" encoding="UTF-8"?>
<routes xmlns:xsi="http://www.w3.org/2001/XMLSchema-instance" xsi:noNamespaceSchemaLocation="http://sumo.dlr.de/xsd/routes_file.xsd">
  <flow id="JF186555" begin="0" fromJunction="J3" toJunction="J0" end="60" vehsPerHour="53.58819764833086"/>
  <flow id="JF186556" begin="0" fromJunction="J0" toJunction="J3" end="60" vehsPerHour="231.96387227390065"/>
  <flow id="JF186557" begin="0" fromJunction="J3" toJunction="J4" end="60" vehsPerHour="55.1219988954418"/>
  <flow id="JF186558" begin="0" fromJunction="J3" toJunction="J7" end="60" vehsPerHour="50.76278454314581"/>
  <flow id="JF186559" begin="0" fromJunction="J3" toJunction="J5" end="60" vehsPerHour="16.656516671453495"/>
  <flow id="JF186560" begin="0" fromJunction="J3" toJunction="J6" end="60" vehsPerHour="44.93955933530472"/>
  <flow id="JF186561" begin="0" fromJunction="J0" toJunction="J4" end="60" vehsPerHour="118.20627232020398"/>
  <flow id="JF186562" begin="0" fromJunction="J0" toJunction="J7" end="60" vehsPerHour="76.73946672081262"/>
  <flow id="JF186563" begin="0" fromJunction="J0" toJunction="J5" end="60" vehsPerHour="105.47143102785628"/>
  <flow id="JF186564" begin="0" fromJunction="J0" toJunction="J6" end="60" vehsPerHour="81.20339862451657"/>
  <flow id="JF186565" begin="60" fromJunction="J3" toJunction="J0" end="120" vehsPerHour="166.59015091706684"/>
  <flow id="JF186566" begin="60" fromJunction="J0" toJunction="J3" end="120" vehsPerHour="502.2588851113651"/>
  <flow id="JF186567" begin="60" fromJunction="J3" toJunction="J4" end="120" vehsPerHour="126.93360393799995"/>
  <flow id="JF186568" begin="60" fromJunction="J3" toJunction="J7" end="120" vehsPerHour="104.43961781187512"/>
  <flow id="JF186569" begin="60" fromJunction="J3" toJunction="J5" end="120" vehsPerHour="121.82859384690798"/>
  <flow id="JF186570" begin="60" fromJunction="J3" toJunction="J6" end="120" vehsPerHour="14.171445752909008"/>
  <flow id="JF186571" begin="60" fromJunction="J0" toJunction="J4" end="120" vehsPerHour="76.14836084018516"/>
  <flow id="JF186572" begin="60" fromJunction="J0" toJunction="J7" end="120" vehsPerHour="107.34429320534089"/>
  <flow id="JF186573" begin="60" fromJunction="J0" toJunction="J5" end="120" vehsPerHour="135.0200442071017"/>
  <flow id="JF186574" begin="60" fromJunction="J0" toJunction="J6" end="120" vehsPerHour="60.73726095789615"/>
  <flow id="JF186575" begin="120" fromJunction="J3" toJunction="J0" end="180" vehsPerHour="530.3138724579161"/>
  <flow id="JF186576" begin="120" fromJunction="J0" toJunction="J3" end="180" vehsPerHour="326.16108216921367"/>
  <flow id="JF186577" begin="120" fromJunction="J3" toJunction="J4" end="180" vehsPerHour="107.35220930291962"/>
  <flow id="JF186578" begin="120" fromJunction="J3" toJunction="J7" end="180" vehsPerHour="2.5075160833911787"/>
  <flow id="JF186579" begin="120" fromJunction="J3" toJunction="J5" end="180" vehsPerHour="78.93123848807696"/>
  <flow id="JF186580" begin="120" fromJunction="J3" toJunction="J6" end="180" vehsPerHour="84.9190337424859"/>
  <flow id="JF186581" begin="120" fromJunction="J0" toJunction="J4" end="180" vehsPerHour="112.32873869893176"/>
  <flow id="JF186582" begin="120" fromJunction="J0" toJunction="J7" end="180" vehsPerHour="28.504979569223114"/>
  <flow id="JF186583" begin="120" fromJunction="J0" toJunction="J5" end="180" vehsPerHour="120.00863777590867"/>
  <flow id="JF186584" begin="120" fromJunction="J0" toJunction="J6" end="180" vehsPerHour="114.77881217383202"/>
  <flow id="JF186585" begin="180" fromJunction="J3" toJunction="J0" end="240" vehsPerHour="289.0313326629451"/>
  <flow id="JF186586" begin="180" fromJunction="J0" toJunction="J3" end="240" vehsPerHour="350.04650669401883"/>
  <flow id="JF186587" begin="180" fromJunction="J3" toJunction="J4" end="240" vehsPerHour="121.68119843686317"/>
  <flow id="JF186588" begin="180" fromJunction="J3" toJunction="J7" end="240" vehsPerHour="126.24119978555095"/>
  <flow id="JF186589" begin="180" fromJunction="J3" toJunction="J5" end="240" vehsPerHour="128.40010267487546"/>
  <flow id="JF186590" begin="180" fromJunction="J3" toJunction="J6" end="240" vehsPerHour="92.65803396354622"/>
  <flow id="JF186591" begin="180" fromJunction="J0" toJunction="J4" end="240" vehsPerHour="20.702456148783345"/>
  <flow id="JF186592" begin="180" fromJunction="J0" toJunction="J7" end="240" vehsPerHour="56.41877018201494"/>
  <flow id="JF186593" begin="180" fromJunction="J0" toJunction="J5" end="240" vehsPerHour="51.20612365892006"/>
  <flow id="JF186594" begin="180" fromJunction="J0" toJunction="J6" end="240" vehsPerHour="59.881199456286886"/>
  <flow id="JF186595" begin="240" fromJunction="J3" toJunction="J0" end="300" vehsPerHour="21.198371651041697"/>
  <flow id="JF186596" begin="240" fromJunction="J0" toJunction="J3" end="300" vehsPerHour="98.85188992709104"/>
  <flow id="JF186597" begin="240" fromJunction="J3" toJunction="J4" end="300" vehsPerHour="121.1447401805695"/>
  <flow id="JF186598" begin="240" fromJunction="J3" toJunction="J7" end="300" vehsPerHour="109.71664131498177"/>
  <flow id="JF186599" begin="240" fromJunction="J3" toJunction="J5" end="300" vehsPerHour="75.82161359568609"/>
  <flow id="JF186600" begin="240" fromJunction="J3" toJunction="J6" end="300" vehsPerHour="135.60346104221313"/>
  <flow id="JF186601" begin="240" fromJunction="J0" toJunction="J4" end="300" vehsPerHour="16.00898526091484"/>
  <flow id="JF186602" begin="240" fromJunction="J0" toJunction="J7" end="300" vehsPerHour="78.23217502621411"/>
  <flow id="JF186603" begin="240" fromJunction="J0" toJunction="J5" end="300" vehsPerHour="5.712648506140338"/>
  <flow id="JF186604" begin="240" fromJunction="J0" toJunction="J6" end="300" vehsPerHour="99.6206117559002"/>
  <flow id="JF186605" begin="240" fromJunction="J4" toJunction="J7" end="300" vehsPerHour="30.310317932106454"/>
  <flow id="JF186606" begin="240" fromJunction="J4" toJunction="J5" end="300" vehsPerHour="17.877624547067505"/>
  <flow id="JF186607" begin="240" fromJunction="J4" toJunction="J6" end="300" vehsPerHour="32.32284448604688"/>
  <flow id="JF186608" begin="240" fromJunction="J7" toJunction="J4" end="300" vehsPerHour="60.44504592358216"/>
  <flow id="JF186609" begin="240" fromJunction="J7" toJunction="J5" end="300" vehsPerHour="46.497035966384175"/>
  <flow id="JF186610" begin="240" fromJunction="J7" toJunction="J6" end="300" vehsPerHour="7.721320974776441"/>
  <flow id="JF186611" begin="240" fromJunction="J5" toJunction="J4" end="300" vehsPerHour="6.967538060253562"/>
  <flow id="JF186612" begin="240" fromJunction="J5" toJunction="J7" end="300" vehsPerHour="5.467427372000862"/>
  <flow id="JF186613" begin="240" fromJunction="J5" toJunction="J6" end="300" vehsPerHour="4.089298488621482"/>
  <flow id="JF186614" begin="240" fromJunction="J6" toJunction="J4" end="300" vehsPerHour="39.44140104615722"/>
  <flow id="JF186615" begin="240" fromJunction="J6" toJunction="J7" end="300" vehsPerHour="50.122804506823265"/>
  <flow id="JF186616" begin="240" fromJunction="J6" toJunction="J5" end="300" vehsPerHour="56.12876300837577"/>
  <flow id="JF186617" begin="240" fromJunction="J4" toJunction="J3" end="300" vehsPerHour="0.04815801777782876"/>
  <flow id="JF186618" begin="240" fromJunction="J4" toJunction="J0" end="300" vehsPerHour="7.904997548202957"/>
  <flow id="JF186619" begin="240" fromJunction="J7" toJunction="J3" end="300" vehsPerHour="10.15159306108269"/>
  <flow id="JF186620" begin="240" fromJunction="J7" toJunction="J0" end="300" vehsPerHour="17.652741646737965"/>
  <flow id="JF186621" begin="240" fromJunction="J5" toJunction="J3" end="300" vehsPerHour="2.5759976125208714"/>
  <flow id="JF186622" begin="240" fromJunction="J5" toJunction="J0" end="300" vehsPerHour="35.0420830833569"/>
  <flow id="JF186623" begin="240" fromJunction="J6" toJunction="J3" end="300" vehsPerHour="58.969938675504814"/>
  <flow id="JF186624" begin="240" fromJunction="J6" toJunction="J0" end="300" vehsPerHour="32.95278556399423"/>
  <flow id="JF186625" begin="300" fromJunction="J3" toJunction="J0" end="360" vehsPerHour="153.02878450956814"/>
  <flow id="JF186626" begin="300" fromJunction="J0" toJunction="J3" end="360" vehsPerHour="483.4825364887151"/>
  <flow id="JF186627" begin="300" fromJunction="J3" toJunction="J4" end="360" vehsPerHour="90.5018471314217"/>
  <flow id="JF186628" begin="300" fromJunction="J3" toJunction="J7" end="360" vehsPerHour="69.19949735455486"/>
  <flow id="JF186629" begin="300" fromJunction="J3" toJunction="J5" end="360" vehsPerHour="106.91068301091664"/>
  <flow id="JF186630" begin="300" fromJunction="J3" toJunction="J6" end="360" vehsPerHour="95.06780606646879"/>
  <flow id="JF186631" begin="300" fromJunction="J0" toJunction="J4" end="360" vehsPerHour="58.790293155051835"/>
  <flow id="JF186632" begin="300" fromJunction="J0" toJunction="J7" end="360" vehsPerHour="18.816533744362662"/>
  <flow id="JF186633" begin="300" fromJunction="J0" toJunction="J5" end="360" vehsPerHour="81.34072439736264"/>
  <flow id="JF186634" begin="300" fromJunction="J0" toJunction="J6" end="360" vehsPerHour="134.35148433792295"/>
  <flow id="JF186635" begin="300" fromJunction="J4" toJunction="J7" end="360" vehsPerHour="25.179977134828633"/>
  <flow id="JF186636" begin="300" fromJunction="J4" toJunction="J5" end="360" vehsPerHour="29.539254628565303"/>
  <flow id="JF186637" begin="300" fromJunction="J4" toJunction="J6" end="360" vehsPerHour="59.63485711760268"/>
  <flow id="JF186638" begin="300" fromJunction="J7" toJunction="J4" end="360" vehsPerHour="53.45687705415923"/>
  <flow id="JF186639" begin="300" fromJunction="J7" toJunction="J5" end="360" vehsPerHour="32.18356845643473"/>
  <flow id="JF186640" begin="300" fromJunction="J7" toJunction="J6" end="360" vehsPerHour="63.64286629551903"/>
  <flow id="JF186641" begin="300" fromJunction="J5" toJunction="J4" end="360" vehsPerHour="55.2328214983581"/>
  <flow id="JF186642" begin="300" fromJunction="J5" toJunction="J7" end="360" vehsPerHour="67.3547086077917"/>
  <flow id="JF186643" begin="300" fromJunction="J5" toJunction="J6" end="360" vehsPerHour="10.659415458650397"/>
  <flow id="JF186644" begin="300" fromJunction="J6" toJunction="J4" end="360" vehsPerHour="6.516042496647543"/>
  <flow id="JF186645" begin="300" fromJunction="J6" toJunction="J7" end="360" vehsPerHour="19.473424339248112"/>
  <flow id="JF186646" begin="300" fromJunction="J6" toJunction="J5" end="360" vehsPerHour="22.108758188161676"/>
  <flow id="JF186647" begin="300" fromJunction="J4" toJunction="J3" end="360" vehsPerHour="45.803043790425896"/>
  <flow id="JF186648" begin="300" fromJunction="J4" toJunction="J0" end="360" vehsPerHour="36.77561266284748"/>
  <flow id="JF186649" begin="300" fromJunction="J7" toJunction="J3" end="360" vehsPerHour="0.233451280782783"/>
  <flow id="JF186650" begin="300" fromJunction="J7" toJunction="J0" end="360" vehsPerHour="39.46880215382644"/>
  <flow id="JF186651" begin="300" fromJunction="J5" toJunction="J3" end="360" vehsPerHour="2.9532125422238162"/>
  <flow id="JF186652" begin="300" fromJunction="J5" toJunction="J0" end="360" vehsPerHour="47.97882021882526"/>
  <flow id="JF186653" begin="300" fromJunction="J6" toJunction="J3" end="360" vehsPerHour="50.01101049002875"/>
  <flow id="JF186654" begin="300" fromJunction="J6" toJunction="J0" end="360" vehsPerHour="52.37987350586961"/>
  <flow id="JF186655" begin="360" fromJunction="J3" toJunction="J0" end="420" vehsPerHour="181.56559912151874"/>
  <flow id="JF186656" begin="360" fromJunction="J0" toJunction="J3" end="420" vehsPerHour="139.42632998884466"/>
  <flow id="JF186657" begin="360" fromJunction="J3" toJunction="J4" end="420" vehsPerHour="35.74780390652868"/>
  <flow id="JF186658" begin="360" fromJunction="J3" toJunction="J7" end="420" vehsPerHour="98.32097524011057"/>
  <flow id="JF186659" begin="360" fromJunction="J3" toJunction="J5" end="420" vehsPerHour="84.68857270593394"/>
  <flow id="JF186660" begin="360" fromJunction="J3" toJunction="J6" end="420" vehsPerHour="66.5058613735246"/>
  <flow id="JF186661" begin="360" fromJunction="J0" toJunction="J4" end="420" vehsPerHour="43.954390558746624"/>
  <flow id="JF186662" begin="360" fromJunction="J0" toJunction="J7" end="420" vehsPerHour="23.617898234910232"/>
  <flow id="JF186663" begin="360" fromJunction="J0" toJunction="J5" end="420" vehsPerHour="129.0407942286463"/>
  <flow id="JF186664" begin="360" fromJunction="J0" toJunction="J6" end="420" vehsPerHour="106.85917308229386"/>
  <flow id="JF186665" begin="360" fromJunction="J4" toJunction="J7" end="420" vehsPerHour="8.079435151735197"/>
  <flow id="JF186666" begin="360" fromJunction="J4" toJunction="J5" end="420" vehsPerHour="1.13756314409647"/>
  <flow id="JF186667" begin="360" fromJunction="J4" toJunction="J6" end="420" vehsPerHour="10.789523911988375"/>
  <flow id="JF186668" begin="360" fromJunction="J7" toJunction="J4" end="420" vehsPerHour="7.938856135802725"/>
  <flow id="JF186669" begin="360" fromJunction="J7" toJunction="J5" end="420" vehsPerHour="48.7218124347857"/>
  <flow id="JF186670" begin="360" fromJunction="J7" toJunction="J6" end="420" vehsPerHour="56.21604984345569"/>
  <flow id="JF186671" begin="360" fromJunction="J5" toJunction="J4" end="420" vehsPerHour="45.5165912033313"/>
  <flow id="JF186672" begin="360" fromJunction="J5" toJunction="J7" end="420" vehsPerHour="56.34791955628698"/>
  <flow id="JF186673" begin="360" fromJunction="J5" toJunction="J6" end="420" vehsPerHour="50.5076779192932"/>
  <flow id="JF186674" begin="360" fromJunction="J6" toJunction="J4" end="420" vehsPerHour="42.2654007129078"/>
  <flow id="JF186675" begin="360" fromJunction="J6" toJunction="J7" end="420" vehsPerHour="52.865793979483"/>
  <flow id="JF186676" begin="360" fromJunction="J6" toJunction="J5" end="420" vehsPerHour="65.03393882858708"/>
  <flow id="JF186677" begin="360" fromJunction="J4" toJunction="J3" end="420" vehsPerHour="52.79733903682354"/>
  <flow id="JF186678" begin="360" fromJunction="J4" toJunction="J0" end="420" vehsPerHour="7.562955697319302"/>
  <flow id="JF186679" begin="360" fromJunction="J7" toJunction="J3" end="420" vehsPerHour="40.76476769401987"/>
  <flow id="JF186680" begin="360" fromJunction="J7" toJunction="J0" end="420" vehsPerHour="11.036751856458185"/>
  <flow id="JF186681" begin="360" fromJunction="J5" toJunction="J3" end="420" vehsPerHour="29.969960437309588"/>
  <flow id="JF186682" begin="360" fromJunction="J5" toJunction="J0" end="420" vehsPerHour="18.42505398504485"/>
  <flow id="JF186683" begin="360" fromJunction="J6" toJunction="J3" end="420" vehsPerHour="66.33645151273544"/>
  <flow id="JF186684" begin="360" fromJunction="J6" toJunction="J0" end="420" vehsPerHour="12.535707789304832"/>
  <flow id="JF186685" begin="420" fromJunction="J3" toJunction="J0" end="480" vehsPerHour="446.3037472813139"/>
  <flow id="JF186686" begin="420" fromJunction="J0" toJunction="J3" end="480" vehsPerHour="162.1764626793628"/>
  <flow id="JF186687" begin="420" fromJunction="J3" toJunction="J4" end="480" vehsPerHour="106.7008600055441"/>
  <flow id="JF186688" begin="420" fromJunction="J3" toJunction="J7" end="480" vehsPerHour="132.3146040424892"/>
  <flow id="JF186689" begin="420" fromJunction="J3" toJunction="J5" end="480" vehsPerHour="112.32736534371841"/>
  <flow id="JF186690" begin="420" fromJunction="J3" toJunction="J6" end="480" vehsPerHour="22.609806062098322"/>
  <flow id="JF186691" begin="420" fromJunction="J0" toJunction="J4" end="480" vehsPerHour="65.5354680297805"/>
  <flow id="JF186692" begin="420" fromJunction="J0" toJunction="J7" end="480" vehsPerHour="45.59624156919164"/>
  <flow id="JF186693" begin="420" fromJunction="J0" toJunction="J5" end="480" vehsPerHour="51.16555304290901"/>
  <flow id="JF186694" begin="420" fromJunction="J0" toJunction="J6" end="480" vehsPerHour="116.69489518297432"/>
  <flow id="JF186695" begin="480" fromJunction="J3" toJunction="J0" end="540" vehsPerHour="100.858883025254"/>
  <flow id="JF186696" begin="480" fromJunction="J0" toJunction="J3" end="540" vehsPerHour="196.41965379124406"/>
  <flow id="JF186697" begin="480" fromJunction="J3" toJunction="J4" end="540" vehsPerHour="29.380932001407114"/>
  <flow id="JF186698" begin="480" fromJunction="J3" toJunction="J7" end="540" vehsPerHour="48.22447433896801"/>
  <flow id="JF186699" begin="480" fromJunction="J3" toJunction="J5" end="540" vehsPerHour="69.83258896163804"/>
  <flow id="JF186700" begin="480" fromJunction="J3" toJunction="J6" end="540" vehsPerHour="49.511490686698366"/>
  <flow id="JF186701" begin="480" fromJunction="J0" toJunction="J4" end="540" vehsPerHour="103.46449258682831"/>
  <flow id="JF186702" begin="480" fromJunction="J0" toJunction="J7" end="540" vehsPerHour="125.96761194986944"/>
  <flow id="JF186703" begin="480" fromJunction="J0" toJunction="J5" end="540" vehsPerHour="53.08532809064154"/>
  <flow id="JF186704" begin="480" fromJunction="J0" toJunction="J6" end="540" vehsPerHour="21.973848130054154"/>
  <flow id="JF186705" begin="480" fromJunction="J4" toJunction="J7" end="540" vehsPerHour="42.68252645561051"/>
  <flow id="JF186706" begin="480" fromJunction="J4" toJunction="J5" end="540" vehsPerHour="3.6678754473801063"/>
  <flow id="JF186707" begin="480" fromJunction="J4" toJunction="J6" end="540" vehsPerHour="36.0702443383158"/>
  <flow id="JF186708" begin="480" fromJunction="J7" toJunction="J4" end="540" vehsPerHour="59.45064411830162"/>
  <flow id="JF186709" begin="480" fromJunction="J7" toJunction="J5" end="540" vehsPerHour="27.28907412478771"/>
  <flow id="JF186710" begin="480" fromJunction="J7" toJunction="J6" end="540" vehsPerHour="48.7996562566476"/>
  <flow id="JF186711" begin="480" fromJunction="J5" toJunction="J4" end="540" vehsPerHour="50.44156646992189"/>
  <flow id="JF186712" begin="480" fromJunction="J5" toJunction="J7" end="540" vehsPerHour="5.8584569743204735"/>
  <flow id="JF186713" begin="480" fromJunction="J5" toJunction="J6" end="540" vehsPerHour="44.33443102305888"/>
  <flow id="JF186714" begin="480" fromJunction="J6" toJunction="J4" end="540" vehsPerHour="7.2565351757090335"/>
  <flow id="JF186715" begin="480" fromJunction="J6" toJunction="J7" end="540" vehsPerHour="11.135934229152618"/>
  <flow id="JF186716" begin="480" fromJunction="J6" toJunction="J5" end="540" vehsPerHour="26.09291590365707"/>
  <flow id="JF186717" begin="480" fromJunction="J4" toJunction="J3" end="540" vehsPerHour="52.21664626858448"/>
  <flow id="JF186718" begin="480" fromJunction="J4" toJunction="J0" end="540" vehsPerHour="40.589534995744906"/>
  <flow id="JF186719" begin="480" fromJunction="J7" toJunction="J3" end="540" vehsPerHour="7.547270849565137"/>
  <flow id="JF186720" begin="480" fromJunction="J7" toJunction="J0" end="540" vehsPerHour="55.246848981589366"/>
  <flow id="JF186721" begin="480" fromJunction="J5" toJunction="J3" end="540" vehsPerHour="13.60338160199724"/>
  <flow id="JF186722" begin="480" fromJunction="J5" toJunction="J0" end="540" vehsPerHour="31.020028082859376"/>
  <flow id="JF186723" begin="480" fromJunction="J6" toJunction="J3" end="540" vehsPerHour="54.988376753958384"/>
  <flow id="JF186724" begin="480" fromJunction="J6" toJunction="J0" end="540" vehsPerHour="43.20040654020937"/>
  <flow id="JF186725" begin="540" fromJunction="J3" toJunction="J0" end="600" vehsPerHour="56.42254866459926"/>
  <flow id="JF186726" begin="540" fromJunction="J0" toJunction="J3" end="600" vehsPerHour="49.81001894251913"/>
  <flow id="JF186727" begin="540" fromJunction="J3" toJunction="J4" end="600" vehsPerHour="63.680166648985576"/>
  <flow id="JF186728" begin="540" fromJunction="J3" toJunction="J7" end="600" vehsPerHour="50.09804445536228"/>
  <flow id="JF186729" begin="540" fromJunction="J3" toJunction="J5" end="600" vehsPerHour="114.35385995384097"/>
  <flow id="JF186730" begin="540" fromJunction="J3" toJunction="J6" end="600" vehsPerHour="16.27424949540415"/>
  <flow id="JF186731" begin="540" fromJunction="J0" toJunction="J4" end="600" vehsPerHour="95.77068720236244"/>
  <flow id="JF186732" begin="540" fromJunction="J0" toJunction="J7" end="600" vehsPerHour="122.5899501737762"/>
  <flow id="JF186733" begin="540" fromJunction="J0" toJunction="J5" end="600" vehsPerHour="46.3773765221416"/>
  <flow id="JF186734" begin="540" fromJunction="J0" toJunction="J6" end="600" vehsPerHour="94.8878303075877"/>
  <flow id="JF186735" begin="540" fromJunction="J4" toJunction="J7" end="600" vehsPerHour="20.85976563154522"/>
  <flow id="JF186736" begin="540" fromJunction="J4" toJunction="J5" end="600" vehsPerHour="60.593012207091455"/>
  <flow id="JF186737" begin="540" fromJunction="J4" toJunction="J6" end="600" vehsPerHour="13.899873385710022"/>
  <flow id="JF186738" begin="540" fromJunction="J7" toJunction="J4" end="600" vehsPerHour="32.37112358861067"/>
  <flow id="JF186739" begin="540" fromJunction="J7" toJunction="J5" end="600" vehsPerHour="39.26001455494254"/>
  <flow id="JF186740" begin="540" fromJunction="J7" toJunction="J6" end="600" vehsPerHour="28.28085009016631"/>
  <flow id="JF186741" begin="540" fromJunction="J5" toJunction="J4" end="600" vehsPerHour="16.039542968245158"/>
  <flow id="JF186742" begin="540" fromJunction="J5" toJunction="J7" end="600" vehsPerHour="14.442317137881593"/>
  <flow id="JF186743" begin="540" fromJunction="J5" toJunction="J6" end="600" vehsPerHour="46.19117162573379"/>
  <flow id="JF186744" begin="540" fromJunction="J6" toJunction="J4" end="600" vehsPerHour="8.911305269834692"/>
  <flow id="JF186745" begin="540" fromJunction="J6" toJunction="J7" end="600" vehsPerHour="10.975355042217158"/>
  <flow id="JF186746" begin="540" fromJunction="J6" toJunction="J5" end="600" vehsPerHour="28.86462585054564"/>
  <flow id="JF186747" begin="540" fromJunction="J4" toJunction="J3" end="600" vehsPerHour="41.267258457071996"/>
  <flow id="JF186748" begin="540" fromJunction="J4" toJunction="J0" end="600" vehsPerHour="45.350273971457746"/>
  <flow id="JF186749" begin="540" fromJunction="J7" toJunction="J3" end="600" vehsPerHour="36.31832043768376"/>
  <flow id="JF186750" begin="540" fromJunction="J7" toJunction="J0" end="600" vehsPerHour="1.9032290887323602"/>
  <flow id="JF186751" begin="540" fromJunction="J5" toJunction="J3" end="600" vehsPerHour="16.698901562791356"/>
  <flow id="JF186752" begin="540" fromJunction="J5" toJunction="J0" end="600" vehsPerHour="37.804338677441656"/>
  <flow id="JF186753" begin="540" fromJunction="J6" toJunction="J3" end="600" vehsPerHour="40.22259599830339"/>
  <flow id="JF186754" begin="540" fromJunction="J6" toJunction="J0" end="600" vehsPerHour="50.152377960605044"/>
  <flow id="JF186755" begin="600" fromJunction="J3" toJunction="J0" end="660" vehsPerHour="398.979239620378"/>
  <flow id="JF186756" begin="600" fromJunction="J0" toJunction="J3" end="660" vehsPerHour="443.39760891170585"/>
  <flow id="JF186757" begin="600" fromJunction="J3" toJunction="J4" end="660" vehsPerHour="62.02042350235661"/>
  <flow id="JF186758" begin="600" fromJunction="J3" toJunction="J7" end="660" vehsPerHour="124.88577005576491"/>
  <flow id="JF186759" begin="600" fromJunction="J3" toJunction="J5" end="660" vehsPerHour="128.8666827299273"/>
  <flow id="JF186760" begin="600" fromJunction="J3" toJunction="J6" end="660" vehsPerHour="59.98272850321556"/>
  <flow id="JF186761" begin="600" fromJunction="J0" toJunction="J4" end="660" vehsPerHour="12.688547317889375"/>
  <flow id="JF186762" begin="600" fromJunction="J0" toJunction="J7" end="660" vehsPerHour="41.54670145092782"/>
  <flow id="JF186763" begin="600" fromJunction="J0" toJunction="J5" end="660" vehsPerHour="5.249698385761472"/>
  <flow id="JF186764" begin="600" fromJunction="J0" toJunction="J6" end="660" vehsPerHour="9.822525937741561"/>
  <flow id="JF186765" begin="660" fromJunction="J3" toJunction="J0" end="720" vehsPerHour="545.7783470635792"/>
  <flow id="JF186766" begin="660" fromJunction="J0" toJunction="J3" end="720" vehsPerHour="356.4551217240941"/>
  <flow id="JF186767" begin="660" fromJunction="J3" toJunction="J4" end="720" vehsPerHour="105.73742050783054"/>
  <flow id="JF186768" begin="660" fromJunction="J3" toJunction="J7" end="720" vehsPerHour="111.31046879619974"/>
  <flow id="JF186769" begin="660" fromJunction="J3" toJunction="J5" end="720" vehsPerHour="26.87107665000654"/>
  <flow id="JF186770" begin="660" fromJunction="J3" toJunction="J6" end="720" vehsPerHour="20.3365823404792"/>
  <flow id="JF186771" begin="660" fromJunction="J0" toJunction="J4" end="720" vehsPerHour="90.66818142666328"/>
  <flow id="JF186772" begin="660" fromJunction="J0" toJunction="J7" end="720" vehsPerHour="78.95044404106535"/>
  <flow id="JF186773" begin="660" fromJunction="J0" toJunction="J5" end="720" vehsPerHour="133.49005278655858"/>
  <flow id="JF186774" begin="660" fromJunction="J0" toJunction="J6" end="720" vehsPerHour="12.752449512867216"/>
  <flow id="JF186775" begin="660" fromJunction="J4" toJunction="J7" end="720" vehsPerHour="9.290818451499097"/>
  <flow id="JF186776" begin="660" fromJunction="J4" toJunction="J5" end="720" vehsPerHour="24.879585469154673"/>
  <flow id="JF186777" begin="660" fromJunction="J4" toJunction="J6" end="720" vehsPerHour="11.041788641825582"/>
  <flow id="JF186778" begin="660" fromJunction="J7" toJunction="J4" end="720" vehsPerHour="33.14107727995547"/>
  <flow id="JF186779" begin="660" fromJunction="J7" toJunction="J5" end="720" vehsPerHour="4.989529749815884"/>
  <flow id="JF186780" begin="660" fromJunction="J7" toJunction="J6" end="720" vehsPerHour="17.7433470540307"/>
  <flow id="JF186781" begin="660" fromJunction="J5" toJunction="J4" end="720" vehsPerHour="3.8454554338144207"/>
  <flow id="JF186782" begin="660" fromJunction="J5" toJunction="J7" end="720" vehsPerHour="37.698891506284156"/>
  <flow id="JF186783" begin="660" fromJunction="J5" toJunction="J6" end="720" vehsPerHour="40.476940328218504"/>
  <flow id="JF186784" begin="660" fromJunction="J6" toJunction="J4" end="720" vehsPerHour="15.160713020173255"/>
  <flow id="JF186785" begin="660" fromJunction="J6" toJunction="J7" end="720" vehsPerHour="26.725975157566168"/>
  <flow id="JF186786" begin="660" fromJunction="J6" toJunction="J5" end="720" vehsPerHour="57.77426540957525"/>
  <flow id="JF186787" begin="660" fromJunction="J4" toJunction="J3" end="720" vehsPerHour="28.917428288991605"/>
  <flow id="JF186788" begin="660" fromJunction="J4" toJunction="J0" end="720" vehsPerHour="4.276349199377128"/>
  <flow id="JF186789" begin="660" fromJunction="J7" toJunction="J3" end="720" vehsPerHour="45.116231463981194"/>
  <flow id="JF186790" begin="660" fromJunction="J7" toJunction="J0" end="720" vehsPerHour="9.834105730114782"/>
  <flow id="JF186791" begin="660" fromJunction="J5" toJunction="J3" end="720" vehsPerHour="12.54386792976175"/>
  <flow id="JF186792" begin="660" fromJunction="J5" toJunction="J0" end="720" vehsPerHour="41.50197667098188"/>
  <flow id="JF186793" begin="660" fromJunction="J6" toJunction="J3" end="720" vehsPerHour="48.23129434470896"/>
  <flow id="JF186794" begin="660" fromJunction="J6" toJunction="J0" end="720" vehsPerHour="25.44048800154665"/>
  <flow id="JF186795" begin="720" fromJunction="J3" toJunction="J0" end="780" vehsPerHour="300.8460807038177"/>
  <flow id="JF186796" begin="720" fromJunction="J0" toJunction="J3" end="780" vehsPerHour="257.0548291615872"/>
  <flow id="JF186797" begin="720" fromJunction="J3" toJunction="J4" end="780" vehsPerHour="108.45296211846967"/>
  <flow id="JF186798" begin="720" fromJunction="J3" toJunction="J7" end="780" vehsPerHour="77.22663933712205"/>
  <flow id="JF186799" begin="720" fromJunction="J3" toJunction="J5" end="780" vehsPerHour="22.86633144026748"/>
  <flow id="JF186800" begin="720" fromJunction="J3" toJunction="J6" end="780" vehsPerHour="4.915581786270696"/>
  <flow id="JF186801" begin="720" fromJunction="J0" toJunction="J4" end="780" vehsPerHour="121.56253592935566"/>
  <flow id="JF186802" begin="720" fromJunction="J0" toJunction="J7" end="780" vehsPerHour="70.91331458072807"/>
  <flow id="JF186803" begin="720" fromJunction="J0" toJunction="J5" end="780" vehsPerHour="115.89117715737869"/>
  <flow id="JF186804" begin="720" fromJunction="J0" toJunction="J6" end="780" vehsPerHour="40.930526676761524"/>
  <flow id="JF186805" begin="780" fromJunction="J3" toJunction="J0" end="840" vehsPerHour="20.90710779908221"/>
  <flow id="JF186806" begin="780" fromJunction="J0" toJunction="J3" end="840" vehsPerHour="252.6163720098749"/>
  <flow id="JF186807" begin="780" fromJunction="J3" toJunction="J4" end="840" vehsPerHour="60.87312031494085"/>
  <flow id="JF186808" begin="780" fromJunction="J3" toJunction="J7" end="840" vehsPerHour="48.52417814495498"/>
  <flow id="JF186809" begin="780" fromJunction="J3" toJunction="J5" end="840" vehsPerHour="25.18760036993799"/>
  <flow id="JF186810" begin="780" fromJunction="J3" toJunction="J6" end="840" vehsPerHour="82.58800214554397"/>
  <flow id="JF186811" begin="780" fromJunction="J0" toJunction="J4" end="840" vehsPerHour="60.0087822299509"/>
  <flow id="JF186812" begin="780" fromJunction="J0" toJunction="J7" end="840" vehsPerHour="60.62967917981403"/>
  <flow id="JF186813" begin="780" fromJunction="J0" toJunction="J5" end="840" vehsPerHour="120.80258423023632"/>
  <flow id="JF186814" begin="780" fromJunction="J0" toJunction="J6" end="840" vehsPerHour="32.27564369671065"/>
  <flow id="JF186815" begin="840" fromJunction="J3" toJunction="J0" end="900" vehsPerHour="176.22126698185002"/>
  <flow id="JF186816" begin="840" fromJunction="J0" toJunction="J3" end="900" vehsPerHour="161.4184523720069"/>
  <flow id="JF186817" begin="840" fromJunction="J3" toJunction="J4" end="900" vehsPerHour="90.18366497627133"/>
  <flow id="JF186818" begin="840" fromJunction="J3" toJunction="J7" end="900" vehsPerHour="120.53604361899752"/>
  <flow id="JF186819" begin="840" fromJunction="J3" toJunction="J5" end="900" vehsPerHour="5.971731821001925"/>