<?xml version="1.0" encoding="UTF-8"?>
<routes xmlns:xsi="http://www.w3.org/2001/XMLSchema-instance" xsi:noNamespaceSchemaLocation="http://sumo.dlr.de/xsd/routes_file.xsd">
  <flow id="JF167800" begin="0" fromJunction="J3" toJunction="J0" end="60" vehsPerHour="243.87637458455634"/>
  <flow id="JF167801" begin="0" fromJunction="J0" toJunction="J3" end="60" vehsPerHour="512.6221604287504"/>
  <flow id="JF167802" begin="0" fromJunction="J3" toJunction="J4" end="60" vehsPerHour="105.42412462205651"/>
  <flow id="JF167803" begin="0" fromJunction="J3" toJunction="J7" end="60" vehsPerHour="29.83002065043959"/>
  <flow id="JF167804" begin="0" fromJunction="J3" toJunction="J5" end="60" vehsPerHour="113.15576911893663"/>
  <flow id="JF167805" begin="0" fromJunction="J3" toJunction="J6" end="60" vehsPerHour="62.608086789208286"/>
  <flow id="JF167806" begin="0" fromJunction="J0" toJunction="J4" end="60" vehsPerHour="62.7365223341614"/>
  <flow id="JF167807" begin="0" fromJunction="J0" toJunction="J7" end="60" vehsPerHour="54.0012126975104"/>
  <flow id="JF167808" begin="0" fromJunction="J0" toJunction="J5" end="60" vehsPerHour="56.2698708131904"/>
  <flow id="JF167809" begin="0" fromJunction="J0" toJunction="J6" end="60" vehsPerHour="54.25652693232807"/>
  <flow id="JF167810" begin="0" fromJunction="J4" toJunction="J7" end="60" vehsPerHour="34.14453748327811"/>
  <flow id="JF167811" begin="0" fromJunction="J4" toJunction="J5" end="60" vehsPerHour="44.12379097566392"/>
  <flow id="JF167812" begin="0" fromJunction="J4" toJunction="J6" end="60" vehsPerHour="47.07749339771355"/>
  <flow id="JF167813" begin="0" fromJunction="J7" toJunction="J4" end="60" vehsPerHour="3.159932275899786"/>
  <flow id="JF167814" begin="0" fromJunction="J7" toJunction="J5" end="60" vehsPerHour="57.82781712163318"/>
  <flow id="JF167815" begin="0" fromJunction="J7" toJunction="J6" end="60" vehsPerHour="24.94233777622701"/>
  <flow id="JF167816" begin="0" fromJunction="J5" toJunction="J4" end="60" vehsPerHour="58.91053109369023"/>
  <flow id="JF167817" begin="0" fromJunction="J5" toJunction="J7" end="60" vehsPerHour="26.300180477742177"/>
  <flow id="JF167818" begin="0" fromJunction="J5" toJunction="J6" end="60" vehsPerHour="62.28099111746107"/>
  <flow id="JF167819" begin="0" fromJunction="J6" toJunction="J4" end="60" vehsPerHour="21.148439003830322"/>
  <flow id="JF167820" begin="0" fromJunction="J6" toJunction="J7" end="60" vehsPerHour="20.801765530657534"/>
  <flow id="JF167821" begin="0" fromJunction="J6" toJunction="J5" end="60" vehsPerHour="38.72072989883013"/>
  <flow id="JF167822" begin="0" fromJunction="J4" toJunction="J3" end="60" vehsPerHour="42.570818044760735"/>
  <flow id="JF167823" begin="0" fromJunction="J4" toJunction="J0" end="60" vehsPerHour="36.59781504121395"/>
  <flow id="JF167824" begin="0" fromJunction="J7" toJunction="J3" end="60" vehsPerHour="19.22137188024018"/>
  <flow id="JF167825" begin="0" fromJunction="J7" toJunction="J0" end="60" vehsPerHour="11.82207983420211"/>
  <flow id="JF167826" begin="0" fromJunction="J5" toJunction="J3" end="60" vehsPerHour="28.590597233058816"/>
  <flow id="JF167827" begin="0" fromJunction="J5" toJunction="J0" end="60" vehsPerHour="35.52933884667778"/>
  <flow id="JF167828" begin="0" fromJunction="J6" toJunction="J3" end="60" vehsPerHour="48.38673383739506"/>
  <flow id="JF167829" begin="0" fromJunction="J6" toJunction="J0" end="60" vehsPerHour="21.758909156432633"/>
  <flow id="JF167830" begin="60" fromJunction="J3" toJunction="J0" end="120" vehsPerHour="363.74019780692674"/>
  <flow id="JF167831" begin="60" fromJunction="J0" toJunction="J3" end="120" vehsPerHour="331.7126507736498"/>
  <flow id="JF167832" begin="60" fromJunction="J3" toJunction="J4" end="120" vehsPerHour="56.2091500150954"/>
  <flow id="JF167833" begin="60" fromJunction="J3" toJunction="J7" end="120" vehsPerHour="39.35769117294552"/>
  <flow id="JF167834" begin="60" fromJunction="J3" toJunction="J5" end="120" vehsPerHour="1.661719453758189"/>
  <flow id="JF167835" begin="60" fromJunction="J3" toJunction="J6" end="120" vehsPerHour="80.95897152438229"/>
  <flow id="JF167836" begin="60" fromJunction="J0" toJunction="J4" end="120" vehsPerHour="90.57646749141581"/>
  <flow id="JF167837" begin="60" fromJunction="J0" toJunction="J7" end="120" vehsPerHour="65.19099769598537"/>
  <flow id="JF167838" begin="60" fromJunction="J0" toJunction="J5" end="120" vehsPerHour="77.86654271685961"/>
  <flow id="JF167839" begin="60" fromJunction="J0" toJunction="J6" end="120" vehsPerHour="113.71130961028786"/>
  <flow id="JF167840" begin="120" fromJunction="J3" toJunction="J0" end="180" vehsPerHour="244.8701353957988"/>
  <flow id="JF167841" begin="120" fromJunction="J0" toJunction="J3" end="180" vehsPerHour="196.5824642075367"/>
  <flow id="JF167842" begin="120" fromJunction="J3" toJunction="J4" end="180" vehsPerHour="59.42878656303499"/>
  <flow id="JF167843" begin="120" fromJunction="J3" toJunction="J7" end="180" vehsPerHour="12.967985188151632"/>
  <flow id="JF167844" begin="120" fromJunction="J3" toJunction="J5" end="180" vehsPerHour="28.910779467998495"/>
  <flow id="JF167845" begin="120" fromJunction="J3" toJunction="J6" end="180" vehsPerHour="34.669009136322764"/>
  <flow id="JF167846" begin="120" fromJunction="J0" toJunction="J4" end="180" vehsPerHour="38.415897559531885"/>
  <flow id="JF167847" begin="120" fromJunction="J0" toJunction="J7" end="180" vehsPerHour="65.2771019228839"/>
  <flow id="JF167848" begin="120" fromJunction="J0" toJunction="J5" end="180" vehsPerHour="118.68118436703914"/>
  <flow id="JF167849" begin="120" fromJunction="J0" toJunction="J6" end="180" vehsPerHour="3.6089952566856325"/>
  <flow id="JF167850" begin="120" fromJunction="J4" toJunction="J7" end="180" vehsPerHour="47.3546719461223"/>
  <flow id="JF167851" begin="120" fromJunction="J4" toJunction="J5" end="180" vehsPerHour="1.233937328684335"/>
  <flow id="JF167852" begin="120" fromJunction="J4" toJunction="J6" end="180" vehsPerHour="48.8221774422995"/>
  <flow id="JF167853" begin="120" fromJunction="J7" toJunction="J4" end="180" vehsPerHour="17.06777157689164"/>
  <flow id="JF167854" begin="120" fromJunction="J7" toJunction="J5" end="180" vehsPerHour="33.93028509238823"/>
  <flow id="JF167855" begin="120" fromJunction="J7" toJunction="J6" end="180" vehsPerHour="35.98475217388598"/>
  <flow id="JF167856" begin="120" fromJunction="J5" toJunction="J4" end="180" vehsPerHour="14.324974309187494"/>
  <flow id="JF167857" begin="120" fromJunction="J5" toJunction="J7" end="180" vehsPerHour="28.593770517015606"/>
  <flow id="JF167858" begin="120" fromJunction="J5" toJunction="J6" end="180" vehsPerHour="2.502429477878027"/>
  <flow id="JF167859" begin="120" fromJunction="J6" toJunction="J4" end="180" vehsPerHour="31.61487051015805"/>
  <flow id="JF167860" begin="120" fromJunction="J6" toJunction="J7" end="180" vehsPerHour="56.91395897122961"/>
  <flow id="JF167861" begin="120" fromJunction="J6" toJunction="J5" end="180" vehsPerHour="9.638386889898294"/>
  <flow id="JF167862" begin="120" fromJunction="J4" toJunction="J3" end="180" vehsPerHour="4.149044317680327"/>
  <flow id="JF167863" begin="120" fromJunction="J4" toJunction="J0" end="180" vehsPerHour="48.63324671519359"/>
  <flow id="JF167864" begin="120" fromJunction="J7" toJunction="J3" end="180" vehsPerHour="39.505418145764665"/>
  <flow id="JF167865" begin="120" fromJunction="J7" toJunction="J0" end="180" vehsPerHour="37.12303273942593"/>
  <flow id="JF167866" begin="120" fromJunction="J5" toJunction="J3" end="180" vehsPerHour="27.284431025512784"/>
  <flow id="JF167867" begin="120" fromJunction="J5" toJunction="J0" end="180" vehsPerHour="38.1992007539017"/>
  <flow id="JF167868" begin="120" fromJunction="J6" toJunction="J3" end="180" vehsPerHour="12.111445356530615"/>
  <flow id="JF167869" begin="120" fromJunction="J6" toJunction="J0" end="180" vehsPerHour="13.900435397030046"/>
  <flow id="JF167870" begin="180" fromJunction="J3" toJunction="J0" end="240" vehsPerHour="420.8726189097553"/>
  <flow id="JF167871" begin="180" fromJunction="J0" toJunction="J3" end="240" vehsPerHour="19.883284548523605"/>
  <flow id="JF167872" begin="180" fromJunction="J3" toJunction="J4" end="240" vehsPerHour="24.26607690070601"/>
  <flow id="JF167873" begin="180" fromJunction="J3" toJunction="J7" end="240" vehsPerHour="62.011332332516886"/>
  <flow id="JF167874" begin="180" fromJunction="J3" toJunction="J5" end="240" vehsPerHour="12.276680400645336"/>
  <flow id="JF167875" begin="180" fromJunction="J3" toJunction="J6" end="240" vehsPerHour="122.3051340093292"/>
  <flow id="JF167876" begin="180" fromJunction="J0" toJunction="J4" end="240" vehsPerHour="53.29368974161857"/>
  <flow id="JF167877" begin="180" fromJunction="J0" toJunction="J7" end="240" vehsPerHour="13.51059847962369"/>
  <flow id="JF167878" begin="180" fromJunction="J0" toJunction="J5" end="240" vehsPerHour="0.6838522532888696"/>
  <flow id="JF167879" begin="180" fromJunction="J0" toJunction="J6" end="240" vehsPerHour="65.49643942045118"/>
  <flow id="JF167880" begin="240" fromJunction="J3" toJunction="J0" end="300" vehsPerHour="383.120917734904"/>
  <flow id="JF167881" begin="240" fromJunction="J0" toJunction="J3" end="300" vehsPerHour="188.5992253790946"/>
  <flow id="JF167882" begin="240" fromJunction="J3" toJunction="J4" end="300" vehsPerHour="89.90727254212429"/>
  <flow id="JF167883" begin="240" fromJunction="J3" toJunction="J7" end="300" vehsPerHour="77.64652236018964"/>
  <flow id="JF167884" begin="240" fromJunction="J3" toJunction="J5" end="300" vehsPerHour="31.309493096666827"/>
  <flow id="JF167885" begin="240" fromJunction="J3" toJunction="J6" end="300" vehsPerHour="27.66352680332114"/>
  <flow id="JF167886" begin="240" fromJunction="J0" toJunction="J4" end="300" vehsPerHour="99.25065495987458"/>
  <flow id="JF167887" begin="240" fromJunction="J0" toJunction="J7" end="300" vehsPerHour="72.20323978025542"/>
  <flow id="JF167888" begin="240" fromJunction="J0" toJunction="J5" end="300" vehsPerHour="31.853827614481588"/>
  <flow id="JF167889" begin="240" fromJunction="J0" toJunction="J6" end="300" vehsPerHour="0.15272454557311774"/>
  <flow id="JF167890" begin="240" fromJunction="J4" toJunction="J7" end="300" vehsPerHour="46.56750670308513"/>
  <flow id="JF167891" begin="240" fromJunction="J4" toJunction="J5" end="300" vehsPerHour="11.260953009877337"/>
  <flow id="JF167892" begin="240" fromJunction="J4" toJunction="J6" end="300" vehsPerHour="51.33520933280498"/>
  <flow id="JF167893" begin="240" fromJunction="J7" toJunction="J4" end="300" vehsPerHour="32.34650702804368"/>
  <flow id="JF167894" begin="240" fromJunction="J7" toJunction="J5" end="300" vehsPerHour="28.845613102321582"/>
  <flow id="JF167895" begin="240" fromJunction="J7" toJunction="J6" end="300" vehsPerHour="46.6142349202943"/>
  <flow id="JF167896" begin="240" fromJunction="J5" toJunction="J4" end="300" vehsPerHour="54.04565080336803"/>
  <flow id="JF167897" begin="240" fromJunction="J5" toJunction="J7" end="300" vehsPerHour="40.266773794333936"/>
  <flow id="JF167898" begin="240" fromJunction="J5" toJunction="J6" end="300" vehsPerHour="44.65526258442346"/>
  <flow id="JF167899" begin="240" fromJunction="J6" toJunction="J4" end="300" vehsPerHour="4.287043637675528"/>
  <flow id="JF167900" begin="240" fromJunction="J6" toJunction="J7" end="300" vehsPerHour="38.75138054716216"/>
  <flow id="JF167901" begin="240" fromJunction="J6" toJunction="J5" end="300" vehsPerHour="3.2994701515365947"/>
  <flow id="JF167902" begin="240" fromJunction="J4" toJunction="J3" end="300" vehsPerHour="14.245510978354314"/>
  <flow id="JF167903" begin="240" fromJunction="J4" toJunction="J0" end="300" vehsPerHour="1.61540502330634"/>
  <flow id="JF167904" begin="240" fromJunction="J7" toJunction="J3" end="300" vehsPerHour="51.108724101912685"/>
  <flow id="JF167905" begin="240" fromJunction="J7" toJunction="J0" end="300" vehsPerHour="49.01997610465043"/>
  <flow id="JF167906" begin="240" fromJunction="J5" toJunction="J3" end="300" vehsPerHour="44.3347673133849"/>
  <flow id="JF167907" begin="240" fromJunction="J5" toJunction="J0" end="300" vehsPerHour="26.367111802647386"/>
  <flow id="JF167908" begin="240" fromJunction="J6" toJunction="J3" end="300" vehsPerHour="56.51109461967963"/>
  <flow id="JF167909" begin="240" fromJunction="J6" toJunction="J0" end="300" vehsPerHour="40.57161831501769"/>
  <flow id="JF167910" begin="300" fromJunction="J3" toJunction="J0" end="360" vehsPerHour="220.40639997201447"/>
  <flow id="JF167911" begin="300" fromJunction="J0" toJunction="J3" end="360" vehsPerHour="179.8110128926578"/>
  <flow id="JF167912" begin="300" fromJunction="J3" toJunction="J4" end="360" vehsPerHour="50.05261091461188"/>
  <flow id="JF167913" begin="300" fromJunction="J3" toJunction="J7" end="360" vehsPerHour="53.52119776453974"/>
  <flow id="JF167914" begin="300" fromJunction="J3" toJunction="J5" end="360" vehsPerHour="129.16512467380537"/>
  <flow id="JF167915" begin="300" fromJunction="J3" toJunction="J6" end="360" vehsPerHour="21.63508527571075"/>
  <flow id="JF167916" begin="300" fromJunction="J0" toJunction="J4" end="360" vehsPerHour="69.3028949710367"/>
  <flow id="JF167917" begin="300" fromJunction="J0" toJunction="J7" end="360" vehsPerHour="62.81563716285826"/>
  <flow id="JF167918" begin="300" fromJunction="J0" toJunction="J5" end="360" vehsPerHour="20.098781448132154"/>
  <flow id="JF167919" begin="300" fromJunction="J0" toJunction="J6" end="360" vehsPerHour="17.90193350237254"/>
  <flow id="JF167920" begin="360" fromJunction="J3" toJunction="J0" end="420" vehsPerHour="279.5470961426394"/>
  <flow id="JF167921" begin="360" fromJunction="J0" toJunction="J3" end="420" vehsPerHour="439.58562638979623"/>
  <flow id="JF167922" begin="360" fromJunction="J3" toJunction="J4" end="420" vehsPerHour="63.1786619811894"/>
  <flow id="JF167923" begin="360" fromJunction="J3" toJunction="J7" end="420" vehsPerHour="40.06299108568758"/>
  <flow id="JF167924" begin="360" fromJunction="J3" toJunction="J5" end="420" vehsPerHour="88.33124342905803"/>
  <flow id="JF167925" begin="360" fromJunction="J3" toJunction="J6" end="420" vehsPerHour="132.49142482454155"/>
  <flow id="JF167926" begin="360" fromJunction="J0" toJunction="J4" end="420" vehsPerHour="76.7745444839055"/>
  <flow id="JF167927" begin="360" fromJunction="J0" toJunction="J7" end="420" vehsPerHour="102.1348360929241"/>
  <flow id="JF167928" begin="360" fromJunction="J0" toJunction="J5" end="420" vehsPerHour="30.66508053023915"/>
  <flow id="JF167929" begin="360" fromJunction="J0" toJunction="J6" end="420" vehsPerHour="14.88891628433645"/>
  <flow id="JF167930" begin="360" fromJunction="J4" toJunction="J7" end="420" vehsPerHour="19.0875926133907"/>
  <flow id="JF167931" begin="360" fromJunction="J4" toJunction="J5" end="420" vehsPerHour="67.22744925567058"/>
  <flow id="JF167932" begin="360" fromJunction="J4" toJunction="J6" end="420" vehsPerHour="58.04682583643036"/>
  <flow id="JF167933" begin="360" fromJunction="J7" toJunction="J4" end="420" vehsPerHour="48.14974370273818"/>
  <flow id="JF167934" begin="360" fromJunction="J7" toJunction="J5" end="420" vehsPerHour="11.316806011577313"/>
  <flow id="JF167935" begin="360" fromJunction="J7" toJunction="J6" end="420" vehsPerHour="2.324044367592506"/>
  <flow id="JF167936" begin="360" fromJunction="J5" toJunction="J4" end="420" vehsPerHour="2.158542637283893"/>
  <flow id="JF167937" begin="360" fromJunction="J5" toJunction="J7" end="420" vehsPerHour="7.229873944625815"/>
  <flow id="JF167938" begin="360" fromJunction="J5" toJunction="J6" end="420" vehsPerHour="22.549921920043342"/>
  <flow id="JF167939" begin="360" fromJunction="J6" toJunction="J4" end="420" vehsPerHour="68.2371802573442"/>
  <flow id="JF167940" begin="360" fromJunction="J6" toJunction="J7" end="420" vehsPerHour="55.86366554867248"/>
  <flow id="JF167941" begin="360" fromJunction="J6" toJunction="J5" end="420" vehsPerHour="54.20258316878199"/>
  <flow id="JF167942" begin="360" fromJunction="J4" toJunction="J3" end="420" vehsPerHour="29.01431713146182"/>
  <flow id="JF167943" begin="360" fromJunction="J4" toJunction="J0" end="420" vehsPerHour="4.984097222575642"/>
  <flow id="JF167944" begin="360" fromJunction="J7" toJunction="J3" end="420" vehsPerHour="62.031970742020526"/>
  <flow id="JF167945" begin="360" fromJunction="J7" toJunction="J0" end="420" vehsPerHour="48.36388166965099"/>
  <flow id="JF167946" begin="360" fromJunction="J5" toJunction="J3" end="420" vehsPerHour="20.605966765595877"/>
  <flow id="JF167947" begin="360" fromJunction="J5" toJunction="J0" end="420" vehsPerHour="58.2510434922666"/>
  <flow id="JF167948" begin="360" fromJunction="J6" toJunction="J3" end="420" vehsPerHour="59.476170246343045"/>
  <flow id="JF167949" begin="360" fromJunction="J6" toJunction="J0" end="420" vehsPerHour="3.166663444475503"/>
  <flow id="JF167950" begin="420" fromJunction="J3" toJunction="J0" end="480" vehsPerHour="55.91740095989235"/>
  <flow id="JF167951" begin="420" fromJunction="J0" toJunction="J3" end="480" vehsPerHour="294.37224314137814"/>
  <flow id="JF167952" begin="420" fromJunction="J3" toJunction="J4" end="480" vehsPerHour="22.796425337055506"/>
  <flow id="JF167953" begin="420" fromJunction="J3" toJunction="J7" end="480" vehsPerHour="43.10781939884545"/>
  <flow id="JF167954" begin="420" fromJunction="J3" toJunction="J5" end="480" vehsPerHour="57.78276940122545"/>
  <flow id="JF167955" begin="420" fromJunction="J3" toJunction="J6" end="480" vehsPerHour="6.3043716096589275"/>
  <flow id="JF167956" begin="420" fromJunction="J0" toJunction="J4" end="480" vehsPerHour="46.290647894600426"/>
  <flow id="JF167957" begin="420" fromJunction="J0" toJunction="J7" end="480" vehsPerHour="114.99264029864668"/>
  <flow id="JF167958" begin="420" fromJunction="J0" toJunction="J5" end="480" vehsPerHour="114.67599275291705"/>
  <flow id="JF167959" begin="420" fromJunction="J0" toJunction="J6" end="480" vehsPerHour="129.775188899341"/>
  <flow id="JF167960" begin="420" fromJunction="J4" toJunction="J7" end="480" vehsPerHour="54.09888625803946"/>
  <flow id="JF167961" begin="420" fromJunction="J4" toJunction="J5" end="480" vehsPerHour="42.77354408917647"/>
  <flow id="JF167962" begin="420" fromJunction="J4" toJunction="J6" end="480" vehsPerHour="44.66345916047232"/>
  <flow id="JF167963" begin="420" fromJunction="J7" toJunction="J4" end="480" vehsPerHour="37.68257236979676"/>
  <flow id="JF167964" begin="420" fromJunction="J7" toJunction="J5" end="480" vehsPerHour="15.093557972721884"/>
  <flow id="JF167965" begin="420" fromJunction="J7" toJunction="J6" end="480" vehsPerHour="23.416351770644475"/>
  <flow id="JF167966" begin="420" fromJunction="J5" toJunction="J4" end="480" vehsPerHour="12.154225980624147"/>
  <flow id="JF167967" begin="420" fromJunction="J5" toJunction="J7" end="480" vehsPerHour="65.14560761863841"/>
  <flow id="JF167968" begin="420" fromJunction="J5" toJunction="J6" end="480" vehsPerHour="38.147231471175736"/>
  <flow id="JF167969" begin="420" fromJunction="J6" toJunction="J4" end="480" vehsPerHour="18.934705615009076"/>
  <flow id="JF167970" begin="420" fromJunction="J6" toJunction="J7" end="480" vehsPerHour="56.77871069663608"/>
  <flow id="JF167971" begin="420" fromJunction="J6" toJunction="J5" end="480" vehsPerHour="27.084677271306173"/>
  <flow id="JF167972" begin="420" fromJunction="J4" toJunction="J3" end="480" vehsPerHour="49.42622967579542"/>
  <flow id="JF167973" begin="420" fromJunction="J4" toJunction="J0" end="480" vehsPerHour="47.74881810433468"/>
  <flow id="JF167974" begin="420" fromJunction="J7" toJunction="J3" end="480" vehsPerHour="55.19151756995387"/>
  <flow id="JF167975" begin="420" fromJunction="J7" toJunction="J0" end="480" vehsPerHour="34.97790315379474"/>
  <flow id="JF167976" begin="420" fromJunction="J5" toJunction="J3" end="480" vehsPerHour="59.48123303627409"/>
  <flow id="JF167977" begin="420" fromJunction="J5" toJunction="J0" end="480" vehsPerHour="21.588907505265503"/>
  <flow id="JF167978" begin="420" fromJunction="J6" toJunction="J3" end="480" vehsPerHour="67.29407247461684"/>
  <flow id="JF167979" begin="420" fromJunction="J6" toJunction="J0" end="480" vehsPerHour="3.794952044127185"/>
  <flow id="JF167980" begin="480" fromJunction="J3" toJunction="J0" end="540" vehsPerHour="544.1810951707703"/>
  <flow id="JF167981" begin="480" fromJunction="J0" toJunction="J3" end="540" vehsPerHour="378.5311965756173"/>
  <flow id="JF167982" begin="480" fromJunction="J3" toJunction="J4" end="540" vehsPerHour="30.250832106707392"/>
  <flow id="JF167983" begin="480" fromJunction="J3" toJunction="J7" end="540" vehsPerHour="120.46523867880549"/>
  <flow id="JF167984" begin="480" fromJunction="J3" toJunction="J5" end="540" vehsPerHour="17.869916131963528"/>
  <flow id="JF167985" begin="480" fromJunction="J3" toJunction="J6" end="540" vehsPerHour="133.98475343109163"/>
  <flow id="JF167986" begin="480" fromJunction="J0" toJunction="J4" end="540" vehsPerHour="29.123117235836165"/>
  <flow id="JF167987" begin="480" fromJunction="J0" toJunction="J7" end="540" vehsPerHour="68.0148359246121"/>
  <flow id="JF167988" begin="480" fromJunction="J0" toJunction="J5" end="540" vehsPerHour="66.51200889356672"/>
  <flow id="JF167989" begin="480" fromJunction="J0" toJunction="J6" end="540" vehsPerHour="119.763025457158"/>
  <flow id="JF167990" begin="480" fromJunction="J4" toJunction="J7" end="540" vehsPerHour="16.98436900780797"/>
  <flow id="JF167991" begin="480" fromJunction="J4" toJunction="J5" end="540" vehsPerHour="10.739207046468803"/>
  <flow id="JF167992" begin="480" fromJunction="J4" toJunction="J6" end="540" vehsPerHour="43.521577701425954"/>
  <flow id="JF167993" begin="480" fromJunction="J7" toJunction="J4" end="540" vehsPerHour="32.713971777993564"/>
  <flow id="JF167994" begin="480" fromJunction="J7" toJunction="J5" end="540" vehsPerHour="66.37981324690398"/>
  <flow id="JF167995" begin="480" fromJunction="J7" toJunction="J6" end="540" vehsPerHour="12.55567437997388"/>
  <flow id="JF167996" begin="480" fromJunction="J5" toJunction="J4" end="540" vehsPerHour="38.3118675087226"/>
  <flow id="JF167997" begin="480" fromJunction="J5" toJunction="J7" end="540" vehsPerHour="4.048698464649547"/>
  <flow id="JF167998" begin="480" fromJunction="J5" toJunction="J6" end="540" vehsPerHour="58.435853721021566"/>
  <flow id="JF167999" begin="480" fromJunction="J6" toJunction="J4" end="540" vehsPerHour="64.27295411521631"/>
  <flow id="JF168000" begin="480" fromJunction="J6" toJunction="J7" end="540" vehsPerHour="55.48938492819461"/>
  <flow id="JF168001" begin="480" fromJunction="J6" toJunction="J5" end="540" vehsPerHour="61.82408217478814"/>
  <flow id="JF168002" begin="480" fromJunction="J4" toJunction="J3" end="540" vehsPerHour="25.774133135192645"/>
  <flow id="JF168003" begin="480" fromJunction="J4" toJunction="J0" end="540" vehsPerHour="60.778973562470746"/>
  <flow id="JF168004" begin="480" fromJunction="J7" toJunction="J3" end="540" vehsPerHour="56.05035892791113"/>
  <flow id="JF168005" begin="480" fromJunction="J7" toJunction="J0" end="540" vehsPerHour="20.108163793654125"/>
  <flow id="JF168006" begin="480" fromJunction="J5" toJunction="J3" end="540" vehsPerHour="34.88797475858256"/>
  <flow id="JF168007" begin="480" fromJunction="J5" toJunction="J0" end="540" vehsPerHour="27.908492256699308"/>
  <flow id="JF168008" begin="480" fromJunction="J6" toJunction="J3" end="540" vehsPerHour="3.6604133904323843"/>
  <flow id="JF168009" begin="480" fromJunction="J6" toJunction="J0" end="540" vehsPerHour="45.5531216859376"/>
  <flow id="JF168010" begin="540" fromJunction="J3" toJunction="J0" end="600" vehsPerHour="250.4090344801269"/>
  <flow id="JF168011" begin="540" fromJunction="J0" toJunction="J3" end="600" vehsPerHour="86.01330603943025"/>
  <flow id="JF168012" begin="540" fromJunction="J3" toJunction="J4" end="600" vehsPerHour="6.3683099505967276"/>
  <flow id="JF168013" begin="540" fromJunction="J3" toJunction="J7" end="600" vehsPerHour="122.13985052125206"/>
  <flow id="JF168014" begin="540" fromJunction="J3" toJunction="J5" end="600" vehsPerHour="79.764197904403"/>
  <flow id="JF168015" begin="540" fromJunction="J3" toJunction="J6" end="600" vehsPerHour="111.96665012810195"/>
  <flow id="JF168016" begin="540" fromJunction="J0" toJunction="J4" end="600" vehsPerHour="54.02555138227125"/>
  <flow id="JF168017" begin="540" fromJunction="J0" toJunction="J7" end="600" vehsPerHour="25.061524521947455"/>
  <flow id="JF168018" begin="540" fromJunction="J0" toJunction="J5" end="600" vehsPerHour="62.33920463509745"/>
  <flow id="JF168019" begin="540" fromJunction="J0" toJunction="J6" end="600" vehsPerHour="17.80736074683463"/>
  <flow id="JF168020" begin="600" fromJunction="J3" toJunction="J0" end="660" vehsPerHour="80.0729172958904"/>
  <flow id="JF168021" begin="600" fromJunction="J0" toJunction="J3" end="660" vehsPerHour="130.1371014562102"/>
  <flow id="JF168022" begin="600" fromJunction="J3" toJunction="J4" end="660" vehsPerHour="32.73951766288793"/>
  <flow id="JF168023" begin="600" fromJunction="J3" toJunction="J7" end="660" vehsPerHour="5.539286651381253"/>
  <flow id="JF168024" begin="600" fromJunction="J3" toJunction="J5" end="660" vehsPerHour="54.90580205285288"/>
  <flow id="JF168025" begin="600" fromJunction="J3" toJunction="J6" end="660" vehsPerHour="4.443209251753915"/>
  <flow id="JF168026" begin="600" fromJunction="J0" toJunction="J4" end="660" vehsPerHour="85.28869324795627"/>
  <flow id="JF168027" begin="600" fromJunction="J0" toJunction="J7" end="660" vehsPerHour="78.33209938478734"/>
  <flow id="JF168028" begin="600" fromJunction="J0" toJunction="J5" end="660" vehsPerHour="81.19840999812459"/>
  <flow id="JF168029" begin="600" fromJunction="J0" toJunction="J6" end="660" vehsPerHour="124.61014253849122"/>
  <flow id="JF168030" begin="660" fromJunction="J3" toJunction="J0" end="720" vehsPerHour="144.2665950127382"/>
  <flow id="JF168031" begin="660" fromJunction="J0" toJunction="J3" end="720" vehsPerHour="47.579295997298686"/>
  <flow id="JF168032" begin="660" fromJunction="J3" toJunction="J4" end="720" vehsPerHour="62.95938902828683"/>
  <flow id="JF168033" begin="660" fromJunction="J3" toJunction="J7" end="720" vehsPerHour="74.43526214357033"/>
  <flow id="JF168034" begin="660" fromJunction="J3" toJunction="J5" end="720" vehsPerHour="62.8902465455894"/>
  <flow id="JF168035" begin="660" fromJunction="J3" toJunction="J6" end="720" vehsPerHour="100.45448098523376"/>
  <flow id="JF168036" begin="660" fromJunction="J0" toJunction="J4" end="720" vehsPerHour="102.62512672006999"/>
  <flow id="JF168037" begin="660" fromJunction="J0" toJunction="J7" end="720" vehsPerHour="107.91174209558218"/>
  <flow id="JF168038" begin="660" fromJunction="J0" toJunction="J5" end="720" vehsPerHour="133.51417305190267"/>
  <flow id="JF168039" begin="660" fromJunction="J0" toJunction="J6" end="720" vehsPerHour="102.67747270680727"/>
  <flow id="JF168040" begin="660" fromJunction="J4" toJunction="J7" end="720" vehsPerHour="5.528037393600035"/>
  <flow id="JF168041" begin="660" fromJunction="J4" toJunction="J5" end="720" vehsPerHour="4.995877223500343"/>
  <flow id="JF168042" begin="660" fromJunction="J4" toJunction="J6" end="720" vehsPerHour="40.06631713415273"/>
  <flow id="JF168043" begin="660" fromJunction="J7" toJunction="J4" end="720" vehsPerHour="8.683759298841924"/>
  <flow id="JF168044" begin="660" fromJunction="J7" toJunction="J5" end="720" vehsPerHour="2.4499420435918093"/>
  <flow id="JF168045" begin="660" fromJunction="J7" toJunction="J6" end="720" vehsPerHour="32.5805050198789"/>
  <flow id="JF168046" begin="660" fromJunction="J5" toJunction="J4" end="720" vehsPerHour="28.76624657511565"/>
  <flow id="JF168047" begin="660" fromJunction="J5" toJunction="J7" end="720" vehsPerHour="67.72477615389514"/>
  <flow id="JF168048" begin="660" fromJunction="J5" toJunction="J6" end="720" vehsPerHour="54.22577736339588"/>
  <flow id="JF168049" begin="660" fromJunction="J6" toJunction="J4" end="720" vehsPerHour="2.3367141894162473"/>
  <flow id="JF168050" begin="660" fromJunction="J6" toJunction="J7" end="720" vehsPerHour="7.6724757346829655"/>
  <flow id="JF168051" begin="660" fromJunction="J6" toJunction="J5" end="720" vehsPerHour="26.43168753976754"/>
  <flow id="JF168052" begin="660" fromJunction="J4" toJunction="J3" end="720" vehsPerHour="26.256531183082622"/>
  <flow id="JF168053" begin="660" fromJunction="J4" toJunction="J0" end="720" vehsPerHour="64.66527196803233"/>
  <flow id="JF168054" begin="660" fromJunction="J7" toJunction="J3" end="720" vehsPerHour="8.74279057107443"/>
  <flow id="JF168055" begin="660" fromJunction="J7" toJunction="J0" end="720" vehsPerHour="49.81981901352294"/>
  <flow id="JF168056" begin="660" fromJunction="J5" toJunction="J3" end="720" vehsPerHour="54.384974702574496"/>
  <flow id="JF168057" begin="660" fromJunction="J5" toJunction="J0" end="720" vehsPerHour="54.34444273959694"/>
  <flow id="JF168058" begin="660" fromJunction="J6" toJunction="J3" end="720" vehsPerHour="29.377383482167915"/>
  <flow id="JF168059" begin="660" fromJunction="J6" toJunction="J0" end="720" vehsPerHour="3.8799009811100356"/>
  <flow id="JF168060" begin="720" fromJunction="J3" toJunction="J0" end="780" vehsPerHour="422.715710042392"/>
  <flow id="JF168061" begin="720" fromJunction="J0" toJunction="J3" end="780" vehsPerHour="416.5154254066438"/>
  <flow id="JF168062" begin="720" fromJunction="J3" toJunction="J4" end="780" vehsPerHour="100.0773197292729"/>
  <flow id="JF168063" begin="720" fromJunction="J3" toJunction="J7" end="780" vehsPerHour="37.3098078129523"/>
  <flow id="JF168064" begin="720" fromJunction="J3" toJunction="J5" end="780" vehsPerHour="57.41132696660557"/>
  <flow id="JF168065" begin="720" fromJunction="J3" toJunction="J6" end="780" vehsPerHour="31.892556581638015"/>