<?xml version="1.0" encoding="UTF-8"?>
<routes xmlns:xsi="http://www.w3.org/2001/XMLSchema-instance" xsi:noNamespaceSchemaLocation="http://sumo.dlr.de/xsd/routes_file.xsd">
  <flow id="JF175488" begin="0" fromJunction="J3" toJunction="J0" end="60" vehsPerHour="303.30292364481477"/>
  <flow id="JF175489" begin="0" fromJunction="J0" toJunction="J3" end="60" vehsPerHour="351.0676649047543"/>
  <flow id="JF175490" begin="0" fromJunction="J3" toJunction="J4" end="60" vehsPerHour="132.95825546238578"/>
  <flow id="JF175491" begin="0" fromJunction="J3" toJunction="J7" end="60" vehsPerHour="22.134560179086556"/>
  <flow id="JF175492" begin="0" fromJunction="J3" toJunction="J5" end="60" vehsPerHour="6.7557709282309295"/>
  <flow id="JF175493" begin="0" fromJunction="J3" toJunction="J6" end="60" vehsPerHour="89.65263941152578"/>
  <flow id="JF175494" begin="0" fromJunction="J0" toJunction="J4" end="60" vehsPerHour="18.274215984933477"/>
  <flow id="JF175495" begin="0" fromJunction="J0" toJunction="J7" end="60" vehsPerHour="64.30455399029252"/>
  <flow id="JF175496" begin="0" fromJunction="J0" toJunction="J5" end="60" vehsPerHour="109.81028758593749"/>
  <flow id="JF175497" begin="0" fromJunction="J0" toJunction="J6" end="60" vehsPerHour="64.15810787796799"/>
  <flow id="JF175498" begin="0" fromJunction="J4" toJunction="J7" end="60" vehsPerHour="67.53897461939476"/>
  <flow id="JF175499" begin="0" fromJunction="J4" toJunction="J5" end="60" vehsPerHour="9.02232779562386"/>
  <flow id="JF175500" begin="0" fromJunction="J4" toJunction="J6" end="60" vehsPerHour="48.81621923026253"/>
  <flow id="JF175501" begin="0" fromJunction="J7" toJunction="J4" end="60" vehsPerHour="5.100590111953776"/>
  <flow id="JF175502" begin="0" fromJunction="J7" toJunction="J5" end="60" vehsPerHour="21.01947385997953"/>
  <flow id="JF175503" begin="0" fromJunction="J7" toJunction="J6" end="60" vehsPerHour="54.529007739134826"/>
  <flow id="JF175504" begin="0" fromJunction="J5" toJunction="J4" end="60" vehsPerHour="17.261250271146917"/>
  <flow id="JF175505" begin="0" fromJunction="J5" toJunction="J7" end="60" vehsPerHour="16.482473009646096"/>
  <flow id="JF175506" begin="0" fromJunction="J5" toJunction="J6" end="60" vehsPerHour="36.92640500603359"/>
  <flow id="JF175507" begin="0" fromJunction="J6" toJunction="J4" end="60" vehsPerHour="3.6631305676255237"/>
  <flow id="JF175508" begin="0" fromJunction="J6" toJunction="J7" end="60" vehsPerHour="53.731791403149835"/>
  <flow id="JF175509" begin="0" fromJunction="J6" toJunction="J5" end="60" vehsPerHour="0.8483636469998789"/>
  <flow id="JF175510" begin="0" fromJunction="J4" toJunction="J3" end="60" vehsPerHour="68.62325995891828"/>
  <flow id="JF175511" begin="0" fromJunction="J4" toJunction="J0" end="60" vehsPerHour="50.21158096270202"/>
  <flow id="JF175512" begin="0" fromJunction="J7" toJunction="J3" end="60" vehsPerHour="7.373649798833446"/>
  <flow id="JF175513" begin="0" fromJunction="J7" toJunction="J0" end="60" vehsPerHour="40.932883534370816"/>
  <flow id="JF175514" begin="0" fromJunction="J5" toJunction="J3" end="60" vehsPerHour="30.56983642355443"/>
  <flow id="JF175515" begin="0" fromJunction="J5" toJunction="J0" end="60" vehsPerHour="30.707698852120846"/>
  <flow id="JF175516" begin="0" fromJunction="J6" toJunction="J3" end="60" vehsPerHour="1.1590943228756896"/>
  <flow id="JF175517" begin="0" fromJunction="J6" toJunction="J0" end="60" vehsPerHour="5.051189833192575"/>
  <flow id="JF175518" begin="60" fromJunction="J3" toJunction="J0" end="120" vehsPerHour="77.79376855269795"/>
  <flow id="JF175519" begin="60" fromJunction="J0" toJunction="J3" end="120" vehsPerHour="512.4720397146722"/>
  <flow id="JF175520" begin="60" fromJunction="J3" toJunction="J4" end="120" vehsPerHour="121.20891054959304"/>
  <flow id="JF175521" begin="60" fromJunction="J3" toJunction="J7" end="120" vehsPerHour="19.82524644944901"/>
  <flow id="JF175522" begin="60" fromJunction="J3" toJunction="J5" end="120" vehsPerHour="97.85288903337543"/>
  <flow id="JF175523" begin="60" fromJunction="J3" toJunction="J6" end="120" vehsPerHour="105.51768284011241"/>
  <flow id="JF175524" begin="60" fromJunction="J0" toJunction="J4" end="120" vehsPerHour="98.69165373096564"/>
  <flow id="JF175525" begin="60" fromJunction="J0" toJunction="J7" end="120" vehsPerHour="25.61306549214538"/>
  <flow id="JF175526" begin="60" fromJunction="J0" toJunction="J5" end="120" vehsPerHour="20.80751462606028"/>
  <flow id="JF175527" begin="60" fromJunction="J0" toJunction="J6" end="120" vehsPerHour="96.29603055411829"/>
  <flow id="JF175528" begin="60" fromJunction="J4" toJunction="J7" end="120" vehsPerHour="22.689254574384275"/>
  <flow id="JF175529" begin="60" fromJunction="J4" toJunction="J5" end="120" vehsPerHour="56.072680195778396"/>
  <flow id="JF175530" begin="60" fromJunction="J4" toJunction="J6" end="120" vehsPerHour="47.377082229964316"/>
  <flow id="JF175531" begin="60" fromJunction="J7" toJunction="J4" end="120" vehsPerHour="53.75376723884884"/>
  <flow id="JF175532" begin="60" fromJunction="J7" toJunction="J5" end="120" vehsPerHour="48.3591935760442"/>
  <flow id="JF175533" begin="60" fromJunction="J7" toJunction="J6" end="120" vehsPerHour="14.4039581321757"/>
  <flow id="JF175534" begin="60" fromJunction="J5" toJunction="J4" end="120" vehsPerHour="20.48448164035934"/>
  <flow id="JF175535" begin="60" fromJunction="J5" toJunction="J7" end="120" vehsPerHour="62.564548296047114"/>
  <flow id="JF175536" begin="60" fromJunction="J5" toJunction="J6" end="120" vehsPerHour="31.678018979145694"/>
  <flow id="JF175537" begin="60" fromJunction="J6" toJunction="J4" end="120" vehsPerHour="15.866958498694654"/>
  <flow id="JF175538" begin="60" fromJunction="J6" toJunction="J7" end="120" vehsPerHour="37.988511876451796"/>
  <flow id="JF175539" begin="60" fromJunction="J6" toJunction="J5" end="120" vehsPerHour="51.277332827824175"/>
  <flow id="JF175540" begin="60" fromJunction="J4" toJunction="J3" end="120" vehsPerHour="11.8042299783936"/>
  <flow id="JF175541" begin="60" fromJunction="J4" toJunction="J0" end="120" vehsPerHour="17.63385230647323"/>
  <flow id="JF175542" begin="60" fromJunction="J7" toJunction="J3" end="120" vehsPerHour="6.4251291597270015"/>
  <flow id="JF175543" begin="60" fromJunction="J7" toJunction="J0" end="120" vehsPerHour="9.562214603752082"/>
  <flow id="JF175544" begin="60" fromJunction="J5" toJunction="J3" end="120" vehsPerHour="27.094451542313898"/>
  <flow id="JF175545" begin="60" fromJunction="J5" toJunction="J0" end="120" vehsPerHour="13.157803887330461"/>
  <flow id="JF175546" begin="60" fromJunction="J6" toJunction="J3" end="120" vehsPerHour="23.050636214890737"/>
  <flow id="JF175547" begin="60" fromJunction="J6" toJunction="J0" end="120" vehsPerHour="5.148383160258055"/>
  <flow id="JF175548" begin="120" fromJunction="J3" toJunction="J0" end="180" vehsPerHour="471.7317177871695"/>
  <flow id="JF175549" begin="120" fromJunction="J0" toJunction="J3" end="180" vehsPerHour="373.6871895086873"/>
  <flow id="JF175550" begin="120" fromJunction="J3" toJunction="J4" end="180" vehsPerHour="119.07026038646396"/>
  <flow id="JF175551" begin="120" fromJunction="J3" toJunction="J7" end="180" vehsPerHour="20.654112266605114"/>
  <flow id="JF175552" begin="120" fromJunction="J3" toJunction="J5" end="180" vehsPerHour="2.33034746185529"/>
  <flow id="JF175553" begin="120" fromJunction="J3" toJunction="J6" end="180" vehsPerHour="52.4456728798891"/>
  <flow id="JF175554" begin="120" fromJunction="J0" toJunction="J4" end="180" vehsPerHour="113.82252422235025"/>
  <flow id="JF175555" begin="120" fromJunction="J0" toJunction="J7" end="180" vehsPerHour="47.944347398379335"/>
  <flow id="JF175556" begin="120" fromJunction="J0" toJunction="J5" end="180" vehsPerHour="77.46672411836705"/>
  <flow id="JF175557" begin="120" fromJunction="J0" toJunction="J6" end="180" vehsPerHour="89.23108809712326"/>
  <flow id="JF175558" begin="180" fromJunction="J3" toJunction="J0" end="240" vehsPerHour="158.06314068297033"/>
  <flow id="JF175559" begin="180" fromJunction="J0" toJunction="J3" end="240" vehsPerHour="323.08867527020885"/>
  <flow id="JF175560" begin="180" fromJunction="J3" toJunction="J4" end="240" vehsPerHour="33.789300282867075"/>
  <flow id="JF175561" begin="180" fromJunction="J3" toJunction="J7" end="240" vehsPerHour="111.8496366378001"/>
  <flow id="JF175562" begin="180" fromJunction="J3" toJunction="J5" end="240" vehsPerHour="12.276934492530678"/>
  <flow id="JF175563" begin="180" fromJunction="J3" toJunction="J6" end="240" vehsPerHour="40.31696156130575"/>
  <flow id="JF175564" begin="180" fromJunction="J0" toJunction="J4" end="240" vehsPerHour="105.30036687243361"/>
  <flow id="JF175565" begin="180" fromJunction="J0" toJunction="J7" end="240" vehsPerHour="68.30653196136161"/>
  <flow id="JF175566" begin="180" fromJunction="J0" toJunction="J5" end="240" vehsPerHour="48.087418898548265"/>
  <flow id="JF175567" begin="180" fromJunction="J0" toJunction="J6" end="240" vehsPerHour="111.23048010995596"/>
  <flow id="JF175568" begin="240" fromJunction="J3" toJunction="J0" end="300" vehsPerHour="165.60619910969038"/>
  <flow id="JF175569" begin="240" fromJunction="J0" toJunction="J3" end="300" vehsPerHour="7.375636392023879"/>
  <flow id="JF175570" begin="240" fromJunction="J3" toJunction="J4" end="300" vehsPerHour="20.616886548815486"/>
  <flow id="JF175571" begin="240" fromJunction="J3" toJunction="J7" end="300" vehsPerHour="61.277384847911435"/>
  <flow id="JF175572" begin="240" fromJunction="J3" toJunction="J5" end="300" vehsPerHour="108.24984837881847"/>
  <flow id="JF175573" begin="240" fromJunction="J3" toJunction="J6" end="300" vehsPerHour="13.953619967408587"/>
  <flow id="JF175574" begin="240" fromJunction="J0" toJunction="J4" end="300" vehsPerHour="23.46884545847046"/>
  <flow id="JF175575" begin="240" fromJunction="J0" toJunction="J7" end="300" vehsPerHour="19.691211874954853"/>
  <flow id="JF175576" begin="240" fromJunction="J0" toJunction="J5" end="300" vehsPerHour="130.60884234694197"/>
  <flow id="JF175577" begin="240" fromJunction="J0" toJunction="J6" end="300" vehsPerHour="130.25702335788063"/>
  <flow id="JF175578" begin="240" fromJunction="J4" toJunction="J7" end="300" vehsPerHour="25.800820417574744"/>
  <flow id="JF175579" begin="240" fromJunction="J4" toJunction="J5" end="300" vehsPerHour="23.860373158684904"/>
  <flow id="JF175580" begin="240" fromJunction="J4" toJunction="J6" end="300" vehsPerHour="11.611418462316852"/>
  <flow id="JF175581" begin="240" fromJunction="J7" toJunction="J4" end="300" vehsPerHour="31.566463421556907"/>
  <flow id="JF175582" begin="240" fromJunction="J7" toJunction="J5" end="300" vehsPerHour="1.870053270782175"/>
  <flow id="JF175583" begin="240" fromJunction="J7" toJunction="J6" end="300" vehsPerHour="26.896163377242292"/>
  <flow id="JF175584" begin="240" fromJunction="J5" toJunction="J4" end="300" vehsPerHour="8.238113425244686"/>
  <flow id="JF175585" begin="240" fromJunction="J5" toJunction="J7" end="300" vehsPerHour="32.538097834015026"/>
  <flow id="JF175586" begin="240" fromJunction="J5" toJunction="J6" end="300" vehsPerHour="53.543800124423996"/>
  <flow id="JF175587" begin="240" fromJunction="J6" toJunction="J4" end="300" vehsPerHour="50.894318681079966"/>
  <flow id="JF175588" begin="240" fromJunction="J6" toJunction="J7" end="300" vehsPerHour="44.170717669212884"/>
  <flow id="JF175589" begin="240" fromJunction="J6" toJunction="J5" end="300" vehsPerHour="10.274357415903339"/>
  <flow id="JF175590" begin="240" fromJunction="J4" toJunction="J3" end="300" vehsPerHour="58.00441743115242"/>
  <flow id="JF175591" begin="240" fromJunction="J4" toJunction="J0" end="300" vehsPerHour="3.620378569041464"/>
  <flow id="JF175592" begin="240" fromJunction="J7" toJunction="J3" end="300" vehsPerHour="21.19423412650345"/>
  <flow id="JF175593" begin="240" fromJunction="J7" toJunction="J0" end="300" vehsPerHour="31.853260080889477"/>
  <flow id="JF175594" begin="240" fromJunction="J5" toJunction="J3" end="300" vehsPerHour="31.669991316699083"/>
  <flow id="JF175595" begin="240" fromJunction="J5" toJunction="J0" end="300" vehsPerHour="54.068120798922735"/>
  <flow id="JF175596" begin="240" fromJunction="J6" toJunction="J3" end="300" vehsPerHour="58.49528994049897"/>
  <flow id="JF175597" begin="240" fromJunction="J6" toJunction="J0" end="300" vehsPerHour="23.08628192514338"/>
  <flow id="JF175598" begin="300" fromJunction="J3" toJunction="J0" end="360" vehsPerHour="444.2220745928638"/>
  <flow id="JF175599" begin="300" fromJunction="J0" toJunction="J3" end="360" vehsPerHour="255.07753164765992"/>
  <flow id="JF175600" begin="300" fromJunction="J3" toJunction="J4" end="360" vehsPerHour="35.24571538712581"/>
  <flow id="JF175601" begin="300" fromJunction="J3" toJunction="J7" end="360" vehsPerHour="2.894020210143864"/>
  <flow id="JF175602" begin="300" fromJunction="J3" toJunction="J5" end="360" vehsPerHour="23.080777248054805"/>
  <flow id="JF175603" begin="300" fromJunction="J3" toJunction="J6" end="360" vehsPerHour="107.54240463010653"/>
  <flow id="JF175604" begin="300" fromJunction="J0" toJunction="J4" end="360" vehsPerHour="66.13254030145178"/>
  <flow id="JF175605" begin="300" fromJunction="J0" toJunction="J7" end="360" vehsPerHour="130.59226304195786"/>
  <flow id="JF175606" begin="300" fromJunction="J0" toJunction="J5" end="360" vehsPerHour="22.484951774831956"/>
  <flow id="JF175607" begin="300" fromJunction="J0" toJunction="J6" end="360" vehsPerHour="29.177553762600116"/>
  <flow id="JF175608" begin="300" fromJunction="J4" toJunction="J7" end="360" vehsPerHour="23.736808210126767"/>
  <flow id="JF175609" begin="300" fromJunction="J4" toJunction="J5" end="360" vehsPerHour="4.024857965009646"/>
  <flow id="JF175610" begin="300" fromJunction="J4" toJunction="J6" end="360" vehsPerHour="11.375943174036852"/>
  <flow id="JF175611" begin="300" fromJunction="J7" toJunction="J4" end="360" vehsPerHour="65.09027850583662"/>
  <flow id="JF175612" begin="300" fromJunction="J7" toJunction="J5" end="360" vehsPerHour="8.873872116373617"/>
  <flow id="JF175613" begin="300" fromJunction="J7" toJunction="J6" end="360" vehsPerHour="53.98171495934318"/>
  <flow id="JF175614" begin="300" fromJunction="J5" toJunction="J4" end="360" vehsPerHour="38.22053637739709"/>
  <flow id="JF175615" begin="300" fromJunction="J5" toJunction="J7" end="360" vehsPerHour="57.499697538369986"/>
  <flow id="JF175616" begin="300" fromJunction="J5" toJunction="J6" end="360" vehsPerHour="59.63180361842481"/>
  <flow id="JF175617" begin="300" fromJunction="J6" toJunction="J4" end="360" vehsPerHour="58.490024674293046"/>
  <flow id="JF175618" begin="300" fromJunction="J6" toJunction="J7" end="360" vehsPerHour="64.3300951906201"/>
  <flow id="JF175619" begin="300" fromJunction="J6" toJunction="J5" end="360" vehsPerHour="54.07308937635123"/>
  <flow id="JF175620" begin="300" fromJunction="J4" toJunction="J3" end="360" vehsPerHour="23.628236128890908"/>
  <flow id="JF175621" begin="300" fromJunction="J4" toJunction="J0" end="360" vehsPerHour="46.6768952781289"/>
  <flow id="JF175622" begin="300" fromJunction="J7" toJunction="J3" end="360" vehsPerHour="68.37784204264277"/>
  <flow id="JF175623" begin="300" fromJunction="J7" toJunction="J0" end="360" vehsPerHour="39.333742772310565"/>
  <flow id="JF175624" begin="300" fromJunction="J5" toJunction="J3" end="360" vehsPerHour="9.271397102798074"/>
  <flow id="JF175625" begin="300" fromJunction="J5" toJunction="J0" end="360" vehsPerHour="14.508591758961263"/>
  <flow id="JF175626" begin="300" fromJunction="J6" toJunction="J3" end="360" vehsPerHour="47.303190454974995"/>
  <flow id="JF175627" begin="300" fromJunction="J6" toJunction="J0" end="360" vehsPerHour="13.126744128301892"/>
  <flow id="JF175628" begin="360" fromJunction="J3" toJunction="J0" end="420" vehsPerHour="415.6408274492414"/>
  <flow id="JF175629" begin="360" fromJunction="J0" toJunction="J3" end="420" vehsPerHour="478.90151184366516"/>
  <flow id="JF175630" begin="360" fromJunction="J3" toJunction="J4" end="420" vehsPerHour="135.08815080462557"/>
  <flow id="JF175631" begin="360" fromJunction="J3" toJunction="J7" end="420" vehsPerHour="122.62422215414848"/>
  <flow id="JF175632" begin="360" fromJunction="J3" toJunction="J5" end="420" vehsPerHour="117.19738300717843"/>
  <flow id="JF175633" begin="360" fromJunction="J3" toJunction="J6" end="420" vehsPerHour="131.03390647228815"/>
  <flow id="JF175634" begin="360" fromJunction="J0" toJunction="J4" end="420" vehsPerHour="112.52900586992179"/>
  <flow id="JF175635" begin="360" fromJunction="J0" toJunction="J7" end="420" vehsPerHour="113.19723027186991"/>
  <flow id="JF175636" begin="360" fromJunction="J0" toJunction="J5" end="420" vehsPerHour="83.95133411520429"/>
  <flow id="JF175637" begin="360" fromJunction="J0" toJunction="J6" end="420" vehsPerHour="8.524025199275938"/>
  <flow id="JF175638" begin="360" fromJunction="J4" toJunction="J7" end="420" vehsPerHour="60.758593480593525"/>
  <flow id="JF175639" begin="360" fromJunction="J4" toJunction="J5" end="420" vehsPerHour="51.13089565205452"/>
  <flow id="JF175640" begin="360" fromJunction="J4" toJunction="J6" end="420" vehsPerHour="17.674591835290926"/>
  <flow id="JF175641" begin="360" fromJunction="J7" toJunction="J4" end="420" vehsPerHour="67.78545231955792"/>
  <flow id="JF175642" begin="360" fromJunction="J7" toJunction="J5" end="420" vehsPerHour="14.32538598856257"/>
  <flow id="JF175643" begin="360" fromJunction="J7" toJunction="J6" end="420" vehsPerHour="6.371095919537211"/>
  <flow id="JF175644" begin="360" fromJunction="J5" toJunction="J4" end="420" vehsPerHour="11.904108016474535"/>
  <flow id="JF175645" begin="360" fromJunction="J5" toJunction="J7" end="420" vehsPerHour="63.10235393504636"/>
  <flow id="JF175646" begin="360" fromJunction="J5" toJunction="J6" end="420" vehsPerHour="4.612281327959072"/>
  <flow id="JF175647" begin="360" fromJunction="J6" toJunction="J4" end="420" vehsPerHour="1.471908081305509"/>
  <flow id="JF175648" begin="360" fromJunction="J6" toJunction="J7" end="420" vehsPerHour="21.771790422456792"/>
  <flow id="JF175649" begin="360" fromJunction="J6" toJunction="J5" end="420" vehsPerHour="0.08441817088677601"/>
  <flow id="JF175650" begin="360" fromJunction="J4" toJunction="J3" end="420" vehsPerHour="64.98487000481664"/>
  <flow id="JF175651" begin="360" fromJunction="J4" toJunction="J0" end="420" vehsPerHour="42.992539697635785"/>
  <flow id="JF175652" begin="360" fromJunction="J7" toJunction="J3" end="420" vehsPerHour="54.69072108681842"/>
  <flow id="JF175653" begin="360" fromJunction="J7" toJunction="J0" end="420" vehsPerHour="68.0020937413709"/>
  <flow id="JF175654" begin="360" fromJunction="J5" toJunction="J3" end="420" vehsPerHour="9.463343039664025"/>
  <flow id="JF175655" begin="360" fromJunction="J5" toJunction="J0" end="420" vehsPerHour="17.79974682274676"/>
  <flow id="JF175656" begin="360" fromJunction="J6" toJunction="J3" end="420" vehsPerHour="11.859593340634888"/>
  <flow id="JF175657" begin="360" fromJunction="J6" toJunction="J0" end="420" vehsPerHour="35.93767586889141"/>
  <flow id="JF175658" begin="420" fromJunction="J3" toJunction="J0" end="480" vehsPerHour="456.51280202464403"/>
  <flow id="JF175659" begin="420" fromJunction="J0" toJunction="J3" end="480" vehsPerHour="74.7675211102907"/>
  <flow id="JF175660" begin="420" fromJunction="J3" toJunction="J4" end="480" vehsPerHour="99.92968970490844"/>
  <flow id="JF175661" begin="420" fromJunction="J3" toJunction="J7" end="480" vehsPerHour="107.2320424132285"/>
  <flow id="JF175662" begin="420" fromJunction="J3" toJunction="J5" end="480" vehsPerHour="95.41896589963551"/>
  <flow id="JF175663" begin="420" fromJunction="J3" toJunction="J6" end="480" vehsPerHour="53.96061637743245"/>
  <flow id="JF175664" begin="420" fromJunction="J0" toJunction="J4" end="480" vehsPerHour="10.814235674743015"/>
  <flow id="JF175665" begin="420" fromJunction="J0" toJunction="J7" end="480" vehsPerHour="125.27524866876324"/>
  <flow id="JF175666" begin="420" fromJunction="J0" toJunction="J5" end="480" vehsPerHour="74.17338870819353"/>
  <flow id="JF175667" begin="420" fromJunction="J0" toJunction="J6" end="480" vehsPerHour="75.95023852548822"/>
  <flow id="JF175668" begin="480" fromJunction="J3" toJunction="J0" end="540" vehsPerHour="40.39411894769468"/>
  <flow id="JF175669" begin="480" fromJunction="J0" toJunction="J3" end="540" vehsPerHour="28.831056091124893"/>
  <flow id="JF175670" begin="480" fromJunction="J3" toJunction="J4" end="540" vehsPerHour="12.611369304641231"/>
  <flow id="JF175671" begin="480" fromJunction="J3" toJunction="J7" end="540" vehsPerHour="62.217210456066596"/>
  <flow id="JF175672" begin="480" fromJunction="J3" toJunction="J5" end="540" vehsPerHour="134.3737365825482"/>
  <flow id="JF175673" begin="480" fromJunction="J3" toJunction="J6" end="540" vehsPerHour="53.62259062710179"/>
  <flow id="JF175674" begin="480" fromJunction="J0" toJunction="J4" end="540" vehsPerHour="116.45977656461812"/>
  <flow id="JF175675" begin="480" fromJunction="J0" toJunction="J7" end="540" vehsPerHour="34.53694732384505"/>
  <flow id="JF175676" begin="480" fromJunction="J0" toJunction="J5" end="540" vehsPerHour="31.92988568258203"/>
  <flow id="JF175677" begin="480" fromJunction="J0" toJunction="J6" end="540" vehsPerHour="79.71434295525735"/>
  <flow id="JF175678" begin="540" fromJunction="J3" toJunction="J0" end="600" vehsPerHour="323.5834131315264"/>
  <flow id="JF175679" begin="540" fromJunction="J0" toJunction="J3" end="600" vehsPerHour="340.4372818040611"/>
  <flow id="JF175680" begin="540" fromJunction="J3" toJunction="J4" end="600" vehsPerHour="93.65380417341737"/>
  <flow id="JF175681" begin="540" fromJunction="J3" toJunction="J7" end="600" vehsPerHour="76.70550003819524"/>
  <flow id="JF175682" begin="540" fromJunction="J3" toJunction="J5" end="600" vehsPerHour="58.0403666015094"/>
  <flow id="JF175683" begin="540" fromJunction="J3" toJunction="J6" end="600" vehsPerHour="130.16359167557067"/>
  <flow id="JF175684" begin="540" fromJunction="J0" toJunction="J4" end="600" vehsPerHour="102.22205854785362"/>
  <flow id="JF175685" begin="540" fromJunction="J0" toJunction="J7" end="600" vehsPerHour="7.94926117833896"/>
  <flow id="JF175686" begin="540" fromJunction="J0" toJunction="J5" end="600" vehsPerHour="5.588176076579728"/>
  <flow id="JF175687" begin="540" fromJunction="J0" toJunction="J6" end="600" vehsPerHour="135.77238173265297"/>
  <flow id="JF175688" begin="540" fromJunction="J4" toJunction="J7" end="600" vehsPerHour="67.67227694327605"/>
  <flow id="JF175689" begin="540" fromJunction="J4" toJunction="J5" end="600" vehsPerHour="63.773516687285344"/>
  <flow id="JF175690" begin="540" fromJunction="J4" toJunction="J6" end="600" vehsPerHour="29.79772023265489"/>
  <flow id="JF175691" begin="540" fromJunction="J7" toJunction="J4" end="600" vehsPerHour="66.32668368315034"/>
  <flow id="JF175692" begin="540" fromJunction="J7" toJunction="J5" end="600" vehsPerHour="54.0878967063494"/>
  <flow id="JF175693" begin="540" fromJunction="J7" toJunction="J6" end="600" vehsPerHour="49.05345435636298"/>
  <flow id="JF175694" begin="540" fromJunction="J5" toJunction="J4" end="600" vehsPerHour="34.26084204042843"/>
  <flow id="JF175695" begin="540" fromJunction="J5" toJunction="J7" end="600" vehsPerHour="57.59287617662961"/>
  <flow id="JF175696" begin="540" fromJunction="J5" toJunction="J6" end="600" vehsPerHour="30.86251317315623"/>
  <flow id="JF175697" begin="540" fromJunction="J6" toJunction="J4" end="600" vehsPerHour="64.51457316010435"/>
  <flow id="JF175698" begin="540" fromJunction="J6" toJunction="J7" end="600" vehsPerHour="61.53672034883596"/>
  <flow id="JF175699" begin="540" fromJunction="J6" toJunction="J5" end="600" vehsPerHour="64.53594919086278"/>
  <flow id="JF175700" begin="540" fromJunction="J4" toJunction="J3" end="600" vehsPerHour="26.569073617623324"/>
  <flow id="JF175701" begin="540" fromJunction="J4" toJunction="J0" end="600" vehsPerHour="27.045220136219072"/>
  <flow id="JF175702" begin="540" fromJunction="J7" toJunction="J3" end="600" vehsPerHour="7.240949346904357"/>
  <flow id="JF175703" begin="540" fromJunction="J7" toJunction="J0" end="600" vehsPerHour="62.5417981703405"/>
  <flow id="JF175704" begin="540" fromJunction="J5" toJunction="J3" end="600" vehsPerHour="21.689867982965012"/>
  <flow id="JF175705" begin="540" fromJunction="J5" toJunction="J0" end="600" vehsPerHour="5.426665507251481"/>
  <flow id="JF175706" begin="540" fromJunction="J6" toJunction="J3" end="600" vehsPerHour="13.938532879550946"/>
  <flow id="JF175707" begin="540" fromJunction="J6" toJunction="J0" end="600" vehsPerHour="65.81304364100554"/>
  <flow id="JF175708" begin="600" fromJunction="J3" toJunction="J0" end="660" vehsPerHour="278.73254987643526"/>
  <flow id="JF175709" begin="600" fromJunction="J0" toJunction="J3" end="660" vehsPerHour="442.95227793120614"/>
  <flow id="JF175710" begin="600" fromJunction="J3" toJunction="J4" end="660" vehsPerHour="18.107374810198735"/>
  <flow id="JF175711" begin="600" fromJunction="J3" toJunction="J7" end="660" vehsPerHour="86.71597377572627"/>
  <flow id="JF175712" begin="600" fromJunction="J3" toJunction="J5" end="660" vehsPerHour="136.17338352327417"/>
  <flow id="JF175713" begin="600" fromJunction="J3" toJunction="J6" end="660" vehsPerHour="83.20047762890536"/>
  <flow id="JF175714" begin="600" fromJunction="J0" toJunction="J4" end="660" vehsPerHour="38.70152500061222"/>
  <flow id="JF175715" begin="600" fromJunction="J0" toJunction="J7" end="660" vehsPerHour="104.424965663092"/>
  <flow id="JF175716" begin="600" fromJunction="J0" toJunction="J5" end="660" vehsPerHour="28.746683111928984"/>
  <flow id="JF175717" begin="600" fromJunction="J0" toJunction="J6" end="660" vehsPerHour="52.407628756520296"/>
  <flow id="JF175718" begin="600" fromJunction="J4" toJunction="J7" end="660" vehsPerHour="58.75041662430786"/>
  <flow id="JF175719" begin="600" fromJunction="J4" toJunction="J5" end="660" vehsPerHour="13.352149373296202"/>
  <flow id="JF175720" begin="600" fromJunction="J4" toJunction="J6" end="660" vehsPerHour="57.68318499156089"/>
  <flow id="JF175721" begin="600" fromJunction="J7" toJunction="J4" end="660" vehsPerHour="8.534925557854178"/>
  <flow id="JF175722" begin="600" fromJunction="J7" toJunction="J5" end="660" vehsPerHour="22.910696952798727"/>
  <flow id="JF175723" begin="600" fromJunction="J7" toJunction="J6" end="660" vehsPerHour="27.47384119957381"/>
  <flow id="JF175724" begin="600" fromJunction="J5" toJunction="J4" end="660" vehsPerHour="12.067714197281687"/>
  <flow id="JF175725" begin="600" fromJunction="J5" toJunction="J7" end="660" vehsPerHour="5.147793985384808"/>
  <flow id="JF175726" begin="600" fromJunction="J5" toJunction="J6" end="660" vehsPerHour="19.866647209449972"/>
  <flow id="JF175727" begin="600" fromJunction="J6" toJunction="J4" end="660" vehsPerHour="7.694355140885432"/>
  <flow id="JF175728" begin="600" fromJunction="J6" toJunction="J7" end="660" vehsPerHour="7.6716023514398595"/>
  <flow id="JF175729" begin="600" fromJunction="J6" toJunction="J5" end="660" vehsPerHour="35.909237834915935"/>
  <flow id="JF175730" begin="600" fromJunction="J4" toJunction="J3" end="660" vehsPerHour="7.466853353845738"/>
  <flow id="JF175731" begin="600" fromJunction="J4" toJunction="J0" end="660" vehsPerHour="44.22073425348988"/>
  <flow id="JF175732" begin="600" fromJunction="J7" toJunction="J3" end="660" vehsPerHour="62.906932606753735"/>
  <flow id="JF175733" begin="600" fromJunction="J7" toJunction="J0" end="660" vehsPerHour="46.71630875610963"/>
  <flow id="JF175734" begin="600" fromJunction="J5" toJunction="J3" end="660" vehsPerHour="34.41841055678971"/>
  <flow id="JF175735" begin="600" fromJunction="J5" toJunction="J0" end="660" vehsPerHour="44.2689771834614"/>
  <flow id="JF175736" begin="600" fromJunction="J6" toJunction="J3" end="660" vehsPerHour="64.18665962565822"/>
  <flow id="JF175737" begin="600" fromJunction="J6" toJunction="J0" end="660" vehsPerHour="1.3355179093277971"/>
  <flow id="JF175738" begin="660" fromJunction="J3" toJunction="J0" end="720" vehsPerHour="486.91429060457733"/>
  <flow id="JF175739" begin="660" fromJunction="J0" toJunction="J3" end="720" vehsPerHour="441.47104289187126"/>
  <flow id="JF175740" begin="660" fromJunction="J3" toJunction="J4" end="720" vehsPerHour="77.54184419723207"/>
  <flow id="JF175741" begin="660" fromJunction="J3" toJunction="J7" end="720" vehsPerHour="58.48148379236117"/>
  <flow id="JF175742" begin="660" fromJunction="J3" toJunction="J5" end="720" vehsPerHour="86.64828674469632"/>
  <flow id="JF175743" begin="660" fromJunction="J3" toJunction="J6" end="720" vehsPerHour="53.773967558722944"/>
  <flow id="JF175744" begin="660" fromJunction="J0" toJunction="J4" end="720" vehsPerHour="24.77318549310515"/>
  <flow id="JF175745" begin="660" fromJunction="J0" toJunction="J7" end="720" vehsPerHour="36.24147348873434"/>
  <flow id="JF175746" begin="660" fromJunction="J0" toJunction="J5" end="720" vehsPerHour="101.64650927299124"/>
  <flow id="JF175747" begin="660" fromJunction="J0" toJunction="J6" end="720" vehsPerHour="99.28250601171524"/>
  <flow id="JF175748" begin="660" fromJunction="J4" toJunction="J7" end="720" vehsPerHour="40.75219540037777"/>
  <flow id="JF175749" begin="660" fromJunction="J4" toJunction="J5" end="720" vehsPerHour="38.32122025396563"/>
  <flow id="JF175750" begin="660" fromJunction="J4" toJunction="J6" end="720" vehsPerHour="9.774918861509128"/>
  <flow id="JF175751" begin="660" fromJunction="J7" toJunction="J4" end="720" vehsPerHour="58.721833533349"/>
  <flow id="JF175752" begin="660" fromJunction="J7" toJunction="J5" end="720" vehsPerHour="35.839141218204674"/>
  <flow id="JF175753" begin="660" fromJunction="J7" toJunction="J6" end="720" vehsPerHour="27.55904769945114"/>