<?xml version="1.0" encoding="UTF-8"?>
<routes xmlns:xsi="http://www.w3.org/2001/XMLSchema-instance" xsi:noNamespaceSchemaLocation="http://sumo.dlr.de/xsd/routes_file.xsd">
  <flow id="JF11500" begin="0" fromJunction="J0" toJunction="J3" end="60" vehsPerHour="115.12511978022282" departLane="free"/>
  <flow id="JF11501" begin="0" fromJunction="J3" toJunction="J0" end="60" vehsPerHour="33.757698362362454" departLane="free"/>
  <flow id="JF11502" begin="0" fromJunction="J0" toJunction="J4" end="60" vehsPerHour="79.17463791559707" departLane="free"/>
  <flow id="JF11503" begin="0" fromJunction="J0" toJunction="J7" end="60" vehsPerHour="38.2935461584765" departLane="free"/>
  <flow id="JF11504" begin="0" fromJunction="J0" toJunction="J5" end="60" vehsPerHour="4.734420431981677" departLane="free"/>
  <flow id="JF11505" begin="0" fromJunction="J0" toJunction="J6" end="60" vehsPerHour="20.678013561773373" departLane="free"/>
  <flow id="JF11506" begin="0" fromJunction="J3" toJunction="J4" end="60" vehsPerHour="6.265581669972337" departLane="free"/>
  <flow id="JF11507" begin="0" fromJunction="J3" toJunction="J7" end="60" vehsPerHour="60.466602352477274" departLane="free"/>
  <flow id="JF11508" begin="0" fromJunction="J3" toJunction="J5" end="60" vehsPerHour="97.33247127072308" departLane="free"/>
  <flow id="JF11509" begin="0" fromJunction="J3" toJunction="J6" end="60" vehsPerHour="99.05401758214764" departLane="free"/>
  <flow id="JF11510" begin="0" fromJunction="J4" toJunction="J7" end="60" vehsPerHour="53.930242474118295" departLane="free"/>
  <flow id="JF11511" begin="0" fromJunction="J4" toJunction="J5" end="60" vehsPerHour="23.87949413877893" departLane="free"/>
  <flow id="JF11512" begin="0" fromJunction="J4" toJunction="J6" end="60" vehsPerHour="12.48092653613017" departLane="free"/>
  <flow id="JF11513" begin="0" fromJunction="J7" toJunction="J4" end="60" vehsPerHour="13.668028478692545" departLane="free"/>
  <flow id="JF11514" begin="0" fromJunction="J7" toJunction="J5" end="60" vehsPerHour="31.618595892077032" departLane="free"/>
  <flow id="JF11515" begin="0" fromJunction="J7" toJunction="J6" end="60" vehsPerHour="16.817981278669883" departLane="free"/>
  <flow id="JF11516" begin="0" fromJunction="J5" toJunction="J4" end="60" vehsPerHour="36.510378922570965" departLane="free"/>
  <flow id="JF11517" begin="0" fromJunction="J5" toJunction="J7" end="60" vehsPerHour="42.08027458020297" departLane="free"/>
  <flow id="JF11518" begin="0" fromJunction="J5" toJunction="J6" end="60" vehsPerHour="62.190820105491625" departLane="free"/>
  <flow id="JF11519" begin="0" fromJunction="J6" toJunction="J4" end="60" vehsPerHour="65.57439882893323" departLane="free"/>
  <flow id="JF11520" begin="0" fromJunction="J6" toJunction="J7" end="60" vehsPerHour="25.470759440711234" departLane="free"/>
  <flow id="JF11521" begin="0" fromJunction="J6" toJunction="J5" end="60" vehsPerHour="8.996925614910296" departLane="free"/>
  <flow id="JF11522" begin="0" fromJunction="J4" toJunction="J0" end="60" vehsPerHour="4.627377375617201" departLane="free"/>
  <flow id="JF11523" begin="0" fromJunction="J4" toJunction="J3" end="60" vehsPerHour="67.93650565644012" departLane="free"/>
  <flow id="JF11524" begin="0" fromJunction="J7" toJunction="J0" end="60" vehsPerHour="34.708448670732636" departLane="free"/>
  <flow id="JF11525" begin="0" fromJunction="J7" toJunction="J3" end="60" vehsPerHour="51.69752216860055" departLane="free"/>
  <flow id="JF11526" begin="0" fromJunction="J5" toJunction="J0" end="60" vehsPerHour="3.120588820258947" departLane="free"/>
  <flow id="JF11527" begin="0" fromJunction="J5" toJunction="J3" end="60" vehsPerHour="33.366083074086355" departLane="free"/>
  <flow id="JF11528" begin="0" fromJunction="J6" toJunction="J0" end="60" vehsPerHour="34.66327470784704" departLane="free"/>
  <flow id="JF11529" begin="0" fromJunction="J6" toJunction="J3" end="60" vehsPerHour="21.11739779578373" departLane="free"/>
  <flow id="JF11530" begin="60" fromJunction="J0" toJunction="J3" end="120" vehsPerHour="109.18572407329776" departLane="free"/>
  <flow id="JF11531" begin="60" fromJunction="J3" toJunction="J0" end="120" vehsPerHour="25.89008527246918" departLane="free"/>
  <flow id="JF11532" begin="60" fromJunction="J0" toJunction="J4" end="120" vehsPerHour="24.675784725816097" departLane="free"/>
  <flow id="JF11533" begin="60" fromJunction="J0" toJunction="J7" end="120" vehsPerHour="133.2309231167602" departLane="free"/>
  <flow id="JF11534" begin="60" fromJunction="J0" toJunction="J5" end="120" vehsPerHour="71.64603808342483" departLane="free"/>
  <flow id="JF11535" begin="60" fromJunction="J0" toJunction="J6" end="120" vehsPerHour="23.30358937288229" departLane="free"/>
  <flow id="JF11536" begin="60" fromJunction="J3" toJunction="J4" end="120" vehsPerHour="89.80605070573681" departLane="free"/>
  <flow id="JF11537" begin="60" fromJunction="J3" toJunction="J7" end="120" vehsPerHour="133.3155123035203" departLane="free"/>
  <flow id="JF11538" begin="60" fromJunction="J3" toJunction="J5" end="120" vehsPerHour="60.29245092621386" departLane="free"/>
  <flow id="JF11539" begin="60" fromJunction="J3" toJunction="J6" end="120" vehsPerHour="16.681669931003917" departLane="free"/>
  <flow id="JF11540" begin="60" fromJunction="J4" toJunction="J7" end="120" vehsPerHour="18.77724418262759" departLane="free"/>
  <flow id="JF11541" begin="60" fromJunction="J4" toJunction="J5" end="120" vehsPerHour="53.7176767116781" departLane="free"/>
  <flow id="JF11542" begin="60" fromJunction="J4" toJunction="J6" end="120" vehsPerHour="60.53912180726535" departLane="free"/>
  <flow id="JF11543" begin="60" fromJunction="J7" toJunction="J4" end="120" vehsPerHour="20.74485859827023" departLane="free"/>
  <flow id="JF11544" begin="60" fromJunction="J7" toJunction="J5" end="120" vehsPerHour="22.024727483988425" departLane="free"/>
  <flow id="JF11545" begin="60" fromJunction="J7" toJunction="J6" end="120" vehsPerHour="11.041239609587233" departLane="free"/>
  <flow id="JF11546" begin="60" fromJunction="J5" toJunction="J4" end="120" vehsPerHour="22.905280301265968" departLane="free"/>
  <flow id="JF11547" begin="60" fromJunction="J5" toJunction="J7" end="120" vehsPerHour="48.48258099469597" departLane="free"/>
  <flow id="JF11548" begin="60" fromJunction="J5" toJunction="J6" end="120" vehsPerHour="34.10894956813079" departLane="free"/>
  <flow id="JF11549" begin="60" fromJunction="J6" toJunction="J4" end="120" vehsPerHour="7.082403301024524" departLane="free"/>
  <flow id="JF11550" begin="60" fromJunction="J6" toJunction="J7" end="120" vehsPerHour="46.09430191616531" departLane="free"/>
  <flow id="JF11551" begin="60" fromJunction="J6" toJunction="J5" end="120" vehsPerHour="33.07130324830227" departLane="free"/>
  <flow id="JF11552" begin="60" fromJunction="J4" toJunction="J0" end="120" vehsPerHour="2.2901766952820672" departLane="free"/>
  <flow id="JF11553" begin="60" fromJunction="J4" toJunction="J3" end="120" vehsPerHour="22.690237556807123" departLane="free"/>
  <flow id="JF11554" begin="60" fromJunction="J7" toJunction="J0" end="120" vehsPerHour="62.56669611516459" departLane="free"/>
  <flow id="JF11555" begin="60" fromJunction="J7" toJunction="J3" end="120" vehsPerHour="13.810014411009899" departLane="free"/>
  <flow id="JF11556" begin="60" fromJunction="J5" toJunction="J0" end="120" vehsPerHour="57.459725434870585" departLane="free"/>
  <flow id="JF11557" begin="60" fromJunction="J5" toJunction="J3" end="120" vehsPerHour="42.22665089219588" departLane="free"/>
  <flow id="JF11558" begin="60" fromJunction="J6" toJunction="J0" end="120" vehsPerHour="39.2772872763172" departLane="free"/>
  <flow id="JF11559" begin="60" fromJunction="J6" toJunction="J3" end="120" vehsPerHour="5.422975752583568" departLane="free"/>
  <flow id="JF11560" begin="120" fromJunction="J0" toJunction="J3" end="180" vehsPerHour="118.42952630138637" departLane="free"/>
  <flow id="JF11561" begin="120" fromJunction="J3" toJunction="J0" end="180" vehsPerHour="57.34409573750489" departLane="free"/>
  <flow id="JF11562" begin="120" fromJunction="J0" toJunction="J4" end="180" vehsPerHour="70.04663570680329" departLane="free"/>
  <flow id="JF11563" begin="120" fromJunction="J0" toJunction="J7" end="180" vehsPerHour="56.43559528950397" departLane="free"/>
  <flow id="JF11564" begin="120" fromJunction="J0" toJunction="J5" end="180" vehsPerHour="126.73489615395856" departLane="free"/>
  <flow id="JF11565" begin="120" fromJunction="J0" toJunction="J6" end="180" vehsPerHour="40.93055979862392" departLane="free"/>
  <flow id="JF11566" begin="120" fromJunction="J3" toJunction="J4" end="180" vehsPerHour="16.383534013707568" departLane="free"/>
  <flow id="JF11567" begin="120" fromJunction="J3" toJunction="J7" end="180" vehsPerHour="124.49507622490556" departLane="free"/>
  <flow id="JF11568" begin="120" fromJunction="J3" toJunction="J5" end="180" vehsPerHour="19.515697387989537" departLane="free"/>
  <flow id="JF11569" begin="120" fromJunction="J3" toJunction="J6" end="180" vehsPerHour="49.68163313709218" departLane="free"/>
  <flow id="JF11570" begin="180" fromJunction="J0" toJunction="J3" end="240" vehsPerHour="1.4605983615373497" departLane="free"/>
  <flow id="JF11571" begin="180" fromJunction="J3" toJunction="J0" end="240" vehsPerHour="117.19422860699636" departLane="free"/>
  <flow id="JF11572" begin="180" fromJunction="J0" toJunction="J4" end="240" vehsPerHour="65.20331890193405" departLane="free"/>
  <flow id="JF11573" begin="180" fromJunction="J0" toJunction="J7" end="240" vehsPerHour="36.97294245346267" departLane="free"/>
  <flow id="JF11574" begin="180" fromJunction="J0" toJunction="J5" end="240" vehsPerHour="94.58139564007834" departLane="free"/>
  <flow id="JF11575" begin="180" fromJunction="J0" toJunction="J6" end="240" vehsPerHour="60.87210673610103" departLane="free"/>
  <flow id="JF11576" begin="180" fromJunction="J3" toJunction="J4" end="240" vehsPerHour="91.0972463631745" departLane="free"/>
  <flow id="JF11577" begin="180" fromJunction="J3" toJunction="J7" end="240" vehsPerHour="39.17740140080004" departLane="free"/>
  <flow id="JF11578" begin="180" fromJunction="J3" toJunction="J5" end="240" vehsPerHour="30.189141284225016" departLane="free"/>
  <flow id="JF11579" begin="180" fromJunction="J3" toJunction="J6" end="240" vehsPerHour="94.96897500268861" departLane="free"/>
  <flow id="JF11580" begin="180" fromJunction="J4" toJunction="J7" end="240" vehsPerHour="32.84358557096691" departLane="free"/>
  <flow id="JF11581" begin="180" fromJunction="J4" toJunction="J5" end="240" vehsPerHour="43.28109168044388" departLane="free"/>
  <flow id="JF11582" begin="180" fromJunction="J4" toJunction="J6" end="240" vehsPerHour="34.083553724919064" departLane="free"/>
  <flow id="JF11583" begin="180" fromJunction="J7" toJunction="J4" end="240" vehsPerHour="38.68857271402458" departLane="free"/>
  <flow id="JF11584" begin="180" fromJunction="J7" toJunction="J5" end="240" vehsPerHour="1.599226715390324" departLane="free"/>
  <flow id="JF11585" begin="180" fromJunction="J7" toJunction="J6" end="240" vehsPerHour="4.8601884162851725" departLane="free"/>
  <flow id="JF11586" begin="180" fromJunction="J5" toJunction="J4" end="240" vehsPerHour="45.74546120261314" departLane="free"/>
  <flow id="JF11587" begin="180" fromJunction="J5" toJunction="J7" end="240" vehsPerHour="24.622829688198927" departLane="free"/>
  <flow id="JF11588" begin="180" fromJunction="J5" toJunction="J6" end="240" vehsPerHour="63.239854983025545" departLane="free"/>
  <flow id="JF11589" begin="180" fromJunction="J6" toJunction="J4" end="240" vehsPerHour="10.69944711795832" departLane="free"/>
  <flow id="JF11590" begin="180" fromJunction="J6" toJunction="J7" end="240" vehsPerHour="33.62413381211749" departLane="free"/>
  <flow id="JF11591" begin="180" fromJunction="J6" toJunction="J5" end="240" vehsPerHour="43.48358523861781" departLane="free"/>
  <flow id="JF11592" begin="180" fromJunction="J4" toJunction="J0" end="240" vehsPerHour="47.73345260792236" departLane="free"/>
  <flow id="JF11593" begin="180" fromJunction="J4" toJunction="J3" end="240" vehsPerHour="59.95093625817129" departLane="free"/>
  <flow id="JF11594" begin="180" fromJunction="J7" toJunction="J0" end="240" vehsPerHour="32.01163537406999" departLane="free"/>
  <flow id="JF11595" begin="180" fromJunction="J7" toJunction="J3" end="240" vehsPerHour="47.220379392832555" departLane="free"/>
  <flow id="JF11596" begin="180" fromJunction="J5" toJunction="J0" end="240" vehsPerHour="48.881197828428576" departLane="free"/>
  <flow id="JF11597" begin="180" fromJunction="J5" toJunction="J3" end="240" vehsPerHour="36.64477244462241" departLane="free"/>
  <flow id="JF11598" begin="180" fromJunction="J6" toJunction="J0" end="240" vehsPerHour="47.55457616738338" departLane="free"/>
  <flow id="JF11599" begin="180" fromJunction="J6" toJunction="J3" end="240" vehsPerHour="62.27766803907311" departLane="free"/>
  <flow id="JF11600" begin="240" fromJunction="J0" toJunction="J3" end="300" vehsPerHour="5.366050052782896" departLane="free"/>
  <flow id="JF11601" begin="240" fromJunction="J3" toJunction="J0" end="300" vehsPerHour="113.04329570664498" departLane="free"/>
  <flow id="JF11602" begin="240" fromJunction="J0" toJunction="J4" end="300" vehsPerHour="73.01259243070103" departLane="free"/>
  <flow id="JF11603" begin="240" fromJunction="J0" toJunction="J7" end="300" vehsPerHour="131.73460667025165" departLane="free"/>
  <flow id="JF11604" begin="240" fromJunction="J0" toJunction="J5" end="300" vehsPerHour="62.957413003259674" departLane="free"/>
  <flow id="JF11605" begin="240" fromJunction="J0" toJunction="J6" end="300" vehsPerHour="114.2334105501666" departLane="free"/>
  <flow id="JF11606" begin="240" fromJunction="J3" toJunction="J4" end="300" vehsPerHour="89.06901025323289" departLane="free"/>
  <flow id="JF11607" begin="240" fromJunction="J3" toJunction="J7" end="300" vehsPerHour="83.00091285957538" departLane="free"/>
  <flow id="JF11608" begin="240" fromJunction="J3" toJunction="J5" end="300" vehsPerHour="38.79314534810246" departLane="free"/>
  <flow id="JF11609" begin="240" fromJunction="J3" toJunction="J6" end="300" vehsPerHour="30.457350589440193" departLane="free"/>
  <flow id="JF11610" begin="240" fromJunction="J4" toJunction="J7" end="300" vehsPerHour="37.98874317672241" departLane="free"/>
  <flow id="JF11611" begin="240" fromJunction="J4" toJunction="J5" end="300" vehsPerHour="6.2383290831770655" departLane="free"/>
  <flow id="JF11612" begin="240" fromJunction="J4" toJunction="J6" end="300" vehsPerHour="48.83970079907118" departLane="free"/>
  <flow id="JF11613" begin="240" fromJunction="J7" toJunction="J4" end="300" vehsPerHour="33.924871059786334" departLane="free"/>
  <flow id="JF11614" begin="240" fromJunction="J7" toJunction="J5" end="300" vehsPerHour="12.794668049267747" departLane="free"/>
  <flow id="JF11615" begin="240" fromJunction="J7" toJunction="J6" end="300" vehsPerHour="42.949985194228155" departLane="free"/>
  <flow id="JF11616" begin="240" fromJunction="J5" toJunction="J4" end="300" vehsPerHour="3.2749481992937057" departLane="free"/>
  <flow id="JF11617" begin="240" fromJunction="J5" toJunction="J7" end="300" vehsPerHour="50.212054274414086" departLane="free"/>
  <flow id="JF11618" begin="240" fromJunction="J5" toJunction="J6" end="300" vehsPerHour="43.11063211103134" departLane="free"/>
  <flow id="JF11619" begin="240" fromJunction="J6" toJunction="J4" end="300" vehsPerHour="12.340395203986548" departLane="free"/>
  <flow id="JF11620" begin="240" fromJunction="J6" toJunction="J7" end="300" vehsPerHour="43.24662609475947" departLane="free"/>
  <flow id="JF11621" begin="240" fromJunction="J6" toJunction="J5" end="300" vehsPerHour="60.23418508383541" departLane="free"/>
  <flow id="JF11622" begin="240" fromJunction="J4" toJunction="J0" end="300" vehsPerHour="12.874643405820006" departLane="free"/>
  <flow id="JF11623" begin="240" fromJunction="J4" toJunction="J3" end="300" vehsPerHour="49.138122857444" departLane="free"/>
  <flow id="JF11624" begin="240" fromJunction="J7" toJunction="J0" end="300" vehsPerHour="5.1457437020861425" departLane="free"/>
  <flow id="JF11625" begin="240" fromJunction="J7" toJunction="J3" end="300" vehsPerHour="39.623912602690055" departLane="free"/>
  <flow id="JF11626" begin="240" fromJunction="J5" toJunction="J0" end="300" vehsPerHour="8.673957633776837" departLane="free"/>
  <flow id="JF11627" begin="240" fromJunction="J5" toJunction="J3" end="300" vehsPerHour="20.296017050916372" departLane="free"/>
  <flow id="JF11628" begin="240" fromJunction="J6" toJunction="J0" end="300" vehsPerHour="26.4140530917447" departLane="free"/>
  <flow id="JF11629" begin="240" fromJunction="J6" toJunction="J3" end="300" vehsPerHour="1.4417582945054368" departLane="free"/>
  <flow id="JF11630" begin="300" fromJunction="J0" toJunction="J3" end="360" vehsPerHour="90.93510024770106" departLane="free"/>
  <flow id="JF11631" begin="300" fromJunction="J3" toJunction="J0" end="360" vehsPerHour="30.069195248518007" departLane="free"/>
  <flow id="JF11632" begin="300" fromJunction="J0" toJunction="J4" end="360" vehsPerHour="86.78000179454818" departLane="free"/>
  <flow id="JF11633" begin="300" fromJunction="J0" toJunction="J7" end="360" vehsPerHour="73.73422395858343" departLane="free"/>
  <flow id="JF11634" begin="300" fromJunction="J0" toJunction="J5" end="360" vehsPerHour="32.19595168682284" departLane="free"/>
  <flow id="JF11635" begin="300" fromJunction="J0" toJunction="J6" end="360" vehsPerHour="100.11957342662554" departLane="free"/>
  <flow id="JF11636" begin="300" fromJunction="J3" toJunction="J4" end="360" vehsPerHour="34.11644628151963" departLane="free"/>
  <flow id="JF11637" begin="300" fromJunction="J3" toJunction="J7" end="360" vehsPerHour="116.86260389009615" departLane="free"/>
  <flow id="JF11638" begin="300" fromJunction="J3" toJunction="J5" end="360" vehsPerHour="126.65519396633825" departLane="free"/>
  <flow id="JF11639" begin="300" fromJunction="J3" toJunction="J6" end="360" vehsPerHour="34.52993142216119" departLane="free"/>
  <flow id="JF11640" begin="300" fromJunction="J4" toJunction="J7" end="360" vehsPerHour="61.02150124766736" departLane="free"/>
  <flow id="JF11641" begin="300" fromJunction="J4" toJunction="J5" end="360" vehsPerHour="39.6298190267599" departLane="free"/>
  <flow id="JF11642" begin="300" fromJunction="J4" toJunction="J6" end="360" vehsPerHour="27.043743023405987" departLane="free"/>
  <flow id="JF11643" begin="300" fromJunction="J7" toJunction="J4" end="360" vehsPerHour="58.2503963307499" departLane="free"/>
  <flow id="JF11644" begin="300" fromJunction="J7" toJunction="J5" end="360" vehsPerHour="61.25806371387113" departLane="free"/>
  <flow id="JF11645" begin="300" fromJunction="J7" toJunction="J6" end="360" vehsPerHour="13.105818980767992" departLane="free"/>
  <flow id="JF11646" begin="300" fromJunction="J5" toJunction="J4" end="360" vehsPerHour="58.43530821105739" departLane="free"/>
  <flow id="JF11647" begin="300" fromJunction="J5" toJunction="J7" end="360" vehsPerHour="50.91549053574156" departLane="free"/>
  <flow id="JF11648" begin="300" fromJunction="J5" toJunction="J6" end="360" vehsPerHour="7.493246094132183" departLane="free"/>
  <flow id="JF11649" begin="300" fromJunction="J6" toJunction="J4" end="360" vehsPerHour="63.407553432390486" departLane="free"/>
  <flow id="JF11650" begin="300" fromJunction="J6" toJunction="J7" end="360" vehsPerHour="11.729457871874894" departLane="free"/>
  <flow id="JF11651" begin="300" fromJunction="J6" toJunction="J5" end="360" vehsPerHour="66.07382224942064" departLane="free"/>
  <flow id="JF11652" begin="300" fromJunction="J4" toJunction="J0" end="360" vehsPerHour="62.213632919437394" departLane="free"/>
  <flow id="JF11653" begin="300" fromJunction="J4" toJunction="J3" end="360" vehsPerHour="49.75608331313337" departLane="free"/>
  <flow id="JF11654" begin="300" fromJunction="J7" toJunction="J0" end="360" vehsPerHour="60.626755548736604" departLane="free"/>
  <flow id="JF11655" begin="300" fromJunction="J7" toJunction="J3" end="360" vehsPerHour="22.615680960233767" departLane="free"/>
  <flow id="JF11656" begin="300" fromJunction="J5" toJunction="J0" end="360" vehsPerHour="20.982111880359366" departLane="free"/>
  <flow id="JF11657" begin="300" fromJunction="J5" toJunction="J3" end="360" vehsPerHour="18.083732654617286" departLane="free"/>
  <flow id="JF11658" begin="300" fromJunction="J6" toJunction="J0" end="360" vehsPerHour="19.02649246092615" departLane="free"/>
  <flow id="JF11659" begin="300" fromJunction="J6" toJunction="J3" end="360" vehsPerHour="44.927434223815105" departLane="free"/>
  <flow id="JF11660" begin="360" fromJunction="J0" toJunction="J3" end="420" vehsPerHour="62.42088823543267" departLane="free"/>
  <flow id="JF11661" begin="360" fromJunction="J3" toJunction="J0" end="420" vehsPerHour="103.58361730353502" departLane="free"/>
  <flow id="JF11662" begin="360" fromJunction="J0" toJunction="J4" end="420" vehsPerHour="68.42863180634485" departLane="free"/>
  <flow id="JF11663" begin="360" fromJunction="J0" toJunction="J7" end="420" vehsPerHour="114.41886587319601" departLane="free"/>
  <flow id="JF11664" begin="360" fromJunction="J0" toJunction="J5" end="420" vehsPerHour="30.84188406016603" departLane="free"/>
  <flow id="JF11665" begin="360" fromJunction="J0" toJunction="J6" end="420" vehsPerHour="98.09818614761193" departLane="free"/>
  <flow id="JF11666" begin="360" fromJunction="J3" toJunction="J4" end="420" vehsPerHour="37.125663981918244" departLane="free"/>
  <flow id="JF11667" begin="360" fromJunction="J3" toJunction="J7" end="420" vehsPerHour="93.80694632207182" departLane="free"/>
  <flow id="JF11668" begin="360" fromJunction="J3" toJunction="J5" end="420" vehsPerHour="74.86892661274462" departLane="free"/>
  <flow id="JF11669" begin="360" fromJunction="J3" toJunction="J6" end="420" vehsPerHour="24.775849719889568" departLane="free"/>
  <flow id="JF11670" begin="360" fromJunction="J4" toJunction="J7" end="420" vehsPerHour="36.61015458846383" departLane="free"/>
  <flow id="JF11671" begin="360" fromJunction="J4" toJunction="J5" end="420" vehsPerHour="43.84966071057933" departLane="free"/>
  <flow id="JF11672" begin="360" fromJunction="J4" toJunction="J6" end="420" vehsPerHour="51.96580333469566" departLane="free"/>
  <flow id="JF11673" begin="360" fromJunction="J7" toJunction="J4" end="420" vehsPerHour="39.0153903183209" departLane="free"/>
  <flow id="JF11674" begin="360" fromJunction="J7" toJunction="J5" end="420" vehsPerHour="51.65937712169833" departLane="free"/>
  <flow id="JF11675" begin="360" fromJunction="J7" toJunction="J6" end="420" vehsPerHour="57.673707790063524" departLane="free"/>
  <flow id="JF11676" begin="360" fromJunction="J5" toJunction="J4" end="420" vehsPerHour="6.547840606099099" departLane="free"/>
  <flow id="JF11677" begin="360" fromJunction="J5" toJunction="J7" end="420" vehsPerHour="65.15174260649783" departLane="free"/>
  <flow id="JF11678" begin="360" fromJunction="J5" toJunction="J6" end="420" vehsPerHour="8.519356523639011" departLane="free"/>
  <flow id="JF11679" begin="360" fromJunction="J6" toJunction="J4" end="420" vehsPerHour="42.30922852691462" departLane="free"/>
  <flow id="JF11680" begin="360" fromJunction="J6" toJunction="J7" end="420" vehsPerHour="22.125102540076778" departLane="free"/>
  <flow id="JF11681" begin="360" fromJunction="J6" toJunction="J5" end="420" vehsPerHour="40.60059829809224" departLane="free"/>
  <flow id="JF11682" begin="360" fromJunction="J4" toJunction="J0" end="420" vehsPerHour="36.36788475873375" departLane="free"/>
  <flow id="JF11683" begin="360" fromJunction="J4" toJunction="J3" end="420" vehsPerHour="51.10844516386439" departLane="free"/>
  <flow id="JF11684" begin="360" fromJunction="J7" toJunction="J0" end="420" vehsPerHour="64.54299154405261" departLane="free"/>
  <flow id="JF11685" begin="360" fromJunction="J7" toJunction="J3" end="420" vehsPerHour="0.16295928311670924" departLane="free"/>
  <flow id="JF11686" begin="360" fromJunction="J5" toJunction="J0" end="420" vehsPerHour="16.62512732492733" departLane="free"/>
  <flow id="JF11687" begin="360" fromJunction="J5" toJunction="J3" end="420" vehsPerHour="53.34829876269781" departLane="free"/>
  <flow id="JF11688" begin="360" fromJunction="J6" toJunction="J0" end="420" vehsPerHour="16.134369275769274" departLane="free"/>
  <flow id="JF11689" begin="360" fromJunction="J6" toJunction="J3" end="420" vehsPerHour="37.88586360319967" departLane="free"/>
  <flow id="JF11690" begin="420" fromJunction="J0" toJunction="J3" end="480" vehsPerHour="82.55121585972702" departLane="free"/>
  <flow id="JF11691" begin="420" fromJunction="J3" toJunction="J0" end="480" vehsPerHour="4.330522421820194" departLane="free"/>
  <flow id="JF11692" begin="420" fromJunction="J0" toJunction="J4" end="480" vehsPerHour="132.31749470212256" departLane="free"/>
  <flow id="JF11693" begin="420" fromJunction="J0" toJunction="J7" end="480" vehsPerHour="24.3852988849839" departLane="free"/>
  <flow id="JF11694" begin="420" fromJunction="J0" toJunction="J5" end="480" vehsPerHour="122.44150575938806" departLane="free"/>
  <flow id="JF11695" begin="420" fromJunction="J0" toJunction="J6" end="480" vehsPerHour="120.049375076066" departLane="free"/>
  <flow id="JF11696" begin="420" fromJunction="J3" toJunction="J4" end="480" vehsPerHour="115.2296023503248" departLane="free"/>
  <flow id="JF11697" begin="420" fromJunction="J3" toJunction="J7" end="480" vehsPerHour="136.64072297341846" departLane="free"/>
  <flow id="JF11698" begin="420" fromJunction="J3" toJunction="J5" end="480" vehsPerHour="73.54751965887657" departLane="free"/>
  <flow id="JF11699" begin="420" fromJunction="J3" toJunction="J6" end="480" vehsPerHour="83.75744980242924" departLane="free"/>
  <flow id="JF11700" begin="480" fromJunction="J0" toJunction="J3" end="540" vehsPerHour="25.34657845890351" departLane="free"/>
  <flow id="JF11701" begin="480" fromJunction="J3" toJunction="J0" end="540" vehsPerHour="121.75602227069629" departLane="free"/>
  <flow id="JF11702" begin="480" fromJunction="J0" toJunction="J4" end="540" vehsPerHour="73.82670846758728" departLane="free"/>
  <flow id="JF11703" begin="480" fromJunction="J0" toJunction="J7" end="540" vehsPerHour="50.30705625127471" departLane="free"/>
  <flow id="JF11704" begin="480" fromJunction="J0" toJunction="J5" end="540" vehsPerHour="119.41458430949135" departLane="free"/>
  <flow id="JF11705" begin="480" fromJunction="J0" toJunction="J6" end="540" vehsPerHour="32.17879640025574" departLane="free"/>
  <flow id="JF11706" begin="480" fromJunction="J3" toJunction="J4" end="540" vehsPerHour="112.76368832125233" departLane="free"/>
  <flow id="JF11707" begin="480" fromJunction="J3" toJunction="J7" end="540" vehsPerHour="40.94070688940245" departLane="free"/>
  <flow id="JF11708" begin="480" fromJunction="J3" toJunction="J5" end="540" vehsPerHour="95.1691436010283" departLane="free"/>
  <flow id="JF11709" begin="480" fromJunction="J3" toJunction="J6" end="540" vehsPerHour="107.00517076579249" departLane="free"/>
  <flow id="JF11710" begin="480" fromJunction="J4" toJunction="J7" end="540" vehsPerHour="60.61905176690558" departLane="free"/>
  <flow id="JF11711" begin="480" fromJunction="J4" toJunction="J5" end="540" vehsPerHour="57.38169617837321" departLane="free"/>
  <flow id="JF11712" begin="480" fromJunction="J4" toJunction="J6" end="540" vehsPerHour="6.04254212030313" departLane="free"/>
  <flow id="JF11713" begin="480" fromJunction="J7" toJunction="J4" end="540" vehsPerHour="65.05351149371121" departLane="free"/>
  <flow id="JF11714" begin="480" fromJunction="J7" toJunction="J5" end="540" vehsPerHour="43.83155380786341" departLane="free"/>
  <flow id="JF11715" begin="480" fromJunction="J7" toJunction="J6" end="540" vehsPerHour="3.9695855590844413" departLane="free"/>
  <flow id="JF11716" begin="480" fromJunction="J5" toJunction="J4" end="540" vehsPerHour="30.302778011454464" departLane="free"/>
  <flow id="JF11717" begin="480" fromJunction="J5" toJunction="J7" end="540" vehsPerHour="40.52297242383828" departLane="free"/>
  <flow id="JF11718" begin="480" fromJunction="J5" toJunction="J6" end="540" vehsPerHour="34.771549229024075" departLane="free"/>
  <flow id="JF11719" begin="480" fromJunction="J6" toJunction="J4" end="540" vehsPerHour="62.000023930180426" departLane="free"/>
  <flow id="JF11720" begin="480" fromJunction="J6" toJunction="J7" end="540" vehsPerHour="55.33204873013782" departLane="free"/>
  <flow id="JF11721" begin="480" fromJunction="J6" toJunction="J5" end="540" vehsPerHour="64.34343006382511" departLane="free"/>
  <flow id="JF11722" begin="480" fromJunction="J4" toJunction="J0" end="540" vehsPerHour="35.44632074400996" departLane="free"/>
  <flow id="JF11723" begin="480" fromJunction="J4" toJunction="J3" end="540" vehsPerHour="27.905101316082153" departLane="free"/>
  <flow id="JF11724" begin="480" fromJunction="J7" toJunction="J0" end="540" vehsPerHour="2.034943731482208" departLane="free"/>
  <flow id="JF11725" begin="480" fromJunction="J7" toJunction="J3" end="540" vehsPerHour="57.43832226018707" departLane="free"/>
  <flow id="JF11726" begin="480" fromJunction="J5" toJunction="J0" end="540" vehsPerHour="2.484172772967063" departLane="free"/>
  <flow id="JF11727" begin="480" fromJunction="J5" toJunction="J3" end="540" vehsPerHour="24.010120733168172" departLane="free"/>
  <flow id="JF11728" begin="480" fromJunction="J6" toJunction="J0" end="540" vehsPerHour="1.906467725079145" departLane="free"/>
  <flow id="JF11729" begin="480" fromJunction="J6" toJunction="J3" end="540" vehsPerHour="62.377862479310096" departLane="free"/>
  <flow id="JF11730" begin="540" fromJunction="J0" toJunction="J3" end="600" vehsPerHour="82.35207635092544" departLane="free"/>