<?xml version="1.0" encoding="UTF-8"?>
<routes xmlns:xsi="http://www.w3.org/2001/XMLSchema-instance" xsi:noNamespaceSchemaLocation="http://sumo.dlr.de/xsd/routes_file.xsd">
  <flow id="JF7540" begin="0" fromJunction="J0" toJunction="J3" end="60" vehsPerHour="119.84754640254324" departLane="free"/>
  <flow id="JF7541" begin="0" fromJunction="J3" toJunction="J0" end="60" vehsPerHour="61.11735903910811" departLane="free"/>
  <flow id="JF7542" begin="0" fromJunction="J0" toJunction="J4" end="60" vehsPerHour="98.06455249716942" departLane="free"/>
  <flow id="JF7543" begin="0" fromJunction="J0" toJunction="J7" end="60" vehsPerHour="29.107984888697697" departLane="free"/>
  <flow id="JF7544" begin="0" fromJunction="J0" toJunction="J5" end="60" vehsPerHour="22.05697595366736" departLane="free"/>
  <flow id="JF7545" begin="0" fromJunction="J0" toJunction="J6" end="60" vehsPerHour="76.93864119945383" departLane="free"/>
  <flow id="JF7546" begin="0" fromJunction="J3" toJunction="J4" end="60" vehsPerHour="83.08766978911943" departLane="free"/>
  <flow id="JF7547" begin="0" fromJunction="J3" toJunction="J7" end="60" vehsPerHour="70.14307169561857" departLane="free"/>
  <flow id="JF7548" begin="0" fromJunction="J3" toJunction="J5" end="60" vehsPerHour="43.37533097846396" departLane="free"/>
  <flow id="JF7549" begin="0" fromJunction="J3" toJunction="J6" end="60" vehsPerHour="132.59439318752794" departLane="free"/>
  <flow id="JF7550" begin="0" fromJunction="J4" toJunction="J7" end="60" vehsPerHour="32.16161728693552" departLane="free"/>
  <flow id="JF7551" begin="0" fromJunction="J4" toJunction="J5" end="60" vehsPerHour="23.142669505200853" departLane="free"/>
  <flow id="JF7552" begin="0" fromJunction="J4" toJunction="J6" end="60" vehsPerHour="30.323707930662835" departLane="free"/>
  <flow id="JF7553" begin="0" fromJunction="J7" toJunction="J4" end="60" vehsPerHour="55.83292941037744" departLane="free"/>
  <flow id="JF7554" begin="0" fromJunction="J7" toJunction="J5" end="60" vehsPerHour="22.202889721554744" departLane="free"/>
  <flow id="JF7555" begin="0" fromJunction="J7" toJunction="J6" end="60" vehsPerHour="65.63568026728956" departLane="free"/>
  <flow id="JF7556" begin="0" fromJunction="J5" toJunction="J4" end="60" vehsPerHour="44.554749230284834" departLane="free"/>
  <flow id="JF7557" begin="0" fromJunction="J5" toJunction="J7" end="60" vehsPerHour="31.372618855963896" departLane="free"/>
  <flow id="JF7558" begin="0" fromJunction="J5" toJunction="J6" end="60" vehsPerHour="64.12604560909442" departLane="free"/>
  <flow id="JF7559" begin="0" fromJunction="J6" toJunction="J4" end="60" vehsPerHour="17.959274116111384" departLane="free"/>
  <flow id="JF7560" begin="0" fromJunction="J6" toJunction="J7" end="60" vehsPerHour="12.639693359420123" departLane="free"/>
  <flow id="JF7561" begin="0" fromJunction="J6" toJunction="J5" end="60" vehsPerHour="3.3702054587573707" departLane="free"/>
  <flow id="JF7562" begin="0" fromJunction="J4" toJunction="J0" end="60" vehsPerHour="20.19597915634925" departLane="free"/>
  <flow id="JF7563" begin="0" fromJunction="J4" toJunction="J3" end="60" vehsPerHour="61.13726601641424" departLane="free"/>
  <flow id="JF7564" begin="0" fromJunction="J7" toJunction="J0" end="60" vehsPerHour="38.036864709217554" departLane="free"/>
  <flow id="JF7565" begin="0" fromJunction="J7" toJunction="J3" end="60" vehsPerHour="39.654347078192224" departLane="free"/>
  <flow id="JF7566" begin="0" fromJunction="J5" toJunction="J0" end="60" vehsPerHour="3.9094556204555992" departLane="free"/>
  <flow id="JF7567" begin="0" fromJunction="J5" toJunction="J3" end="60" vehsPerHour="3.7057434115508054" departLane="free"/>
  <flow id="JF7568" begin="0" fromJunction="J6" toJunction="J0" end="60" vehsPerHour="25.70553943339071" departLane="free"/>
  <flow id="JF7569" begin="0" fromJunction="J6" toJunction="J3" end="60" vehsPerHour="9.466864892508143" departLane="free"/>
  <flow id="JF7570" begin="60" fromJunction="J0" toJunction="J3" end="120" vehsPerHour="83.78145985645419" departLane="free"/>
  <flow id="JF7571" begin="60" fromJunction="J3" toJunction="J0" end="120" vehsPerHour="66.9759520319936" departLane="free"/>
  <flow id="JF7572" begin="60" fromJunction="J0" toJunction="J4" end="120" vehsPerHour="55.562508000385456" departLane="free"/>
  <flow id="JF7573" begin="60" fromJunction="J0" toJunction="J7" end="120" vehsPerHour="114.5781716994878" departLane="free"/>
  <flow id="JF7574" begin="60" fromJunction="J0" toJunction="J5" end="120" vehsPerHour="99.62713894540822" departLane="free"/>
  <flow id="JF7575" begin="60" fromJunction="J0" toJunction="J6" end="120" vehsPerHour="39.77452741895213" departLane="free"/>
  <flow id="JF7576" begin="60" fromJunction="J3" toJunction="J4" end="120" vehsPerHour="128.2359819762458" departLane="free"/>
  <flow id="JF7577" begin="60" fromJunction="J3" toJunction="J7" end="120" vehsPerHour="126.86264117322986" departLane="free"/>
  <flow id="JF7578" begin="60" fromJunction="J3" toJunction="J5" end="120" vehsPerHour="99.34204798522921" departLane="free"/>
  <flow id="JF7579" begin="60" fromJunction="J3" toJunction="J6" end="120" vehsPerHour="117.23054225709248" departLane="free"/>
  <flow id="JF7580" begin="60" fromJunction="J4" toJunction="J7" end="120" vehsPerHour="22.63894820354862" departLane="free"/>
  <flow id="JF7581" begin="60" fromJunction="J4" toJunction="J5" end="120" vehsPerHour="46.787469759994146" departLane="free"/>
  <flow id="JF7582" begin="60" fromJunction="J4" toJunction="J6" end="120" vehsPerHour="40.32179147393004" departLane="free"/>
  <flow id="JF7583" begin="60" fromJunction="J7" toJunction="J4" end="120" vehsPerHour="10.885840447939925" departLane="free"/>
  <flow id="JF7584" begin="60" fromJunction="J7" toJunction="J5" end="120" vehsPerHour="54.49976532534977" departLane="free"/>
  <flow id="JF7585" begin="60" fromJunction="J7" toJunction="J6" end="120" vehsPerHour="23.224064890335907" departLane="free"/>
  <flow id="JF7586" begin="60" fromJunction="J5" toJunction="J4" end="120" vehsPerHour="30.76674774592515" departLane="free"/>
  <flow id="JF7587" begin="60" fromJunction="J5" toJunction="J7" end="120" vehsPerHour="39.09866707831257" departLane="free"/>
  <flow id="JF7588" begin="60" fromJunction="J5" toJunction="J6" end="120" vehsPerHour="41.17512165432563" departLane="free"/>
  <flow id="JF7589" begin="60" fromJunction="J6" toJunction="J4" end="120" vehsPerHour="19.027372120493254" departLane="free"/>
  <flow id="JF7590" begin="60" fromJunction="J6" toJunction="J7" end="120" vehsPerHour="41.443070705067214" departLane="free"/>
  <flow id="JF7591" begin="60" fromJunction="J6" toJunction="J5" end="120" vehsPerHour="4.121433218925673" departLane="free"/>
  <flow id="JF7592" begin="60" fromJunction="J4" toJunction="J0" end="120" vehsPerHour="45.9790013682293" departLane="free"/>
  <flow id="JF7593" begin="60" fromJunction="J4" toJunction="J3" end="120" vehsPerHour="5.22110107402334" departLane="free"/>
  <flow id="JF7594" begin="60" fromJunction="J7" toJunction="J0" end="120" vehsPerHour="16.5540254735875" departLane="free"/>
  <flow id="JF7595" begin="60" fromJunction="J7" toJunction="J3" end="120" vehsPerHour="24.203085081051686" departLane="free"/>
  <flow id="JF7596" begin="60" fromJunction="J5" toJunction="J0" end="120" vehsPerHour="9.3817033743691" departLane="free"/>
  <flow id="JF7597" begin="60" fromJunction="J5" toJunction="J3" end="120" vehsPerHour="8.663000614989452" departLane="free"/>
  <flow id="JF7598" begin="60" fromJunction="J6" toJunction="J0" end="120" vehsPerHour="62.24517918397736" departLane="free"/>
  <flow id="JF7599" begin="60" fromJunction="J6" toJunction="J3" end="120" vehsPerHour="24.91433545727176" departLane="free"/>
  <flow id="JF7600" begin="120" fromJunction="J0" toJunction="J3" end="180" vehsPerHour="128.34785553339455" departLane="free"/>
  <flow id="JF7601" begin="120" fromJunction="J3" toJunction="J0" end="180" vehsPerHour="107.18491351526501" departLane="free"/>
  <flow id="JF7602" begin="120" fromJunction="J0" toJunction="J4" end="180" vehsPerHour="90.14681718615921" departLane="free"/>
  <flow id="JF7603" begin="120" fromJunction="J0" toJunction="J7" end="180" vehsPerHour="91.29377004243995" departLane="free"/>
  <flow id="JF7604" begin="120" fromJunction="J0" toJunction="J5" end="180" vehsPerHour="82.73753805863619" departLane="free"/>
  <flow id="JF7605" begin="120" fromJunction="J0" toJunction="J6" end="180" vehsPerHour="24.96308298519436" departLane="free"/>
  <flow id="JF7606" begin="120" fromJunction="J3" toJunction="J4" end="180" vehsPerHour="6.315661075229653" departLane="free"/>
  <flow id="JF7607" begin="120" fromJunction="J3" toJunction="J7" end="180" vehsPerHour="49.079767433366015" departLane="free"/>
  <flow id="JF7608" begin="120" fromJunction="J3" toJunction="J5" end="180" vehsPerHour="124.74970830082022" departLane="free"/>
  <flow id="JF7609" begin="120" fromJunction="J3" toJunction="J6" end="180" vehsPerHour="70.99102943985297" departLane="free"/>
  <flow id="JF7610" begin="120" fromJunction="J4" toJunction="J7" end="180" vehsPerHour="5.787242243334478" departLane="free"/>
  <flow id="JF7611" begin="120" fromJunction="J4" toJunction="J5" end="180" vehsPerHour="5.938986357281928" departLane="free"/>
  <flow id="JF7612" begin="120" fromJunction="J4" toJunction="J6" end="180" vehsPerHour="40.75616660775581" departLane="free"/>
  <flow id="JF7613" begin="120" fromJunction="J7" toJunction="J4" end="180" vehsPerHour="16.236600261199523" departLane="free"/>
  <flow id="JF7614" begin="120" fromJunction="J7" toJunction="J5" end="180" vehsPerHour="8.756571650821781" departLane="free"/>
  <flow id="JF7615" begin="120" fromJunction="J7" toJunction="J6" end="180" vehsPerHour="21.248024645042452" departLane="free"/>
  <flow id="JF7616" begin="120" fromJunction="J5" toJunction="J4" end="180" vehsPerHour="27.98439437139169" departLane="free"/>
  <flow id="JF7617" begin="120" fromJunction="J5" toJunction="J7" end="180" vehsPerHour="25.1395705932327" departLane="free"/>
  <flow id="JF7618" begin="120" fromJunction="J5" toJunction="J6" end="180" vehsPerHour="4.239356990002272" departLane="free"/>
  <flow id="JF7619" begin="120" fromJunction="J6" toJunction="J4" end="180" vehsPerHour="45.51339165858848" departLane="free"/>
  <flow id="JF7620" begin="120" fromJunction="J6" toJunction="J7" end="180" vehsPerHour="58.25947836884361" departLane="free"/>
  <flow id="JF7621" begin="120" fromJunction="J6" toJunction="J5" end="180" vehsPerHour="8.767123794678868" departLane="free"/>
  <flow id="JF7622" begin="120" fromJunction="J4" toJunction="J0" end="180" vehsPerHour="53.07068953675486" departLane="free"/>
  <flow id="JF7623" begin="120" fromJunction="J4" toJunction="J3" end="180" vehsPerHour="54.48643088996179" departLane="free"/>
  <flow id="JF7624" begin="120" fromJunction="J7" toJunction="J0" end="180" vehsPerHour="4.525342070125455" departLane="free"/>
  <flow id="JF7625" begin="120" fromJunction="J7" toJunction="J3" end="180" vehsPerHour="21.306482028257005" departLane="free"/>
  <flow id="JF7626" begin="120" fromJunction="J5" toJunction="J0" end="180" vehsPerHour="39.71270617763605" departLane="free"/>
  <flow id="JF7627" begin="120" fromJunction="J5" toJunction="J3" end="180" vehsPerHour="12.242808866646241" departLane="free"/>
  <flow id="JF7628" begin="120" fromJunction="J6" toJunction="J0" end="180" vehsPerHour="4.0941750103437915" departLane="free"/>
  <flow id="JF7629" begin="120" fromJunction="J6" toJunction="J3" end="180" vehsPerHour="5.735149554818541" departLane="free"/>
  <flow id="JF7630" begin="180" fromJunction="J0" toJunction="J3" end="240" vehsPerHour="122.95984224499121" departLane="free"/>
  <flow id="JF7631" begin="180" fromJunction="J3" toJunction="J0" end="240" vehsPerHour="18.417054928412664" departLane="free"/>
  <flow id="JF7632" begin="180" fromJunction="J0" toJunction="J4" end="240" vehsPerHour="14.754339169928341" departLane="free"/>
  <flow id="JF7633" begin="180" fromJunction="J0" toJunction="J7" end="240" vehsPerHour="98.87123776184337" departLane="free"/>
  <flow id="JF7634" begin="180" fromJunction="J0" toJunction="J5" end="240" vehsPerHour="124.21013032021003" departLane="free"/>
  <flow id="JF7635" begin="180" fromJunction="J0" toJunction="J6" end="240" vehsPerHour="36.65392419273604" departLane="free"/>
  <flow id="JF7636" begin="180" fromJunction="J3" toJunction="J4" end="240" vehsPerHour="75.86419666114612" departLane="free"/>
  <flow id="JF7637" begin="180" fromJunction="J3" toJunction="J7" end="240" vehsPerHour="120.67285854226613" departLane="free"/>
  <flow id="JF7638" begin="180" fromJunction="J3" toJunction="J5" end="240" vehsPerHour="128.97803572476076" departLane="free"/>
  <flow id="JF7639" begin="180" fromJunction="J3" toJunction="J6" end="240" vehsPerHour="84.25444178813424" departLane="free"/>
  <flow id="JF7640" begin="180" fromJunction="J4" toJunction="J7" end="240" vehsPerHour="30.56502333143354" departLane="free"/>
  <flow id="JF7641" begin="180" fromJunction="J4" toJunction="J5" end="240" vehsPerHour="8.646473876301833" departLane="free"/>
  <flow id="JF7642" begin="180" fromJunction="J4" toJunction="J6" end="240" vehsPerHour="50.49322755064497" departLane="free"/>
  <flow id="JF7643" begin="180" fromJunction="J7" toJunction="J4" end="240" vehsPerHour="20.886478262524676" departLane="free"/>
  <flow id="JF7644" begin="180" fromJunction="J7" toJunction="J5" end="240" vehsPerHour="48.196464399302165" departLane="free"/>
  <flow id="JF7645" begin="180" fromJunction="J7" toJunction="J6" end="240" vehsPerHour="10.12287845735837" departLane="free"/>
  <flow id="JF7646" begin="180" fromJunction="J5" toJunction="J4" end="240" vehsPerHour="5.873394200809776" departLane="free"/>
  <flow id="JF7647" begin="180" fromJunction="J5" toJunction="J7" end="240" vehsPerHour="21.933434846935583" departLane="free"/>
  <flow id="JF7648" begin="180" fromJunction="J5" toJunction="J6" end="240" vehsPerHour="26.303552680080063" departLane="free"/>
  <flow id="JF7649" begin="180" fromJunction="J6" toJunction="J4" end="240" vehsPerHour="68.4114917118091" departLane="free"/>
  <flow id="JF7650" begin="180" fromJunction="J6" toJunction="J7" end="240" vehsPerHour="6.827387335507672" departLane="free"/>
  <flow id="JF7651" begin="180" fromJunction="J6" toJunction="J5" end="240" vehsPerHour="60.04943663874399" departLane="free"/>
  <flow id="JF7652" begin="180" fromJunction="J4" toJunction="J0" end="240" vehsPerHour="25.23369979864187" departLane="free"/>
  <flow id="JF7653" begin="180" fromJunction="J4" toJunction="J3" end="240" vehsPerHour="15.565255361999935" departLane="free"/>
  <flow id="JF7654" begin="180" fromJunction="J7" toJunction="J0" end="240" vehsPerHour="68.24918100310794" departLane="free"/>
  <flow id="JF7655" begin="180" fromJunction="J7" toJunction="J3" end="240" vehsPerHour="44.33017065136441" departLane="free"/>
  <flow id="JF7656" begin="180" fromJunction="J5" toJunction="J0" end="240" vehsPerHour="33.22378152919521" departLane="free"/>
  <flow id="JF7657" begin="180" fromJunction="J5" toJunction="J3" end="240" vehsPerHour="41.583352766228614" departLane="free"/>
  <flow id="JF7658" begin="180" fromJunction="J6" toJunction="J0" end="240" vehsPerHour="64.66543428624087" departLane="free"/>
  <flow id="JF7659" begin="180" fromJunction="J6" toJunction="J3" end="240" vehsPerHour="37.02555123845473" departLane="free"/>
  <flow id="JF7660" begin="240" fromJunction="J0" toJunction="J3" end="300" vehsPerHour="120.83110318235174" departLane="free"/>
  <flow id="JF7661" begin="240" fromJunction="J3" toJunction="J0" end="300" vehsPerHour="87.61486971619111" departLane="free"/>
  <flow id="JF7662" begin="240" fromJunction="J0" toJunction="J4" end="300" vehsPerHour="59.70961050998043" departLane="free"/>
  <flow id="JF7663" begin="240" fromJunction="J0" toJunction="J7" end="300" vehsPerHour="107.2211470827851" departLane="free"/>
  <flow id="JF7664" begin="240" fromJunction="J0" toJunction="J5" end="300" vehsPerHour="60.47100503812835" departLane="free"/>
  <flow id="JF7665" begin="240" fromJunction="J0" toJunction="J6" end="300" vehsPerHour="33.077498196839834" departLane="free"/>
  <flow id="JF7666" begin="240" fromJunction="J3" toJunction="J4" end="300" vehsPerHour="1.4730735628930587" departLane="free"/>
  <flow id="JF7667" begin="240" fromJunction="J3" toJunction="J7" end="300" vehsPerHour="28.889413351894586" departLane="free"/>
  <flow id="JF7668" begin="240" fromJunction="J3" toJunction="J5" end="300" vehsPerHour="48.875931822273984" departLane="free"/>
  <flow id="JF7669" begin="240" fromJunction="J3" toJunction="J6" end="300" vehsPerHour="36.407432878120304" departLane="free"/>
  <flow id="JF7670" begin="240" fromJunction="J4" toJunction="J7" end="300" vehsPerHour="6.809062849278181" departLane="free"/>
  <flow id="JF7671" begin="240" fromJunction="J4" toJunction="J5" end="300" vehsPerHour="22.96008188000337" departLane="free"/>
  <flow id="JF7672" begin="240" fromJunction="J4" toJunction="J6" end="300" vehsPerHour="23.996340687526157" departLane="free"/>
  <flow id="JF7673" begin="240" fromJunction="J7" toJunction="J4" end="300" vehsPerHour="10.0476011157043" departLane="free"/>
  <flow id="JF7674" begin="240" fromJunction="J7" toJunction="J5" end="300" vehsPerHour="65.31660906493133" departLane="free"/>
  <flow id="JF7675" begin="240" fromJunction="J7" toJunction="J6" end="300" vehsPerHour="20.689782693030388" departLane="free"/>
  <flow id="JF7676" begin="240" fromJunction="J5" toJunction="J4" end="300" vehsPerHour="38.19247679885043" departLane="free"/>
  <flow id="JF7677" begin="240" fromJunction="J5" toJunction="J7" end="300" vehsPerHour="38.030256334730126" departLane="free"/>
  <flow id="JF7678" begin="240" fromJunction="J5" toJunction="J6" end="300" vehsPerHour="6.799088419653031" departLane="free"/>
  <flow id="JF7679" begin="240" fromJunction="J6" toJunction="J4" end="300" vehsPerHour="20.760712038282932" departLane="free"/>
  <flow id="JF7680" begin="240" fromJunction="J6" toJunction="J7" end="300" vehsPerHour="3.343117234683819" departLane="free"/>
  <flow id="JF7681" begin="240" fromJunction="J6" toJunction="J5" end="300" vehsPerHour="10.864956174239245" departLane="free"/>
  <flow id="JF7682" begin="240" fromJunction="J4" toJunction="J0" end="300" vehsPerHour="24.652300110676862" departLane="free"/>
  <flow id="JF7683" begin="240" fromJunction="J4" toJunction="J3" end="300" vehsPerHour="24.86828508131719" departLane="free"/>
  <flow id="JF7684" begin="240" fromJunction="J7" toJunction="J0" end="300" vehsPerHour="14.044037293094268" departLane="free"/>
  <flow id="JF7685" begin="240" fromJunction="J7" toJunction="J3" end="300" vehsPerHour="21.09065854529195" departLane="free"/>
  <flow id="JF7686" begin="240" fromJunction="J5" toJunction="J0" end="300" vehsPerHour="32.109476404525324" departLane="free"/>
  <flow id="JF7687" begin="240" fromJunction="J5" toJunction="J3" end="300" vehsPerHour="21.241493639001042" departLane="free"/>
  <flow id="JF7688" begin="240" fromJunction="J6" toJunction="J0" end="300" vehsPerHour="55.71172430373507" departLane="free"/>
  <flow id="JF7689" begin="240" fromJunction="J6" toJunction="J3" end="300" vehsPerHour="29.513533235579093" departLane="free"/>
  <flow id="JF7690" begin="300" fromJunction="J0" toJunction="J3" end="360" vehsPerHour="74.58027622222677" departLane="free"/>
  <flow id="JF7691" begin="300" fromJunction="J3" toJunction="J0" end="360" vehsPerHour="37.00141017279191" departLane="free"/>
  <flow id="JF7692" begin="300" fromJunction="J0" toJunction="J4" end="360" vehsPerHour="121.78648203385352" departLane="free"/>
  <flow id="JF7693" begin="300" fromJunction="J0" toJunction="J7" end="360" vehsPerHour="81.98789282842054" departLane="free"/>
  <flow id="JF7694" begin="300" fromJunction="J0" toJunction="J5" end="360" vehsPerHour="76.00601696987266" departLane="free"/>
  <flow id="JF7695" begin="300" fromJunction="J0" toJunction="J6" end="360" vehsPerHour="45.97263900053197" departLane="free"/>
  <flow id="JF7696" begin="300" fromJunction="J3" toJunction="J4" end="360" vehsPerHour="8.030634813752522" departLane="free"/>
  <flow id="JF7697" begin="300" fromJunction="J3" toJunction="J7" end="360" vehsPerHour="57.85039971332858" departLane="free"/>
  <flow id="JF7698" begin="300" fromJunction="J3" toJunction="J5" end="360" vehsPerHour="44.96605321564232" departLane="free"/>
  <flow id="JF7699" begin="300" fromJunction="J3" toJunction="J6" end="360" vehsPerHour="89.12529993459646" departLane="free"/>
  <flow id="JF7700" begin="300" fromJunction="J4" toJunction="J7" end="360" vehsPerHour="21.22571406023384" departLane="free"/>
  <flow id="JF7701" begin="300" fromJunction="J4" toJunction="J5" end="360" vehsPerHour="11.655868137528781" departLane="free"/>
  <flow id="JF7702" begin="300" fromJunction="J4" toJunction="J6" end="360" vehsPerHour="62.56490528283886" departLane="free"/>
  <flow id="JF7703" begin="300" fromJunction="J7" toJunction="J4" end="360" vehsPerHour="47.76252731152185" departLane="free"/>
  <flow id="JF7704" begin="300" fromJunction="J7" toJunction="J5" end="360" vehsPerHour="56.87797304085158" departLane="free"/>
  <flow id="JF7705" begin="300" fromJunction="J7" toJunction="J6" end="360" vehsPerHour="30.33349260165864" departLane="free"/>
  <flow id="JF7706" begin="300" fromJunction="J5" toJunction="J4" end="360" vehsPerHour="35.107771966676474" departLane="free"/>
  <flow id="JF7707" begin="300" fromJunction="J5" toJunction="J7" end="360" vehsPerHour="23.001149011461198" departLane="free"/>
  <flow id="JF7708" begin="300" fromJunction="J5" toJunction="J6" end="360" vehsPerHour="3.896324737768543" departLane="free"/>
  <flow id="JF7709" begin="300" fromJunction="J6" toJunction="J4" end="360" vehsPerHour="34.65964629579507" departLane="free"/>
  <flow id="JF7710" begin="300" fromJunction="J6" toJunction="J7" end="360" vehsPerHour="60.34482914817136" departLane="free"/>
  <flow id="JF7711" begin="300" fromJunction="J6" toJunction="J5" end="360" vehsPerHour="15.80855889130103" departLane="free"/>
  <flow id="JF7712" begin="300" fromJunction="J4" toJunction="J0" end="360" vehsPerHour="27.104531789985593" departLane="free"/>
  <flow id="JF7713" begin="300" fromJunction="J4" toJunction="J3" end="360" vehsPerHour="10.360508008154707" departLane="free"/>
  <flow id="JF7714" begin="300" fromJunction="J7" toJunction="J0" end="360" vehsPerHour="38.083743770515305" departLane="free"/>
  <flow id="JF7715" begin="300" fromJunction="J7" toJunction="J3" end="360" vehsPerHour="55.33450010391934" departLane="free"/>
  <flow id="JF7716" begin="300" fromJunction="J5" toJunction="J0" end="360" vehsPerHour="0.69143984626618" departLane="free"/>
  <flow id="JF7717" begin="300" fromJunction="J5" toJunction="J3" end="360" vehsPerHour="8.461700433386497" departLane="free"/>
  <flow id="JF7718" begin="300" fromJunction="J6" toJunction="J0" end="360" vehsPerHour="51.24713447553068" departLane="free"/>
  <flow id="JF7719" begin="300" fromJunction="J6" toJunction="J3" end="360" vehsPerHour="44.83804394397886" departLane="free"/>
  <flow id="JF7720" begin="360" fromJunction="J0" toJunction="J3" end="420" vehsPerHour="32.9885867877622" departLane="free"/>
  <flow id="JF7721" begin="360" fromJunction="J3" toJunction="J0" end="420" vehsPerHour="102.04023354274162" departLane="free"/>
  <flow id="JF7722" begin="360" fromJunction="J0" toJunction="J4" end="420" vehsPerHour="16.49274116125027" departLane="free"/>
  <flow id="JF7723" begin="360" fromJunction="J0" toJunction="J7" end="420" vehsPerHour="112.67767293394725" departLane="free"/>
  <flow id="JF7724" begin="360" fromJunction="J0" toJunction="J5" end="420" vehsPerHour="116.32884599338995" departLane="free"/>
  <flow id="JF7725" begin="360" fromJunction="J0" toJunction="J6" end="420" vehsPerHour="106.08469662529878" departLane="free"/>
  <flow id="JF7726" begin="360" fromJunction="J3" toJunction="J4" end="420" vehsPerHour="118.8987358818573" departLane="free"/>
  <flow id="JF7727" begin="360" fromJunction="J3" toJunction="J7" end="420" vehsPerHour="114.23346823614584" departLane="free"/>
  <flow id="JF7728" begin="360" fromJunction="J3" toJunction="J5" end="420" vehsPerHour="45.012173634185395" departLane="free"/>
  <flow id="JF7729" begin="360" fromJunction="J3" toJunction="J6" end="420" vehsPerHour="55.17572343549966" departLane="free"/>
  <flow id="JF7730" begin="360" fromJunction="J4" toJunction="J7" end="420" vehsPerHour="9.251942030260143" departLane="free"/>
  <flow id="JF7731" begin="360" fromJunction="J4" toJunction="J5" end="420" vehsPerHour="67.18897586586712" departLane="free"/>
  <flow id="JF7732" begin="360" fromJunction="J4" toJunction="J6" end="420" vehsPerHour="3.097041573460823" departLane="free"/>
  <flow id="JF7733" begin="360" fromJunction="J7" toJunction="J4" end="420" vehsPerHour="25.320796571480706" departLane="free"/>
  <flow id="JF7734" begin="360" fromJunction="J7" toJunction="J5" end="420" vehsPerHour="53.090129024627224" departLane="free"/>
  <flow id="JF7735" begin="360" fromJunction="J7" toJunction="J6" end="420" vehsPerHour="14.976469408091907" departLane="free"/>
  <flow id="JF7736" begin="360" fromJunction="J5" toJunction="J4" end="420" vehsPerHour="21.946596576501193" departLane="free"/>
  <flow id="JF7737" begin="360" fromJunction="J5" toJunction="J7" end="420" vehsPerHour="27.665240032737493" departLane="free"/>
  <flow id="JF7738" begin="360" fromJunction="J5" toJunction="J6" end="420" vehsPerHour="54.92424912317419" departLane="free"/>
  <flow id="JF7739" begin="360" fromJunction="J6" toJunction="J4" end="420" vehsPerHour="29.614485732122784" departLane="free"/>
  <flow id="JF7740" begin="360" fromJunction="J6" toJunction="J7" end="420" vehsPerHour="20.085046319602597" departLane="free"/>
  <flow id="JF7741" begin="360" fromJunction="J6" toJunction="J5" end="420" vehsPerHour="29.10324334756785" departLane="free"/>
  <flow id="JF7742" begin="360" fromJunction="J4" toJunction="J0" end="420" vehsPerHour="47.13352163773146" departLane="free"/>
  <flow id="JF7743" begin="360" fromJunction="J4" toJunction="J3" end="420" vehsPerHour="16.505789014949563" departLane="free"/>
  <flow id="JF7744" begin="360" fromJunction="J7" toJunction="J0" end="420" vehsPerHour="21.73687793871553" departLane="free"/>
  <flow id="JF7745" begin="360" fromJunction="J7" toJunction="J3" end="420" vehsPerHour="63.39281374436276" departLane="free"/>
  <flow id="JF7746" begin="360" fromJunction="J5" toJunction="J0" end="420" vehsPerHour="3.4674510107009304" departLane="free"/>
  <flow id="JF7747" begin="360" fromJunction="J5" toJunction="J3" end="420" vehsPerHour="9.564650080109766" departLane="free"/>
  <flow id="JF7748" begin="360" fromJunction="J6" toJunction="J0" end="420" vehsPerHour="63.08897468087951" departLane="free"/>
  <flow id="JF7749" begin="360" fromJunction="J6" toJunction="J3" end="420" vehsPerHour="4.735589285678977" departLane="free"/>
  <flow id="JF7750" begin="420" fromJunction="J0" toJunction="J3" end="480" vehsPerHour="85.79011767562552" departLane="free"/>
  <flow id="JF7751" begin="420" fromJunction="J3" toJunction="J0" end="480" vehsPerHour="131.17620945718258" departLane="free"/>
  <flow id="JF7752" begin="420" fromJunction="J0" toJunction="J4" end="480" vehsPerHour="97.156407045598" departLane="free"/>
  <flow id="JF7753" begin="420" fromJunction="J0" toJunction="J7" end="480" vehsPerHour="35.07087050733726" departLane="free"/>
  <flow id="JF7754" begin="420" fromJunction="J0" toJunction="J5" end="480" vehsPerHour="2.2562317231232427" departLane="free"/>
  <flow id="JF7755" begin="420" fromJunction="J0" toJunction="J6" end="480" vehsPerHour="71.66459294752529" departLane="free"/>
  <flow id="JF7756" begin="420" fromJunction="J3" toJunction="J4" end="480" vehsPerHour="99.40007252089563" departLane="free"/>
  <flow id="JF7757" begin="420" fromJunction="J3" toJunction="J7" end="480" vehsPerHour="98.52062311058151" departLane="free"/>
  <flow id="JF7758" begin="420" fromJunction="J3" toJunction="J5" end="480" vehsPerHour="76.20084065186924" departLane="free"/>
  <flow id="JF7759" begin="420" fromJunction="J3" toJunction="J6" end="480" vehsPerHour="17.11239114805985" departLane="free"/>
  <flow id="JF7760" begin="480" fromJunction="J0" toJunction="J3" end="540" vehsPerHour="134.88903194821364" departLane="free"/>
  <flow id="JF7761" begin="480" fromJunction="J3" toJunction="J0" end="540" vehsPerHour="99.10979451336775" departLane="free"/>
  <flow id="JF7762" begin="480" fromJunction="J0" toJunction="J4" end="540" vehsPerHour="112.30583686864856" departLane="free"/>
  <flow id="JF7763" begin="480" fromJunction="J0" toJunction="J7" end="540" vehsPerHour="56.71067746475303" departLane="free"/>
  <flow id="JF7764" begin="480" fromJunction="J0" toJunction="J5" end="540" vehsPerHour="50.676951145553765" departLane="free"/>
  <flow id="JF7765" begin="480" fromJunction="J0" toJunction="J6" end="540" vehsPerHour="106.72029932413274" departLane="free"/>
  <flow id="JF7766" begin="480" fromJunction="J3" toJunction="J4" end="540" vehsPerHour="40.17355031792056" departLane="free"/>
  <flow id="JF7767" begin="480" fromJunction="J3" toJunction="J7" end="540" vehsPerHour="36.77602595932939" departLane="free"/>
  <flow id="JF7768" begin="480" fromJunction="J3" toJunction="J5" end="540" vehsPerHour="71.20701085992295" departLane="free"/>
  <flow id="JF7769" begin="480" fromJunction="J3" toJunction="J6" end="540" vehsPerHour="92.82187238193644" departLane="free"/>
  <flow id="JF7770" begin="480" fromJunction="J4" toJunction="J7" end="540" vehsPerHour="66.89169907847602" departLane="free"/>
  <flow id="JF7771" begin="480" fromJunction="J4" toJunction="J5" end="540" vehsPerHour="41.662763083078325" departLane="free"/>
  <flow id="JF7772" begin="480" fromJunction="J4" toJunction="J6" end="540" vehsPerHour="36.63395541842232" departLane="free"/>