<?xml version="1.0" encoding="UTF-8"?>
<routes xmlns:xsi="http://www.w3.org/2001/XMLSchema-instance" xsi:noNamespaceSchemaLocation="http://sumo.dlr.de/xsd/routes_file.xsd">
  <flow id="JF0" begin="0" fromJunction="J0" toJunction="J3" end="60" vehsPerHour="60.983557016078834" departLane="free"/>
  <flow id="JF1" begin="0" fromJunction="J3" toJunction="J0" end="60" vehsPerHour="136.67408287852797" departLane="free"/>
  <flow id="JF2" begin="0" fromJunction="J0" toJunction="J4" end="60" vehsPerHour="111.04591375178322" departLane="free"/>
  <flow id="JF3" begin="0" fromJunction="J0" toJunction="J7" end="60" vehsPerHour="46.537824078574104" departLane="free"/>
  <flow id="JF4" begin="0" fromJunction="J0" toJunction="J5" end="60" vehsPerHour="31.630250312514054" departLane="free"/>
  <flow id="JF5" begin="0" fromJunction="J0" toJunction="J6" end="60" vehsPerHour="117.27962888947772" departLane="free"/>
  <flow id="JF6" begin="0" fromJunction="J3" toJunction="J4" end="60" vehsPerHour="83.5648117829669" departLane="free"/>
  <flow id="JF7" begin="0" fromJunction="J3" toJunction="J7" end="60" vehsPerHour="34.86079658166326" departLane="free"/>
  <flow id="JF8" begin="0" fromJunction="J3" toJunction="J5" end="60" vehsPerHour="73.05800550682595" departLane="free"/>
  <flow id="JF9" begin="0" fromJunction="J3" toJunction="J6" end="60" vehsPerHour="124.70069594391678" departLane="free"/>
  <flow id="JF10" begin="0" fromJunction="J4" toJunction="J7" end="60" vehsPerHour="55.42624726635111" departLane="free"/>
  <flow id="JF11" begin="0" fromJunction="J4" toJunction="J5" end="60" vehsPerHour="31.90476774303282" departLane="free"/>
  <flow id="JF12" begin="0" fromJunction="J4" toJunction="J6" end="60" vehsPerHour="9.283418371559943" departLane="free"/>
  <flow id="JF13" begin="0" fromJunction="J7" toJunction="J4" end="60" vehsPerHour="16.404573722719743" departLane="free"/>
  <flow id="JF14" begin="0" fromJunction="J7" toJunction="J5" end="60" vehsPerHour="19.473486668389118" departLane="free"/>
  <flow id="JF15" begin="0" fromJunction="J7" toJunction="J6" end="60" vehsPerHour="39.77786402910098" departLane="free"/>
  <flow id="JF16" begin="0" fromJunction="J5" toJunction="J4" end="60" vehsPerHour="27.17038494194688" departLane="free"/>
  <flow id="JF17" begin="0" fromJunction="J5" toJunction="J7" end="60" vehsPerHour="56.02794618078395" departLane="free"/>
  <flow id="JF18" begin="0" fromJunction="J5" toJunction="J6" end="60" vehsPerHour="32.94513487465614" departLane="free"/>
  <flow id="JF19" begin="0" fromJunction="J6" toJunction="J4" end="60" vehsPerHour="51.861855913847066" departLane="free"/>
  <flow id="JF20" begin="0" fromJunction="J6" toJunction="J7" end="60" vehsPerHour="39.71501120697173" departLane="free"/>
  <flow id="JF21" begin="0" fromJunction="J6" toJunction="J5" end="60" vehsPerHour="39.32120933252268" departLane="free"/>
  <flow id="JF22" begin="0" fromJunction="J4" toJunction="J0" end="60" vehsPerHour="14.063458798581552" departLane="free"/>
  <flow id="JF23" begin="0" fromJunction="J4" toJunction="J3" end="60" vehsPerHour="20.275754053386404" departLane="free"/>
  <flow id="JF24" begin="0" fromJunction="J7" toJunction="J0" end="60" vehsPerHour="7.318451733138217" departLane="free"/>
  <flow id="JF25" begin="0" fromJunction="J7" toJunction="J3" end="60" vehsPerHour="67.91537710553479" departLane="free"/>
  <flow id="JF26" begin="0" fromJunction="J5" toJunction="J0" end="60" vehsPerHour="49.888637325916285" departLane="free"/>
  <flow id="JF27" begin="0" fromJunction="J5" toJunction="J3" end="60" vehsPerHour="16.644150490885345" departLane="free"/>
  <flow id="JF28" begin="0" fromJunction="J6" toJunction="J0" end="60" vehsPerHour="21.642203922155986" departLane="free"/>
  <flow id="JF29" begin="0" fromJunction="J6" toJunction="J3" end="60" vehsPerHour="23.96388747591824" departLane="free"/>
  <flow id="JF30" begin="60" fromJunction="J0" toJunction="J3" end="120" vehsPerHour="27.067766528078185" departLane="free"/>
  <flow id="JF31" begin="60" fromJunction="J3" toJunction="J0" end="120" vehsPerHour="64.19995874201722" departLane="free"/>
  <flow id="JF32" begin="60" fromJunction="J0" toJunction="J4" end="120" vehsPerHour="31.108638285054305" departLane="free"/>
  <flow id="JF33" begin="60" fromJunction="J0" toJunction="J7" end="120" vehsPerHour="31.623183176927885" departLane="free"/>
  <flow id="JF34" begin="60" fromJunction="J0" toJunction="J5" end="120" vehsPerHour="71.0986383158895" departLane="free"/>
  <flow id="JF35" begin="60" fromJunction="J0" toJunction="J6" end="120" vehsPerHour="110.83313080953677" departLane="free"/>
  <flow id="JF36" begin="60" fromJunction="J3" toJunction="J4" end="120" vehsPerHour="93.89640008884274" departLane="free"/>
  <flow id="JF37" begin="60" fromJunction="J3" toJunction="J7" end="120" vehsPerHour="10.958613246043376" departLane="free"/>
  <flow id="JF38" begin="60" fromJunction="J3" toJunction="J5" end="120" vehsPerHour="55.183582492620324" departLane="free"/>
  <flow id="JF39" begin="60" fromJunction="J3" toJunction="J6" end="120" vehsPerHour="1.617692400512376" departLane="free"/>
  <flow id="JF40" begin="60" fromJunction="J4" toJunction="J7" end="120" vehsPerHour="4.396374775364886" departLane="free"/>
  <flow id="JF41" begin="60" fromJunction="J4" toJunction="J5" end="120" vehsPerHour="50.5722046290523" departLane="free"/>
  <flow id="JF42" begin="60" fromJunction="J4" toJunction="J6" end="120" vehsPerHour="4.655287178051613" departLane="free"/>
  <flow id="JF43" begin="60" fromJunction="J7" toJunction="J4" end="120" vehsPerHour="10.932827599248881" departLane="free"/>
  <flow id="JF44" begin="60" fromJunction="J7" toJunction="J5" end="120" vehsPerHour="26.99428373530005" departLane="free"/>
  <flow id="JF45" begin="60" fromJunction="J7" toJunction="J6" end="120" vehsPerHour="50.65273448836708" departLane="free"/>
  <flow id="JF46" begin="60" fromJunction="J5" toJunction="J4" end="120" vehsPerHour="47.14734895968287" departLane="free"/>
  <flow id="JF47" begin="60" fromJunction="J5" toJunction="J7" end="120" vehsPerHour="44.841028032323955" departLane="free"/>
  <flow id="JF48" begin="60" fromJunction="J5" toJunction="J6" end="120" vehsPerHour="68.22552054006907" departLane="free"/>
  <flow id="JF49" begin="60" fromJunction="J6" toJunction="J4" end="120" vehsPerHour="35.854997622563296" departLane="free"/>
  <flow id="JF50" begin="60" fromJunction="J6" toJunction="J7" end="120" vehsPerHour="62.459413155208324" departLane="free"/>
  <flow id="JF51" begin="60" fromJunction="J6" toJunction="J5" end="120" vehsPerHour="22.93668522726304" departLane="free"/>
  <flow id="JF52" begin="60" fromJunction="J4" toJunction="J0" end="120" vehsPerHour="7.647846088390519" departLane="free"/>
  <flow id="JF53" begin="60" fromJunction="J4" toJunction="J3" end="120" vehsPerHour="44.047673676877785" departLane="free"/>
  <flow id="JF54" begin="60" fromJunction="J7" toJunction="J0" end="120" vehsPerHour="61.469663487809804" departLane="free"/>
  <flow id="JF55" begin="60" fromJunction="J7" toJunction="J3" end="120" vehsPerHour="26.245025674535302" departLane="free"/>
  <flow id="JF56" begin="60" fromJunction="J5" toJunction="J0" end="120" vehsPerHour="52.17150996281363" departLane="free"/>
  <flow id="JF57" begin="60" fromJunction="J5" toJunction="J3" end="120" vehsPerHour="50.013462966670225" departLane="free"/>
  <flow id="JF58" begin="60" fromJunction="J6" toJunction="J0" end="120" vehsPerHour="63.134993092532746" departLane="free"/>
  <flow id="JF59" begin="60" fromJunction="J6" toJunction="J3" end="120" vehsPerHour="34.18811355341319" departLane="free"/>
  <flow id="JF60" begin="120" fromJunction="J0" toJunction="J3" end="180" vehsPerHour="34.66846453346765" departLane="free"/>
  <flow id="JF61" begin="120" fromJunction="J3" toJunction="J0" end="180" vehsPerHour="22.299527289784457" departLane="free"/>
  <flow id="JF62" begin="120" fromJunction="J0" toJunction="J4" end="180" vehsPerHour="89.27309398809405" departLane="free"/>
  <flow id="JF63" begin="120" fromJunction="J0" toJunction="J7" end="180" vehsPerHour="8.022122528675366" departLane="free"/>
  <flow id="JF64" begin="120" fromJunction="J0" toJunction="J5" end="180" vehsPerHour="15.07181084119699" departLane="free"/>
  <flow id="JF65" begin="120" fromJunction="J0" toJunction="J6" end="180" vehsPerHour="70.4534639788323" departLane="free"/>
  <flow id="JF66" begin="120" fromJunction="J3" toJunction="J4" end="180" vehsPerHour="39.781150529840325" departLane="free"/>
  <flow id="JF67" begin="120" fromJunction="J3" toJunction="J7" end="180" vehsPerHour="35.853573084829065" departLane="free"/>
  <flow id="JF68" begin="120" fromJunction="J3" toJunction="J5" end="180" vehsPerHour="131.38281002970973" departLane="free"/>
  <flow id="JF69" begin="120" fromJunction="J3" toJunction="J6" end="180" vehsPerHour="33.80523170241166" departLane="free"/>
  <flow id="JF70" begin="120" fromJunction="J4" toJunction="J7" end="180" vehsPerHour="31.780943173139203" departLane="free"/>
  <flow id="JF71" begin="120" fromJunction="J4" toJunction="J5" end="180" vehsPerHour="16.99053663136895" departLane="free"/>
  <flow id="JF72" begin="120" fromJunction="J4" toJunction="J6" end="180" vehsPerHour="54.65391691325637" departLane="free"/>
  <flow id="JF73" begin="120" fromJunction="J7" toJunction="J4" end="180" vehsPerHour="18.195058871949524" departLane="free"/>
  <flow id="JF74" begin="120" fromJunction="J7" toJunction="J5" end="180" vehsPerHour="31.696170045987895" departLane="free"/>
  <flow id="JF75" begin="120" fromJunction="J7" toJunction="J6" end="180" vehsPerHour="67.77926186391187" departLane="free"/>
  <flow id="JF76" begin="120" fromJunction="J5" toJunction="J4" end="180" vehsPerHour="66.92566719369744" departLane="free"/>
  <flow id="JF77" begin="120" fromJunction="J5" toJunction="J7" end="180" vehsPerHour="41.79076260715226" departLane="free"/>
  <flow id="JF78" begin="120" fromJunction="J5" toJunction="J6" end="180" vehsPerHour="32.511972808268986" departLane="free"/>
  <flow id="JF79" begin="120" fromJunction="J6" toJunction="J4" end="180" vehsPerHour="23.45706047409739" departLane="free"/>
  <flow id="JF80" begin="120" fromJunction="J6" toJunction="J7" end="180" vehsPerHour="25.492191870348243" departLane="free"/>
  <flow id="JF81" begin="120" fromJunction="J6" toJunction="J5" end="180" vehsPerHour="67.20646609654229" departLane="free"/>
  <flow id="JF82" begin="120" fromJunction="J4" toJunction="J0" end="180" vehsPerHour="44.80852589151609" departLane="free"/>
  <flow id="JF83" begin="120" fromJunction="J4" toJunction="J3" end="180" vehsPerHour="38.886593606036655" departLane="free"/>
  <flow id="JF84" begin="120" fromJunction="J7" toJunction="J0" end="180" vehsPerHour="64.47952765038964" departLane="free"/>
  <flow id="JF85" begin="120" fromJunction="J7" toJunction="J3" end="180" vehsPerHour="9.085569250563651" departLane="free"/>
  <flow id="JF86" begin="120" fromJunction="J5" toJunction="J0" end="180" vehsPerHour="16.795856836542413" departLane="free"/>
  <flow id="JF87" begin="120" fromJunction="J5" toJunction="J3" end="180" vehsPerHour="40.85900671541924" departLane="free"/>
  <flow id="JF88" begin="120" fromJunction="J6" toJunction="J0" end="180" vehsPerHour="14.081781335280933" departLane="free"/>
  <flow id="JF89" begin="120" fromJunction="J6" toJunction="J3" end="180" vehsPerHour="19.767065129862477" departLane="free"/>
  <flow id="JF90" begin="180" fromJunction="J0" toJunction="J3" end="240" vehsPerHour="116.06791363763823" departLane="free"/>
  <flow id="JF91" begin="180" fromJunction="J3" toJunction="J0" end="240" vehsPerHour="40.90412623432606" departLane="free"/>
  <flow id="JF92" begin="180" fromJunction="J0" toJunction="J4" end="240" vehsPerHour="37.90465473107507" departLane="free"/>
  <flow id="JF93" begin="180" fromJunction="J0" toJunction="J7" end="240" vehsPerHour="36.60713301452516" departLane="free"/>
  <flow id="JF94" begin="180" fromJunction="J0" toJunction="J5" end="240" vehsPerHour="133.8471722570893" departLane="free"/>
  <flow id="JF95" begin="180" fromJunction="J0" toJunction="J6" end="240" vehsPerHour="13.348496126845356" departLane="free"/>
  <flow id="JF96" begin="180" fromJunction="J3" toJunction="J4" end="240" vehsPerHour="112.18490271830174" departLane="free"/>
  <flow id="JF97" begin="180" fromJunction="J3" toJunction="J7" end="240" vehsPerHour="42.32119621652199" departLane="free"/>
  <flow id="JF98" begin="180" fromJunction="J3" toJunction="J5" end="240" vehsPerHour="59.675436148389366" departLane="free"/>
  <flow id="JF99" begin="180" fromJunction="J3" toJunction="J6" end="240" vehsPerHour="28.518614205891254" departLane="free"/>
  <flow id="JF100" begin="180" fromJunction="J4" toJunction="J7" end="240" vehsPerHour="44.835728968780494" departLane="free"/>
  <flow id="JF101" begin="180" fromJunction="J4" toJunction="J5" end="240" vehsPerHour="21.382757001038975" departLane="free"/>
  <flow id="JF102" begin="180" fromJunction="J4" toJunction="J6" end="240" vehsPerHour="4.74221527318704" departLane="free"/>
  <flow id="JF103" begin="180" fromJunction="J7" toJunction="J4" end="240" vehsPerHour="67.53791500370775" departLane="free"/>
  <flow id="JF104" begin="180" fromJunction="J7" toJunction="J5" end="240" vehsPerHour="38.03634185800149" departLane="free"/>
  <flow id="JF105" begin="180" fromJunction="J7" toJunction="J6" end="240" vehsPerHour="62.510790791221595" departLane="free"/>
  <flow id="JF106" begin="180" fromJunction="J5" toJunction="J4" end="240" vehsPerHour="57.89251146036165" departLane="free"/>
  <flow id="JF107" begin="180" fromJunction="J5" toJunction="J7" end="240" vehsPerHour="30.656633929065112" departLane="free"/>
  <flow id="JF108" begin="180" fromJunction="J5" toJunction="J6" end="240" vehsPerHour="65.43731879257264" departLane="free"/>
  <flow id="JF109" begin="180" fromJunction="J6" toJunction="J4" end="240" vehsPerHour="41.121192576825365" departLane="free"/>
  <flow id="JF110" begin="180" fromJunction="J6" toJunction="J7" end="240" vehsPerHour="21.47777665980447" departLane="free"/>
  <flow id="JF111" begin="180" fromJunction="J6" toJunction="J5" end="240" vehsPerHour="33.68440157059966" departLane="free"/>
  <flow id="JF112" begin="180" fromJunction="J4" toJunction="J0" end="240" vehsPerHour="45.5354800091242" departLane="free"/>
  <flow id="JF113" begin="180" fromJunction="J4" toJunction="J3" end="240" vehsPerHour="51.538032286253376" departLane="free"/>
  <flow id="JF114" begin="180" fromJunction="J7" toJunction="J0" end="240" vehsPerHour="4.580370890956475" departLane="free"/>
  <flow id="JF115" begin="180" fromJunction="J7" toJunction="J3" end="240" vehsPerHour="9.036714936544525" departLane="free"/>
  <flow id="JF116" begin="180" fromJunction="J5" toJunction="J0" end="240" vehsPerHour="16.95922911085105" departLane="free"/>
  <flow id="JF117" begin="180" fromJunction="J5" toJunction="J3" end="240" vehsPerHour="26.474398704006372" departLane="free"/>
  <flow id="JF118" begin="180" fromJunction="J6" toJunction="J0" end="240" vehsPerHour="57.18787919659646" departLane="free"/>
  <flow id="JF119" begin="180" fromJunction="J6" toJunction="J3" end="240" vehsPerHour="9.35460753515122" departLane="free"/>
  <flow id="JF120" begin="240" fromJunction="J0" toJunction="J3" end="300" vehsPerHour="47.07660859409128" departLane="free"/>
  <flow id="JF121" begin="240" fromJunction="J3" toJunction="J0" end="300" vehsPerHour="54.75376079483908" departLane="free"/>
  <flow id="JF122" begin="240" fromJunction="J0" toJunction="J4" end="300" vehsPerHour="95.80114958660552" departLane="free"/>
  <flow id="JF123" begin="240" fromJunction="J0" toJunction="J7" end="300" vehsPerHour="47.79722625283799" departLane="free"/>
  <flow id="JF124" begin="240" fromJunction="J0" toJunction="J5" end="300" vehsPerHour="71.18397037178799" departLane="free"/>
  <flow id="JF125" begin="240" fromJunction="J0" toJunction="J6" end="300" vehsPerHour="3.2241332441654893" departLane="free"/>
  <flow id="JF126" begin="240" fromJunction="J3" toJunction="J4" end="300" vehsPerHour="80.12857351251583" departLane="free"/>
  <flow id="JF127" begin="240" fromJunction="J3" toJunction="J7" end="300" vehsPerHour="49.54700732314777" departLane="free"/>
  <flow id="JF128" begin="240" fromJunction="J3" toJunction="J5" end="300" vehsPerHour="67.49152757529441" departLane="free"/>
  <flow id="JF129" begin="240" fromJunction="J3" toJunction="J6" end="300" vehsPerHour="37.10444357789237" departLane="free"/>
  <flow id="JF130" begin="240" fromJunction="J4" toJunction="J7" end="300" vehsPerHour="47.92158042020569" departLane="free"/>
  <flow id="JF131" begin="240" fromJunction="J4" toJunction="J5" end="300" vehsPerHour="66.37362492741008" departLane="free"/>
  <flow id="JF132" begin="240" fromJunction="J4" toJunction="J6" end="300" vehsPerHour="5.367008590910825" departLane="free"/>
  <flow id="JF133" begin="240" fromJunction="J7" toJunction="J4" end="300" vehsPerHour="51.04395930266779" departLane="free"/>
  <flow id="JF134" begin="240" fromJunction="J7" toJunction="J5" end="300" vehsPerHour="11.136397409530252" departLane="free"/>
  <flow id="JF135" begin="240" fromJunction="J7" toJunction="J6" end="300" vehsPerHour="23.0318557208768" departLane="free"/>
  <flow id="JF136" begin="240" fromJunction="J5" toJunction="J4" end="300" vehsPerHour="5.470554871504025" departLane="free"/>
  <flow id="JF137" begin="240" fromJunction="J5" toJunction="J7" end="300" vehsPerHour="41.017289008896675" departLane="free"/>
  <flow id="JF138" begin="240" fromJunction="J5" toJunction="J6" end="300" vehsPerHour="4.647964746262452" departLane="free"/>
  <flow id="JF139" begin="240" fromJunction="J6" toJunction="J4" end="300" vehsPerHour="41.09631905070534" departLane="free"/>
  <flow id="JF140" begin="240" fromJunction="J6" toJunction="J7" end="300" vehsPerHour="56.67694258724719" departLane="free"/>
  <flow id="JF141" begin="240" fromJunction="J6" toJunction="J5" end="300" vehsPerHour="63.489771569793355" departLane="free"/>
  <flow id="JF142" begin="240" fromJunction="J4" toJunction="J0" end="300" vehsPerHour="16.16497398291673" departLane="free"/>
  <flow id="JF143" begin="240" fromJunction="J4" toJunction="J3" end="300" vehsPerHour="51.65670942976981" departLane="free"/>
  <flow id="JF144" begin="240" fromJunction="J7" toJunction="J0" end="300" vehsPerHour="67.20220113236537" departLane="free"/>
  <flow id="JF145" begin="240" fromJunction="J7" toJunction="J3" end="300" vehsPerHour="8.057543560504259" departLane="free"/>
  <flow id="JF146" begin="240" fromJunction="J5" toJunction="J0" end="300" vehsPerHour="13.235723604194883" departLane="free"/>
  <flow id="JF147" begin="240" fromJunction="J5" toJunction="J3" end="300" vehsPerHour="61.547142763864954" departLane="free"/>
  <flow id="JF148" begin="240" fromJunction="J6" toJunction="J0" end="300" vehsPerHour="13.519012169487702" departLane="free"/>
  <flow id="JF149" begin="240" fromJunction="J6" toJunction="J3" end="300" vehsPerHour="44.09769198016553" departLane="free"/>
  <flow id="JF150" begin="300" fromJunction="J0" toJunction="J3" end="360" vehsPerHour="108.92745430457641" departLane="free"/>
  <flow id="JF151" begin="300" fromJunction="J3" toJunction="J0" end="360" vehsPerHour="47.57509580377533" departLane="free"/>
  <flow id="JF152" begin="300" fromJunction="J0" toJunction="J4" end="360" vehsPerHour="72.07491041758934" departLane="free"/>
  <flow id="JF153" begin="300" fromJunction="J0" toJunction="J7" end="360" vehsPerHour="17.745811043948873" departLane="free"/>
  <flow id="JF154" begin="300" fromJunction="J0" toJunction="J5" end="360" vehsPerHour="73.50386635667329" departLane="free"/>
  <flow id="JF155" begin="300" fromJunction="J0" toJunction="J6" end="360" vehsPerHour="107.2697925056388" departLane="free"/>
  <flow id="JF156" begin="300" fromJunction="J3" toJunction="J4" end="360" vehsPerHour="133.95134779563946" departLane="free"/>
  <flow id="JF157" begin="300" fromJunction="J3" toJunction="J7" end="360" vehsPerHour="106.5696674533115" departLane="free"/>
  <flow id="JF158" begin="300" fromJunction="J3" toJunction="J5" end="360" vehsPerHour="70.31555364375889" departLane="free"/>
  <flow id="JF159" begin="300" fromJunction="J3" toJunction="J6" end="360" vehsPerHour="51.219822859282445" departLane="free"/>
  <flow id="JF160" begin="300" fromJunction="J4" toJunction="J7" end="360" vehsPerHour="58.59167491266164" departLane="free"/>
  <flow id="JF161" begin="300" fromJunction="J4" toJunction="J5" end="360" vehsPerHour="15.328916844569674" departLane="free"/>
  <flow id="JF162" begin="300" fromJunction="J4" toJunction="J6" end="360" vehsPerHour="38.36914186355813" departLane="free"/>
  <flow id="JF163" begin="300" fromJunction="J7" toJunction="J4" end="360" vehsPerHour="44.51498797863958" departLane="free"/>
  <flow id="JF164" begin="300" fromJunction="J7" toJunction="J5" end="360" vehsPerHour="36.6538295103567" departLane="free"/>
  <flow id="JF165" begin="300" fromJunction="J7" toJunction="J6" end="360" vehsPerHour="46.45641507438362" departLane="free"/>
  <flow id="JF166" begin="300" fromJunction="J5" toJunction="J4" end="360" vehsPerHour="5.453298748935009" departLane="free"/>
  <flow id="JF167" begin="300" fromJunction="J5" toJunction="J7" end="360" vehsPerHour="12.580993298455468" departLane="free"/>
  <flow id="JF168" begin="300" fromJunction="J5" toJunction="J6" end="360" vehsPerHour="43.25989318326739" departLane="free"/>
  <flow id="JF169" begin="300" fromJunction="J6" toJunction="J4" end="360" vehsPerHour="44.65018193334405" departLane="free"/>
  <flow id="JF170" begin="300" fromJunction="J6" toJunction="J7" end="360" vehsPerHour="62.514697849931174" departLane="free"/>
  <flow id="JF171" begin="300" fromJunction="J6" toJunction="J5" end="360" vehsPerHour="17.893139159007344" departLane="free"/>
  <flow id="JF172" begin="300" fromJunction="J4" toJunction="J0" end="360" vehsPerHour="1.4452979574029317" departLane="free"/>
  <flow id="JF173" begin="300" fromJunction="J4" toJunction="J3" end="360" vehsPerHour="1.3848236155632017" departLane="free"/>
  <flow id="JF174" begin="300" fromJunction="J7" toJunction="J0" end="360" vehsPerHour="15.632570617433627" departLane="free"/>
  <flow id="JF175" begin="300" fromJunction="J7" toJunction="J3" end="360" vehsPerHour="33.26517362187155" departLane="free"/>
  <flow id="JF176" begin="300" fromJunction="J5" toJunction="J0" end="360" vehsPerHour="12.276199937785071" departLane="free"/>
  <flow id="JF177" begin="300" fromJunction="J5" toJunction="J3" end="360" vehsPerHour="37.721573268599535" departLane="free"/>
  <flow id="JF178" begin="300" fromJunction="J6" toJunction="J0" end="360" vehsPerHour="45.95098707385178" departLane="free"/>
  <flow id="JF179" begin="300" fromJunction="J6" toJunction="J3" end="360" vehsPerHour="28.061557854961894" departLane="free"/>
  <flow id="JF180" begin="360" fromJunction="J0" toJunction="J3" end="420" vehsPerHour="71.59124413590743" departLane="free"/>
  <flow id="JF181" begin="360" fromJunction="J3" toJunction="J0" end="420" vehsPerHour="20.097913530892516" departLane="free"/>
  <flow id="JF182" begin="360" fromJunction="J0" toJunction="J4" end="420" vehsPerHour="114.0254412553654" departLane="free"/>
  <flow id="JF183" begin="360" fromJunction="J0" toJunction="J7" end="420" vehsPerHour="5.029380835407173" departLane="free"/>
  <flow id="JF184" begin="360" fromJunction="J0" toJunction="J5" end="420" vehsPerHour="109.38250204697638" departLane="free"/>
  <flow id="JF185" begin="360" fromJunction="J0" toJunction="J6" end="420" vehsPerHour="63.35022781218607" departLane="free"/>
  <flow id="JF186" begin="360" fromJunction="J3" toJunction="J4" end="420" vehsPerHour="8.077796499860206" departLane="free"/>
  <flow id="JF187" begin="360" fromJunction="J3" toJunction="J7" end="420" vehsPerHour="0.14305899603017164" departLane="free"/>
  <flow id="JF188" begin="360" fromJunction="J3" toJunction="J5" end="420" vehsPerHour="127.40392711289202" departLane="free"/>
  <flow id="JF189" begin="360" fromJunction="J3" toJunction="J6" end="420" vehsPerHour="51.78062168266287" departLane="free"/>
  <flow id="JF190" begin="420" fromJunction="J0" toJunction="J3" end="480" vehsPerHour="70.5045772975987" departLane="free"/>
  <flow id="JF191" begin="420" fromJunction="J3" toJunction="J0" end="480" vehsPerHour="26.968869649104022" departLane="free"/>
  <flow id="JF192" begin="420" fromJunction="J0" toJunction="J4" end="480" vehsPerHour="59.096063826978224" departLane="free"/>
  <flow id="JF193" begin="420" fromJunction="J0" toJunction="J7" end="480" vehsPerHour="77.32327561302301" departLane="free"/>
  <flow id="JF194" begin="420" fromJunction="J0" toJunction="J5" end="480" vehsPerHour="82.56602889290761" departLane="free"/>
  <flow id="JF195" begin="420" fromJunction="J0" toJunction="J6" end="480" vehsPerHour="34.31004807553056" departLane="free"/>
  <flow id="JF196" begin="420" fromJunction="J3" toJunction="J4" end="480" vehsPerHour="32.95355402532528" departLane="free"/>
  <flow id="JF197" begin="420" fromJunction="J3" toJunction="J7" end="480" vehsPerHour="37.320190613128865" departLane="free"/>
  <flow id="JF198" begin="420" fromJunction="J3" toJunction="J5" end="480" vehsPerHour="104.61461825392666" departLane="free"/>
  <flow id="JF199" begin="420" fromJunction="J3" toJunction="J6" end="480" vehsPerHour="13.255945433892428" departLane="free"/>
  <flow id="JF200" begin="480" fromJunction="J0" toJunction="J3" end="540" vehsPerHour="96.42024608278845" departLane="free"/>
  <flow id="JF201" begin="480" fromJunction="J3" toJunction="J0" end="540" vehsPerHour="21.136742756091046" departLane="free"/>
  <flow id="JF202" begin="480" fromJunction="J0" toJunction="J4" end="540" vehsPerHour="97.05705590396056" departLane="free"/>
  <flow id="JF203" begin="480" fromJunction="J0" toJunction="J7" end="540" vehsPerHour="48.830671232811376" departLane="free"/>
  <flow id="JF204" begin="480" fromJunction="J0" toJunction="J5" end="540" vehsPerHour="135.30829393386324" departLane="free"/>
  <flow id="JF205" begin="480" fromJunction="J0" toJunction="J6" end="540" vehsPerHour="62.78315134897233" departLane="free"/>
  <flow id="JF206" begin="480" fromJunction="J3" toJunction="J4" end="540" vehsPerHour="127.58663071821593" departLane="free"/>
  <flow id="JF207" begin="480" fromJunction="J3" toJunction="J7" end="540" vehsPerHour="93.10923232592708" departLane="free"/>
  <flow id="JF208" begin="480" fromJunction="J3" toJunction="J5" end="540" vehsPerHour="2.3527528815127376" departLane="free"/>
  <flow id="JF209" begin="480" fromJunction="J3" toJunction="J6" end="540" vehsPerHour="8.735741694395875" departLane="free"/>
  <flow id="JF210" begin="480" fromJunction="J4" toJunction="J7" end="540" vehsPerHour="48.420942991185655" departLane="free"/>
  <flow id="JF211" begin="480" fromJunction="J4" toJunction="J5" end="540" vehsPerHour="47.30885686755765" departLane="free"/>
  <flow id="JF212" begin="480" fromJunction="J4" toJunction="J6" end="540" vehsPerHour="58.30448652333168" departLane="free"/>
  <flow id="JF213" begin="480" fromJunction="J7" toJunction="J4" end="540" vehsPerHour="54.337010843733175" departLane="free"/>
  <flow id="JF214" begin="480" fromJunction="J7" toJunction="J5" end="540" vehsPerHour="42.20182404691459" departLane="free"/>
  <flow id="JF215" begin="480" fromJunction="J7" toJunction="J6" end="540" vehsPerHour="64.8980105118105" departLane="free"/>
  <flow id="JF216" begin="480" fromJunction="J5" toJunction="J4" end="540" vehsPerHour="2.70965514781856" departLane="free"/>
  <flow id="JF217" begin="480" fromJunction="J5" toJunction="J7" end="540" vehsPerHour="31.656122771972875" departLane="free"/>
  <flow id="JF218" begin="480" fromJunction="J5" toJunction="J6" end="540" vehsPerHour="5.959548378377179" departLane="free"/>
  <flow id="JF219" begin="480" fromJunction="J6" toJunction="J4" end="540" vehsPerHour="48.93791976516271" departLane="free"/>
  <flow id="JF220" begin="480" fromJunction="J6" toJunction="J7" end="540" vehsPerHour="39.00801708458976" departLane="free"/>
  <flow id="JF221" begin="480" fromJunction="J6" toJunction="J5" end="540" vehsPerHour="67.31570546933837" departLane="free"/>
  <flow id="JF222" begin="480" fromJunction="J4" toJunction="J0" end="540" vehsPerHour="50.7222679958338" departLane="free"/>
  <flow id="JF223" begin="480" fromJunction="J4" toJunction="J3" end="540" vehsPerHour="5.831394725703337" departLane="free"/>
  <flow id="JF224" begin="480" fromJunction="J7" toJunction="J0" end="540" vehsPerHour="65.62563760816597" departLane="free"/>
  <flow id="JF225" begin="480" fromJunction="J7" toJunction="J3" end="540" vehsPerHour="21.494599145482386" departLane="free"/>
  <flow id="JF226" begin="480" fromJunction="J5" toJunction="J0" end="540" vehsPerHour="27.30432965939779" departLane="free"/>
  <flow id="JF227" begin="480" fromJunction="J5" toJunction="J3" end="540" vehsPerHour="0.33520832613613044" departLane="free"/>
  <flow id="JF228" begin="480" fromJunction="J6" toJunction="J0" end="540" vehsPerHour="32.127169476617084" departLane="free"/>
  <flow id="JF229" begin="480" fromJunction="J6" toJunction="J3" end="540" vehsPerHour="63.60578900259237" departLane="free"/>
  <flow id="JF230" begin="540" fromJunction="J0" toJunction="J3" end="600" vehsPerHour="42.851600237676934" departLane="free"/>
  <flow id="JF231" begin="540" fromJunction="J3" toJunction="J0" end="600" vehsPerHour="37.56869690346273" departLane="free"/>
  <flow id="JF232" begin="540" fromJunction="J0" toJunction="J4" end="600" vehsPerHour="110.39851030983738" departLane="free"/>
  <flow id="JF233" begin="540" fromJunction="J0" toJunction="J7" end="600" vehsPerHour="103.30074106371362" departLane="free"/>
  <flow id="JF234" begin="540" fromJunction="J0" toJunction="J5" end="600" vehsPerHour="42.766435534661774" departLane="free"/>