<?xml version="1.0" encoding="UTF-8"?>
<routes xmlns:xsi="http://www.w3.org/2001/XMLSchema-instance" xsi:noNamespaceSchemaLocation="http://sumo.dlr.de/xsd/routes_file.xsd">
  <flow id="JF15440" begin="0" fromJunction="J0" toJunction="J3" end="60" vehsPerHour="69.28852361139896" departLane="free"/>
  <flow id="JF15441" begin="0" fromJunction="J3" toJunction="J0" end="60" vehsPerHour="137.23413952770477" departLane="free"/>
  <flow id="JF15442" begin="0" fromJunction="J0" toJunction="J4" end="60" vehsPerHour="39.86273917359826" departLane="free"/>
  <flow id="JF15443" begin="0" fromJunction="J0" toJunction="J7" end="60" vehsPerHour="84.78999742282359" departLane="free"/>
  <flow id="JF15444" begin="0" fromJunction="J0" toJunction="J5" end="60" vehsPerHour="48.679807989752845" departLane="free"/>
  <flow id="JF15445" begin="0" fromJunction="J0" toJunction="J6" end="60" vehsPerHour="73.21585336585922" departLane="free"/>
  <flow id="JF15446" begin="0" fromJunction="J3" toJunction="J4" end="60" vehsPerHour="127.56383365682474" departLane="free"/>
  <flow id="JF15447" begin="0" fromJunction="J3" toJunction="J7" end="60" vehsPerHour="22.95519871014341" departLane="free"/>
  <flow id="JF15448" begin="0" fromJunction="J3" toJunction="J5" end="60" vehsPerHour="36.60704136197169" departLane="free"/>
  <flow id="JF15449" begin="0" fromJunction="J3" toJunction="J6" end="60" vehsPerHour="127.20687426191321" departLane="free"/>
  <flow id="JF15450" begin="0" fromJunction="J4" toJunction="J7" end="60" vehsPerHour="25.202138604554804" departLane="free"/>
  <flow id="JF15451" begin="0" fromJunction="J4" toJunction="J5" end="60" vehsPerHour="35.05122065891259" departLane="free"/>
  <flow id="JF15452" begin="0" fromJunction="J4" toJunction="J6" end="60" vehsPerHour="37.640081084878595" departLane="free"/>
  <flow id="JF15453" begin="0" fromJunction="J7" toJunction="J4" end="60" vehsPerHour="43.53185977033859" departLane="free"/>
  <flow id="JF15454" begin="0" fromJunction="J7" toJunction="J5" end="60" vehsPerHour="4.419551237799392" departLane="free"/>
  <flow id="JF15455" begin="0" fromJunction="J7" toJunction="J6" end="60" vehsPerHour="65.7931062153291" departLane="free"/>
  <flow id="JF15456" begin="0" fromJunction="J5" toJunction="J4" end="60" vehsPerHour="40.112415305458015" departLane="free"/>
  <flow id="JF15457" begin="0" fromJunction="J5" toJunction="J7" end="60" vehsPerHour="66.34059814553045" departLane="free"/>
  <flow id="JF15458" begin="0" fromJunction="J5" toJunction="J6" end="60" vehsPerHour="53.851554776839286" departLane="free"/>
  <flow id="JF15459" begin="0" fromJunction="J6" toJunction="J4" end="60" vehsPerHour="16.29371369695064" departLane="free"/>
  <flow id="JF15460" begin="0" fromJunction="J6" toJunction="J7" end="60" vehsPerHour="6.43724790422141" departLane="free"/>
  <flow id="JF15461" begin="0" fromJunction="J6" toJunction="J5" end="60" vehsPerHour="25.129807432929038" departLane="free"/>
  <flow id="JF15462" begin="0" fromJunction="J4" toJunction="J0" end="60" vehsPerHour="21.853108490958554" departLane="free"/>
  <flow id="JF15463" begin="0" fromJunction="J4" toJunction="J3" end="60" vehsPerHour="45.58762388188714" departLane="free"/>
  <flow id="JF15464" begin="0" fromJunction="J7" toJunction="J0" end="60" vehsPerHour="9.995090239939914" departLane="free"/>
  <flow id="JF15465" begin="0" fromJunction="J7" toJunction="J3" end="60" vehsPerHour="58.985607671668674" departLane="free"/>
  <flow id="JF15466" begin="0" fromJunction="J5" toJunction="J0" end="60" vehsPerHour="51.99515187306576" departLane="free"/>
  <flow id="JF15467" begin="0" fromJunction="J5" toJunction="J3" end="60" vehsPerHour="36.79420886833383" departLane="free"/>
  <flow id="JF15468" begin="0" fromJunction="J6" toJunction="J0" end="60" vehsPerHour="67.68664477089638" departLane="free"/>
  <flow id="JF15469" begin="0" fromJunction="J6" toJunction="J3" end="60" vehsPerHour="52.049353467899216" departLane="free"/>
  <flow id="JF15470" begin="60" fromJunction="J0" toJunction="J3" end="120" vehsPerHour="24.10460143105784" departLane="free"/>
  <flow id="JF15471" begin="60" fromJunction="J3" toJunction="J0" end="120" vehsPerHour="60.398882168066514" departLane="free"/>
  <flow id="JF15472" begin="60" fromJunction="J0" toJunction="J4" end="120" vehsPerHour="45.762654602935804" departLane="free"/>
  <flow id="JF15473" begin="60" fromJunction="J0" toJunction="J7" end="120" vehsPerHour="129.49246003308087" departLane="free"/>
  <flow id="JF15474" begin="60" fromJunction="J0" toJunction="J5" end="120" vehsPerHour="31.385618966299845" departLane="free"/>
  <flow id="JF15475" begin="60" fromJunction="J0" toJunction="J6" end="120" vehsPerHour="79.44955442981097" departLane="free"/>
  <flow id="JF15476" begin="60" fromJunction="J3" toJunction="J4" end="120" vehsPerHour="85.53775402212872" departLane="free"/>
  <flow id="JF15477" begin="60" fromJunction="J3" toJunction="J7" end="120" vehsPerHour="135.76622316639418" departLane="free"/>
  <flow id="JF15478" begin="60" fromJunction="J3" toJunction="J5" end="120" vehsPerHour="123.1425565796235" departLane="free"/>
  <flow id="JF15479" begin="60" fromJunction="J3" toJunction="J6" end="120" vehsPerHour="103.48821728877427" departLane="free"/>
  <flow id="JF15480" begin="60" fromJunction="J4" toJunction="J7" end="120" vehsPerHour="11.446331227903801" departLane="free"/>
  <flow id="JF15481" begin="60" fromJunction="J4" toJunction="J5" end="120" vehsPerHour="12.677067169661393" departLane="free"/>
  <flow id="JF15482" begin="60" fromJunction="J4" toJunction="J6" end="120" vehsPerHour="21.66787749687044" departLane="free"/>
  <flow id="JF15483" begin="60" fromJunction="J7" toJunction="J4" end="120" vehsPerHour="48.44757882134653" departLane="free"/>
  <flow id="JF15484" begin="60" fromJunction="J7" toJunction="J5" end="120" vehsPerHour="49.0867187078972" departLane="free"/>
  <flow id="JF15485" begin="60" fromJunction="J7" toJunction="J6" end="120" vehsPerHour="25.824658244644976" departLane="free"/>
  <flow id="JF15486" begin="60" fromJunction="J5" toJunction="J4" end="120" vehsPerHour="33.869371582087076" departLane="free"/>
  <flow id="JF15487" begin="60" fromJunction="J5" toJunction="J7" end="120" vehsPerHour="38.41178249018237" departLane="free"/>
  <flow id="JF15488" begin="60" fromJunction="J5" toJunction="J6" end="120" vehsPerHour="25.222068880412444" departLane="free"/>
  <flow id="JF15489" begin="60" fromJunction="J6" toJunction="J4" end="120" vehsPerHour="35.95672863434605" departLane="free"/>
  <flow id="JF15490" begin="60" fromJunction="J6" toJunction="J7" end="120" vehsPerHour="24.953454085750327" departLane="free"/>
  <flow id="JF15491" begin="60" fromJunction="J6" toJunction="J5" end="120" vehsPerHour="57.98001516247013" departLane="free"/>
  <flow id="JF15492" begin="60" fromJunction="J4" toJunction="J0" end="120" vehsPerHour="54.079008178112005" departLane="free"/>
  <flow id="JF15493" begin="60" fromJunction="J4" toJunction="J3" end="120" vehsPerHour="3.9368907491657614" departLane="free"/>
  <flow id="JF15494" begin="60" fromJunction="J7" toJunction="J0" end="120" vehsPerHour="41.73887503596207" departLane="free"/>
  <flow id="JF15495" begin="60" fromJunction="J7" toJunction="J3" end="120" vehsPerHour="27.392946876697195" departLane="free"/>
  <flow id="JF15496" begin="60" fromJunction="J5" toJunction="J0" end="120" vehsPerHour="55.040052770342676" departLane="free"/>
  <flow id="JF15497" begin="60" fromJunction="J5" toJunction="J3" end="120" vehsPerHour="41.18200778093833" departLane="free"/>
  <flow id="JF15498" begin="60" fromJunction="J6" toJunction="J0" end="120" vehsPerHour="59.97877452521719" departLane="free"/>
  <flow id="JF15499" begin="60" fromJunction="J6" toJunction="J3" end="120" vehsPerHour="35.95918467356687" departLane="free"/>
  <flow id="JF15500" begin="120" fromJunction="J0" toJunction="J3" end="180" vehsPerHour="39.60246248681065" departLane="free"/>
  <flow id="JF15501" begin="120" fromJunction="J3" toJunction="J0" end="180" vehsPerHour="124.5856591032388" departLane="free"/>
  <flow id="JF15502" begin="120" fromJunction="J0" toJunction="J4" end="180" vehsPerHour="61.604903156783095" departLane="free"/>
  <flow id="JF15503" begin="120" fromJunction="J0" toJunction="J7" end="180" vehsPerHour="52.55572805921146" departLane="free"/>
  <flow id="JF15504" begin="120" fromJunction="J0" toJunction="J5" end="180" vehsPerHour="35.68809569343994" departLane="free"/>
  <flow id="JF15505" begin="120" fromJunction="J0" toJunction="J6" end="180" vehsPerHour="137.22164360902184" departLane="free"/>
  <flow id="JF15506" begin="120" fromJunction="J3" toJunction="J4" end="180" vehsPerHour="0.48962075027212976" departLane="free"/>
  <flow id="JF15507" begin="120" fromJunction="J3" toJunction="J7" end="180" vehsPerHour="77.70135958338128" departLane="free"/>
  <flow id="JF15508" begin="120" fromJunction="J3" toJunction="J5" end="180" vehsPerHour="46.112820862799666" departLane="free"/>
  <flow id="JF15509" begin="120" fromJunction="J3" toJunction="J6" end="180" vehsPerHour="29.523226410336733" departLane="free"/>
  <flow id="JF15510" begin="120" fromJunction="J4" toJunction="J7" end="180" vehsPerHour="56.85547294972163" departLane="free"/>
  <flow id="JF15511" begin="120" fromJunction="J4" toJunction="J5" end="180" vehsPerHour="68.15981405191496" departLane="free"/>
  <flow id="JF15512" begin="120" fromJunction="J4" toJunction="J6" end="180" vehsPerHour="30.51415155968536" departLane="free"/>
  <flow id="JF15513" begin="120" fromJunction="J7" toJunction="J4" end="180" vehsPerHour="33.62039462792514" departLane="free"/>
  <flow id="JF15514" begin="120" fromJunction="J7" toJunction="J5" end="180" vehsPerHour="2.729608043534987" departLane="free"/>
  <flow id="JF15515" begin="120" fromJunction="J7" toJunction="J6" end="180" vehsPerHour="46.70445306004306" departLane="free"/>
  <flow id="JF15516" begin="120" fromJunction="J5" toJunction="J4" end="180" vehsPerHour="64.11338532941986" departLane="free"/>
  <flow id="JF15517" begin="120" fromJunction="J5" toJunction="J7" end="180" vehsPerHour="10.614929194229026" departLane="free"/>
  <flow id="JF15518" begin="120" fromJunction="J5" toJunction="J6" end="180" vehsPerHour="53.05612939285543" departLane="free"/>
  <flow id="JF15519" begin="120" fromJunction="J6" toJunction="J4" end="180" vehsPerHour="62.49603242048358" departLane="free"/>
  <flow id="JF15520" begin="120" fromJunction="J6" toJunction="J7" end="180" vehsPerHour="33.249087451290094" departLane="free"/>
  <flow id="JF15521" begin="120" fromJunction="J6" toJunction="J5" end="180" vehsPerHour="41.563319741547495" departLane="free"/>
  <flow id="JF15522" begin="120" fromJunction="J4" toJunction="J0" end="180" vehsPerHour="23.390198862937126" departLane="free"/>
  <flow id="JF15523" begin="120" fromJunction="J4" toJunction="J3" end="180" vehsPerHour="58.55816212844031" departLane="free"/>
  <flow id="JF15524" begin="120" fromJunction="J7" toJunction="J0" end="180" vehsPerHour="25.791775660383976" departLane="free"/>
  <flow id="JF15525" begin="120" fromJunction="J7" toJunction="J3" end="180" vehsPerHour="58.189908986734615" departLane="free"/>
  <flow id="JF15526" begin="120" fromJunction="J5" toJunction="J0" end="180" vehsPerHour="46.51397471302921" departLane="free"/>
  <flow id="JF15527" begin="120" fromJunction="J5" toJunction="J3" end="180" vehsPerHour="34.10071279380575" departLane="free"/>
  <flow id="JF15528" begin="120" fromJunction="J6" toJunction="J0" end="180" vehsPerHour="41.953883496705714" departLane="free"/>
  <flow id="JF15529" begin="120" fromJunction="J6" toJunction="J3" end="180" vehsPerHour="6.28844452904964" departLane="free"/>
  <flow id="JF15530" begin="180" fromJunction="J0" toJunction="J3" end="240" vehsPerHour="121.88641889004467" departLane="free"/>
  <flow id="JF15531" begin="180" fromJunction="J3" toJunction="J0" end="240" vehsPerHour="93.0284836399428" departLane="free"/>
  <flow id="JF15532" begin="180" fromJunction="J0" toJunction="J4" end="240" vehsPerHour="96.1431190812313" departLane="free"/>
  <flow id="JF15533" begin="180" fromJunction="J0" toJunction="J7" end="240" vehsPerHour="119.19692938913252" departLane="free"/>
  <flow id="JF15534" begin="180" fromJunction="J0" toJunction="J5" end="240" vehsPerHour="109.51610322522163" departLane="free"/>
  <flow id="JF15535" begin="180" fromJunction="J0" toJunction="J6" end="240" vehsPerHour="100.6418761332418" departLane="free"/>
  <flow id="JF15536" begin="180" fromJunction="J3" toJunction="J4" end="240" vehsPerHour="122.62696151402005" departLane="free"/>
  <flow id="JF15537" begin="180" fromJunction="J3" toJunction="J7" end="240" vehsPerHour="53.166765596446666" departLane="free"/>
  <flow id="JF15538" begin="180" fromJunction="J3" toJunction="J5" end="240" vehsPerHour="118.16989645756244" departLane="free"/>
  <flow id="JF15539" begin="180" fromJunction="J3" toJunction="J6" end="240" vehsPerHour="98.8900835838631" departLane="free"/>
  <flow id="JF15540" begin="180" fromJunction="J4" toJunction="J7" end="240" vehsPerHour="16.696409458437355" departLane="free"/>
  <flow id="JF15541" begin="180" fromJunction="J4" toJunction="J5" end="240" vehsPerHour="9.675961204758105" departLane="free"/>
  <flow id="JF15542" begin="180" fromJunction="J4" toJunction="J6" end="240" vehsPerHour="24.3057588984148" departLane="free"/>
  <flow id="JF15543" begin="180" fromJunction="J7" toJunction="J4" end="240" vehsPerHour="47.23000273716306" departLane="free"/>
  <flow id="JF15544" begin="180" fromJunction="J7" toJunction="J5" end="240" vehsPerHour="10.493986394815067" departLane="free"/>
  <flow id="JF15545" begin="180" fromJunction="J7" toJunction="J6" end="240" vehsPerHour="48.618143734473875" departLane="free"/>
  <flow id="JF15546" begin="180" fromJunction="J5" toJunction="J4" end="240" vehsPerHour="21.23432914671163" departLane="free"/>
  <flow id="JF15547" begin="180" fromJunction="J5" toJunction="J7" end="240" vehsPerHour="38.29830834935077" departLane="free"/>
  <flow id="JF15548" begin="180" fromJunction="J5" toJunction="J6" end="240" vehsPerHour="23.32922237037404" departLane="free"/>
  <flow id="JF15549" begin="180" fromJunction="J6" toJunction="J4" end="240" vehsPerHour="11.352309955470588" departLane="free"/>
  <flow id="JF15550" begin="180" fromJunction="J6" toJunction="J7" end="240" vehsPerHour="26.09499425965108" departLane="free"/>
  <flow id="JF15551" begin="180" fromJunction="J6" toJunction="J5" end="240" vehsPerHour="53.03369515670803" departLane="free"/>
  <flow id="JF15552" begin="180" fromJunction="J4" toJunction="J0" end="240" vehsPerHour="48.7722251739041" departLane="free"/>
  <flow id="JF15553" begin="180" fromJunction="J4" toJunction="J3" end="240" vehsPerHour="7.093511371221796" departLane="free"/>
  <flow id="JF15554" begin="180" fromJunction="J7" toJunction="J0" end="240" vehsPerHour="8.13516253097267" departLane="free"/>
  <flow id="JF15555" begin="180" fromJunction="J7" toJunction="J3" end="240" vehsPerHour="68.69041981669399" departLane="free"/>
  <flow id="JF15556" begin="180" fromJunction="J5" toJunction="J0" end="240" vehsPerHour="44.945640021291034" departLane="free"/>
  <flow id="JF15557" begin="180" fromJunction="J5" toJunction="J3" end="240" vehsPerHour="54.23286697598203" departLane="free"/>
  <flow id="JF15558" begin="180" fromJunction="J6" toJunction="J0" end="240" vehsPerHour="17.844302954814847" departLane="free"/>
  <flow id="JF15559" begin="180" fromJunction="J6" toJunction="J3" end="240" vehsPerHour="6.051165496178277" departLane="free"/>
  <flow id="JF15560" begin="240" fromJunction="J0" toJunction="J3" end="300" vehsPerHour="88.94549753562211" departLane="free"/>
  <flow id="JF15561" begin="240" fromJunction="J3" toJunction="J0" end="300" vehsPerHour="131.5352423408192" departLane="free"/>
  <flow id="JF15562" begin="240" fromJunction="J0" toJunction="J4" end="300" vehsPerHour="81.04799202419957" departLane="free"/>
  <flow id="JF15563" begin="240" fromJunction="J0" toJunction="J7" end="300" vehsPerHour="85.47853061523814" departLane="free"/>
  <flow id="JF15564" begin="240" fromJunction="J0" toJunction="J5" end="300" vehsPerHour="111.5480575048094" departLane="free"/>
  <flow id="JF15565" begin="240" fromJunction="J0" toJunction="J6" end="300" vehsPerHour="60.23103632480722" departLane="free"/>
  <flow id="JF15566" begin="240" fromJunction="J3" toJunction="J4" end="300" vehsPerHour="116.43498825983855" departLane="free"/>
  <flow id="JF15567" begin="240" fromJunction="J3" toJunction="J7" end="300" vehsPerHour="45.70941862612428" departLane="free"/>
  <flow id="JF15568" begin="240" fromJunction="J3" toJunction="J5" end="300" vehsPerHour="85.99818199990726" departLane="free"/>
  <flow id="JF15569" begin="240" fromJunction="J3" toJunction="J6" end="300" vehsPerHour="42.346506500554554" departLane="free"/>
  <flow id="JF15570" begin="240" fromJunction="J4" toJunction="J7" end="300" vehsPerHour="11.826018190973963" departLane="free"/>
  <flow id="JF15571" begin="240" fromJunction="J4" toJunction="J5" end="300" vehsPerHour="46.74597677346645" departLane="free"/>
  <flow id="JF15572" begin="240" fromJunction="J4" toJunction="J6" end="300" vehsPerHour="28.87217137894314" departLane="free"/>
  <flow id="JF15573" begin="240" fromJunction="J7" toJunction="J4" end="300" vehsPerHour="32.322792636739514" departLane="free"/>
  <flow id="JF15574" begin="240" fromJunction="J7" toJunction="J5" end="300" vehsPerHour="16.21952714484783" departLane="free"/>
  <flow id="JF15575" begin="240" fromJunction="J7" toJunction="J6" end="300" vehsPerHour="15.661876243809608" departLane="free"/>
  <flow id="JF15576" begin="240" fromJunction="J5" toJunction="J4" end="300" vehsPerHour="65.0731839692486" departLane="free"/>
  <flow id="JF15577" begin="240" fromJunction="J5" toJunction="J7" end="300" vehsPerHour="62.90336222089927" departLane="free"/>
  <flow id="JF15578" begin="240" fromJunction="J5" toJunction="J6" end="300" vehsPerHour="66.10622685617034" departLane="free"/>
  <flow id="JF15579" begin="240" fromJunction="J6" toJunction="J4" end="300" vehsPerHour="6.29712146449174" departLane="free"/>
  <flow id="JF15580" begin="240" fromJunction="J6" toJunction="J7" end="300" vehsPerHour="68.1566640383702" departLane="free"/>
  <flow id="JF15581" begin="240" fromJunction="J6" toJunction="J5" end="300" vehsPerHour="14.869462537822335" departLane="free"/>
  <flow id="JF15582" begin="240" fromJunction="J4" toJunction="J0" end="300" vehsPerHour="3.8138144028634766" departLane="free"/>
  <flow id="JF15583" begin="240" fromJunction="J4" toJunction="J3" end="300" vehsPerHour="1.1374011943984867" departLane="free"/>
  <flow id="JF15584" begin="240" fromJunction="J7" toJunction="J0" end="300" vehsPerHour="44.08462404030387" departLane="free"/>
  <flow id="JF15585" begin="240" fromJunction="J7" toJunction="J3" end="300" vehsPerHour="48.07604962662687" departLane="free"/>
  <flow id="JF15586" begin="240" fromJunction="J5" toJunction="J0" end="300" vehsPerHour="2.171103053662192" departLane="free"/>
  <flow id="JF15587" begin="240" fromJunction="J5" toJunction="J3" end="300" vehsPerHour="66.20090634556557" departLane="free"/>
  <flow id="JF15588" begin="240" fromJunction="J6" toJunction="J0" end="300" vehsPerHour="57.81293070334038" departLane="free"/>
  <flow id="JF15589" begin="240" fromJunction="J6" toJunction="J3" end="300" vehsPerHour="38.23493902939898" departLane="free"/>
  <flow id="JF15590" begin="300" fromJunction="J0" toJunction="J3" end="360" vehsPerHour="110.41033941529102" departLane="free"/>
  <flow id="JF15591" begin="300" fromJunction="J3" toJunction="J0" end="360" vehsPerHour="88.43273749569678" departLane="free"/>
  <flow id="JF15592" begin="300" fromJunction="J0" toJunction="J4" end="360" vehsPerHour="61.23140840958315" departLane="free"/>
  <flow id="JF15593" begin="300" fromJunction="J0" toJunction="J7" end="360" vehsPerHour="25.77882900483809" departLane="free"/>
  <flow id="JF15594" begin="300" fromJunction="J0" toJunction="J5" end="360" vehsPerHour="99.17476179754547" departLane="free"/>
  <flow id="JF15595" begin="300" fromJunction="J0" toJunction="J6" end="360" vehsPerHour="103.27531449017862" departLane="free"/>
  <flow id="JF15596" begin="300" fromJunction="J3" toJunction="J4" end="360" vehsPerHour="84.64513619623774" departLane="free"/>
  <flow id="JF15597" begin="300" fromJunction="J3" toJunction="J7" end="360" vehsPerHour="119.32104859840342" departLane="free"/>
  <flow id="JF15598" begin="300" fromJunction="J3" toJunction="J5" end="360" vehsPerHour="19.38261295774163" departLane="free"/>
  <flow id="JF15599" begin="300" fromJunction="J3" toJunction="J6" end="360" vehsPerHour="91.84299112843013" departLane="free"/>
  <flow id="JF15600" begin="360" fromJunction="J0" toJunction="J3" end="420" vehsPerHour="86.84428707687205" departLane="free"/>
  <flow id="JF15601" begin="360" fromJunction="J3" toJunction="J0" end="420" vehsPerHour="31.04583252770371" departLane="free"/>
  <flow id="JF15602" begin="360" fromJunction="J0" toJunction="J4" end="420" vehsPerHour="32.28152561420734" departLane="free"/>
  <flow id="JF15603" begin="360" fromJunction="J0" toJunction="J7" end="420" vehsPerHour="137.06154747004945" departLane="free"/>
  <flow id="JF15604" begin="360" fromJunction="J0" toJunction="J5" end="420" vehsPerHour="10.281755504334653" departLane="free"/>
  <flow id="JF15605" begin="360" fromJunction="J0" toJunction="J6" end="420" vehsPerHour="133.43708162969327" departLane="free"/>
  <flow id="JF15606" begin="360" fromJunction="J3" toJunction="J4" end="420" vehsPerHour="107.8473253531494" departLane="free"/>
  <flow id="JF15607" begin="360" fromJunction="J3" toJunction="J7" end="420" vehsPerHour="76.80954646654412" departLane="free"/>
  <flow id="JF15608" begin="360" fromJunction="J3" toJunction="J5" end="420" vehsPerHour="18.47642025366268" departLane="free"/>
  <flow id="JF15609" begin="360" fromJunction="J3" toJunction="J6" end="420" vehsPerHour="37.052491989128306" departLane="free"/>
  <flow id="JF15610" begin="420" fromJunction="J0" toJunction="J3" end="480" vehsPerHour="127.2475298849699" departLane="free"/>
  <flow id="JF15611" begin="420" fromJunction="J3" toJunction="J0" end="480" vehsPerHour="17.529448007220616" departLane="free"/>
  <flow id="JF15612" begin="420" fromJunction="J0" toJunction="J4" end="480" vehsPerHour="15.065025707498766" departLane="free"/>
  <flow id="JF15613" begin="420" fromJunction="J0" toJunction="J7" end="480" vehsPerHour="113.18225943496502" departLane="free"/>
  <flow id="JF15614" begin="420" fromJunction="J0" toJunction="J5" end="480" vehsPerHour="4.6160875318983186" departLane="free"/>
  <flow id="JF15615" begin="420" fromJunction="J0" toJunction="J6" end="480" vehsPerHour="88.7006703649548" departLane="free"/>
  <flow id="JF15616" begin="420" fromJunction="J3" toJunction="J4" end="480" vehsPerHour="45.86982839460745" departLane="free"/>
  <flow id="JF15617" begin="420" fromJunction="J3" toJunction="J7" end="480" vehsPerHour="98.29836269463918" departLane="free"/>
  <flow id="JF15618" begin="420" fromJunction="J3" toJunction="J5" end="480" vehsPerHour="48.81861887988195" departLane="free"/>
  <flow id="JF15619" begin="420" fromJunction="J3" toJunction="J6" end="480" vehsPerHour="61.701201535839694" departLane="free"/>
  <flow id="JF15620" begin="420" fromJunction="J4" toJunction="J7" end="480" vehsPerHour="67.44460363612491" departLane="free"/>
  <flow id="JF15621" begin="420" fromJunction="J4" toJunction="J5" end="480" vehsPerHour="55.2483781840806" departLane="free"/>
  <flow id="JF15622" begin="420" fromJunction="J4" toJunction="J6" end="480" vehsPerHour="4.320156898474955" departLane="free"/>
  <flow id="JF15623" begin="420" fromJunction="J7" toJunction="J4" end="480" vehsPerHour="5.274091039545992" departLane="free"/>
  <flow id="JF15624" begin="420" fromJunction="J7" toJunction="J5" end="480" vehsPerHour="21.597318077171536" departLane="free"/>
  <flow id="JF15625" begin="420" fromJunction="J7" toJunction="J6" end="480" vehsPerHour="33.497899668938516" departLane="free"/>
  <flow id="JF15626" begin="420" fromJunction="J5" toJunction="J4" end="480" vehsPerHour="62.57593095199154" departLane="free"/>
  <flow id="JF15627" begin="420" fromJunction="J5" toJunction="J7" end="480" vehsPerHour="49.977726396480136" departLane="free"/>
  <flow id="JF15628" begin="420" fromJunction="J5" toJunction="J6" end="480" vehsPerHour="49.06262634278219" departLane="free"/>
  <flow id="JF15629" begin="420" fromJunction="J6" toJunction="J4" end="480" vehsPerHour="33.23500086046343" departLane="free"/>
  <flow id="JF15630" begin="420" fromJunction="J6" toJunction="J7" end="480" vehsPerHour="28.43182627432433" departLane="free"/>
  <flow id="JF15631" begin="420" fromJunction="J6" toJunction="J5" end="480" vehsPerHour="6.779404083699543" departLane="free"/>
  <flow id="JF15632" begin="420" fromJunction="J4" toJunction="J0" end="480" vehsPerHour="46.7449891555279" departLane="free"/>
  <flow id="JF15633" begin="420" fromJunction="J4" toJunction="J3" end="480" vehsPerHour="24.57542739486058" departLane="free"/>
  <flow id="JF15634" begin="420" fromJunction="J7" toJunction="J0" end="480" vehsPerHour="19.77729942378487" departLane="free"/>
  <flow id="JF15635" begin="420" fromJunction="J7" toJunction="J3" end="480" vehsPerHour="60.447001383362775" departLane="free"/>
  <flow id="JF15636" begin="420" fromJunction="J5" toJunction="J0" end="480" vehsPerHour="60.41858101248211" departLane="free"/>
  <flow id="JF15637" begin="420" fromJunction="J5" toJunction="J3" end="480" vehsPerHour="20.02108742171565" departLane="free"/>
  <flow id="JF15638" begin="420" fromJunction="J6" toJunction="J0" end="480" vehsPerHour="30.89644732584746" departLane="free"/>
  <flow id="JF15639" begin="420" fromJunction="J6" toJunction="J3" end="480" vehsPerHour="17.462011920098583" departLane="free"/>
  <flow id="JF15640" begin="480" fromJunction="J0" toJunction="J3" end="540" vehsPerHour="74.64005076156081" departLane="free"/>
  <flow id="JF15641" begin="480" fromJunction="J3" toJunction="J0" end="540" vehsPerHour="40.252476283687585" departLane="free"/>
  <flow id="JF15642" begin="480" fromJunction="J0" toJunction="J4" end="540" vehsPerHour="123.64849671957688" departLane="free"/>
  <flow id="JF15643" begin="480" fromJunction="J0" toJunction="J7" end="540" vehsPerHour="29.189067764627303" departLane="free"/>
  <flow id="JF15644" begin="480" fromJunction="J0" toJunction="J5" end="540" vehsPerHour="118.83523239458026" departLane="free"/>
  <flow id="JF15645" begin="480" fromJunction="J0" toJunction="J6" end="540" vehsPerHour="95.09093099029042" departLane="free"/>
  <flow id="JF15646" begin="480" fromJunction="J3" toJunction="J4" end="540" vehsPerHour="55.77837530902913" departLane="free"/>
  <flow id="JF15647" begin="480" fromJunction="J3" toJunction="J7" end="540" vehsPerHour="112.42554495456464" departLane="free"/>
  <flow id="JF15648" begin="480" fromJunction="J3" toJunction="J5" end="540" vehsPerHour="88.29119376230014" departLane="free"/>
  <flow id="JF15649" begin="480" fromJunction="J3" toJunction="J6" end="540" vehsPerHour="14.476798802989844" departLane="free"/>
  <flow id="JF15650" begin="480" fromJunction="J4" toJunction="J7" end="540" vehsPerHour="40.57162522342588" departLane="free"/>
  <flow id="JF15651" begin="480" fromJunction="J4" toJunction="J5" end="540" vehsPerHour="59.2624555864329" departLane="free"/>
  <flow id="JF15652" begin="480" fromJunction="J4" toJunction="J6" end="540" vehsPerHour="21.843393449460347" departLane="free"/>
  <flow id="JF15653" begin="480" fromJunction="J7" toJunction="J4" end="540" vehsPerHour="5.5518601229320135" departLane="free"/>
  <flow id="JF15654" begin="480" fromJunction="J7" toJunction="J5" end="540" vehsPerHour="43.24338867900865" departLane="free"/>
  <flow id="JF15655" begin="480" fromJunction="J7" toJunction="J6" end="540" vehsPerHour="67.50235097272967" departLane="free"/>
  <flow id="JF15656" begin="480" fromJunction="J5" toJunction="J4" end="540" vehsPerHour="13.039564711396862" departLane="free"/>
  <flow id="JF15657" begin="480" fromJunction="J5" toJunction="J7" end="540" vehsPerHour="28.25214044123979" departLane="free"/>
  <flow id="JF15658" begin="480" fromJunction="J5" toJunction="J6" end="540" vehsPerHour="18.615064846901056" departLane="free"/>
  <flow id="JF15659" begin="480" fromJunction="J6" toJunction="J4" end="540" vehsPerHour="27.27962899832894" departLane="free"/>
  <flow id="JF15660" begin="480" fromJunction="J6" toJunction="J7" end="540" vehsPerHour="20.188023403419137" departLane="free"/>
  <flow id="JF15661" begin="480" fromJunction="J6" toJunction="J5" end="540" vehsPerHour="32.667565393533174" departLane="free"/>
  <flow id="JF15662" begin="480" fromJunction="J4" toJunction="J0" end="540" vehsPerHour="64.67339216457339" departLane="free"/>
  <flow id="JF15663" begin="480" fromJunction="J4" toJunction="J3" end="540" vehsPerHour="66.23612586232659" departLane="free"/>
  <flow id="JF15664" begin="480" fromJunction="J7" toJunction="J0" end="540" vehsPerHour="19.484372644126275" departLane="free"/>
  <flow id="JF15665" begin="480" fromJunction="J7" toJunction="J3" end="540" vehsPerHour="62.32542292845111" departLane="free"/>
  <flow id="JF15666" begin="480" fromJunction="J5" toJunction="J0" end="540" vehsPerHour="66.51472435089906" departLane="free"/>
  <flow id="JF15667" begin="480" fromJunction="J5" toJunction="J3" end="540" vehsPerHour="42.296848665941056" departLane="free"/>
  <flow id="JF15668" begin="480" fromJunction="J6" toJunction="J0" end="540" vehsPerHour="14.965591575414848" departLane="free"/>
  <flow id="JF15669" begin="480" fromJunction="J6" toJunction="J3" end="540" vehsPerHour="35.487987599467644" departLane="free"/>
  <flow id="JF15670" begin="540" fromJunction="J0" toJunction="J3" end="600" vehsPerHour="109.01536631319443" departLane="free"/>