<?xml version="1.0" encoding="UTF-8"?>
<routes xmlns:xsi="http://www.w3.org/2001/XMLSchema-instance" xsi:noNamespaceSchemaLocation="http://sumo.dlr.de/xsd/routes_file.xsd">
  <flow id="JF3820" begin="0" fromJunction="J0" toJunction="J3" end="60" vehsPerHour="9.731784466871297" departLane="free"/>
  <flow id="JF3821" begin="0" fromJunction="J3" toJunction="J0" end="60" vehsPerHour="95.42551353500701" departLane="free"/>
  <flow id="JF3822" begin="0" fromJunction="J0" toJunction="J4" end="60" vehsPerHour="26.893457575492373" departLane="free"/>
  <flow id="JF3823" begin="0" fromJunction="J0" toJunction="J7" end="60" vehsPerHour="17.494598920519547" departLane="free"/>
  <flow id="JF3824" begin="0" fromJunction="J0" toJunction="J5" end="60" vehsPerHour="20.70478851762565" departLane="free"/>
  <flow id="JF3825" begin="0" fromJunction="J0" toJunction="J6" end="60" vehsPerHour="29.633995435081037" departLane="free"/>
  <flow id="JF3826" begin="0" fromJunction="J3" toJunction="J4" end="60" vehsPerHour="112.7776488408081" departLane="free"/>
  <flow id="JF3827" begin="0" fromJunction="J3" toJunction="J7" end="60" vehsPerHour="35.27616645839246" departLane="free"/>
  <flow id="JF3828" begin="0" fromJunction="J3" toJunction="J5" end="60" vehsPerHour="14.068304057538812" departLane="free"/>
  <flow id="JF3829" begin="0" fromJunction="J3" toJunction="J6" end="60" vehsPerHour="122.08227426472651" departLane="free"/>
  <flow id="JF3830" begin="60" fromJunction="J0" toJunction="J3" end="120" vehsPerHour="15.739036776675974" departLane="free"/>
  <flow id="JF3831" begin="60" fromJunction="J3" toJunction="J0" end="120" vehsPerHour="93.14884242187608" departLane="free"/>
  <flow id="JF3832" begin="60" fromJunction="J0" toJunction="J4" end="120" vehsPerHour="78.13698292887942" departLane="free"/>
  <flow id="JF3833" begin="60" fromJunction="J0" toJunction="J7" end="120" vehsPerHour="114.96927992993601" departLane="free"/>
  <flow id="JF3834" begin="60" fromJunction="J0" toJunction="J5" end="120" vehsPerHour="38.82172799190993" departLane="free"/>
  <flow id="JF3835" begin="60" fromJunction="J0" toJunction="J6" end="120" vehsPerHour="101.23478316504072" departLane="free"/>
  <flow id="JF3836" begin="60" fromJunction="J3" toJunction="J4" end="120" vehsPerHour="107.87261499735251" departLane="free"/>
  <flow id="JF3837" begin="60" fromJunction="J3" toJunction="J7" end="120" vehsPerHour="7.8945531673047" departLane="free"/>
  <flow id="JF3838" begin="60" fromJunction="J3" toJunction="J5" end="120" vehsPerHour="61.169342055461115" departLane="free"/>
  <flow id="JF3839" begin="60" fromJunction="J3" toJunction="J6" end="120" vehsPerHour="62.82650970695367" departLane="free"/>
  <flow id="JF3840" begin="60" fromJunction="J4" toJunction="J7" end="120" vehsPerHour="53.564165276131774" departLane="free"/>
  <flow id="JF3841" begin="60" fromJunction="J4" toJunction="J5" end="120" vehsPerHour="58.77978889528781" departLane="free"/>
  <flow id="JF3842" begin="60" fromJunction="J4" toJunction="J6" end="120" vehsPerHour="6.420225469968349" departLane="free"/>
  <flow id="JF3843" begin="60" fromJunction="J7" toJunction="J4" end="120" vehsPerHour="42.919268027684645" departLane="free"/>
  <flow id="JF3844" begin="60" fromJunction="J7" toJunction="J5" end="120" vehsPerHour="47.932244434470896" departLane="free"/>
  <flow id="JF3845" begin="60" fromJunction="J7" toJunction="J6" end="120" vehsPerHour="23.47538231330844" departLane="free"/>
  <flow id="JF3846" begin="60" fromJunction="J5" toJunction="J4" end="120" vehsPerHour="32.2100972970924" departLane="free"/>
  <flow id="JF3847" begin="60" fromJunction="J5" toJunction="J7" end="120" vehsPerHour="26.204805868307286" departLane="free"/>
  <flow id="JF3848" begin="60" fromJunction="J5" toJunction="J6" end="120" vehsPerHour="61.770584833427385" departLane="free"/>
  <flow id="JF3849" begin="60" fromJunction="J6" toJunction="J4" end="120" vehsPerHour="4.625234326596329" departLane="free"/>
  <flow id="JF3850" begin="60" fromJunction="J6" toJunction="J7" end="120" vehsPerHour="43.96404063293204" departLane="free"/>
  <flow id="JF3851" begin="60" fromJunction="J6" toJunction="J5" end="120" vehsPerHour="20.309148214192092" departLane="free"/>
  <flow id="JF3852" begin="60" fromJunction="J4" toJunction="J0" end="120" vehsPerHour="21.308611418349198" departLane="free"/>
  <flow id="JF3853" begin="60" fromJunction="J4" toJunction="J3" end="120" vehsPerHour="20.53762311486095" departLane="free"/>
  <flow id="JF3854" begin="60" fromJunction="J7" toJunction="J0" end="120" vehsPerHour="31.33778041771499" departLane="free"/>
  <flow id="JF3855" begin="60" fromJunction="J7" toJunction="J3" end="120" vehsPerHour="39.543774815451265" departLane="free"/>
  <flow id="JF3856" begin="60" fromJunction="J5" toJunction="J0" end="120" vehsPerHour="13.280274930031332" departLane="free"/>
  <flow id="JF3857" begin="60" fromJunction="J5" toJunction="J3" end="120" vehsPerHour="11.435714696580492" departLane="free"/>
  <flow id="JF3858" begin="60" fromJunction="J6" toJunction="J0" end="120" vehsPerHour="67.27854224127206" departLane="free"/>
  <flow id="JF3859" begin="60" fromJunction="J6" toJunction="J3" end="120" vehsPerHour="20.768926359361025" departLane="free"/>
  <flow id="JF3860" begin="120" fromJunction="J0" toJunction="J3" end="180" vehsPerHour="72.92083576311163" departLane="free"/>
  <flow id="JF3861" begin="120" fromJunction="J3" toJunction="J0" end="180" vehsPerHour="51.42130070664628" departLane="free"/>
  <flow id="JF3862" begin="120" fromJunction="J0" toJunction="J4" end="180" vehsPerHour="20.816525244086197" departLane="free"/>
  <flow id="JF3863" begin="120" fromJunction="J0" toJunction="J7" end="180" vehsPerHour="58.9284178411002" departLane="free"/>
  <flow id="JF3864" begin="120" fromJunction="J0" toJunction="J5" end="180" vehsPerHour="24.32389437631027" departLane="free"/>
  <flow id="JF3865" begin="120" fromJunction="J0" toJunction="J6" end="180" vehsPerHour="97.98480177362283" departLane="free"/>
  <flow id="JF3866" begin="120" fromJunction="J3" toJunction="J4" end="180" vehsPerHour="71.15690313431827" departLane="free"/>
  <flow id="JF3867" begin="120" fromJunction="J3" toJunction="J7" end="180" vehsPerHour="117.91807420705754" departLane="free"/>
  <flow id="JF3868" begin="120" fromJunction="J3" toJunction="J5" end="180" vehsPerHour="132.09902533675938" departLane="free"/>
  <flow id="JF3869" begin="120" fromJunction="J3" toJunction="J6" end="180" vehsPerHour="113.99883838802899" departLane="free"/>
  <flow id="JF3870" begin="120" fromJunction="J4" toJunction="J7" end="180" vehsPerHour="7.2268828785337575" departLane="free"/>
  <flow id="JF3871" begin="120" fromJunction="J4" toJunction="J5" end="180" vehsPerHour="25.81811085028986" departLane="free"/>
  <flow id="JF3872" begin="120" fromJunction="J4" toJunction="J6" end="180" vehsPerHour="57.18380896645222" departLane="free"/>
  <flow id="JF3873" begin="120" fromJunction="J7" toJunction="J4" end="180" vehsPerHour="62.678084925211714" departLane="free"/>
  <flow id="JF3874" begin="120" fromJunction="J7" toJunction="J5" end="180" vehsPerHour="46.79929632109028" departLane="free"/>
  <flow id="JF3875" begin="120" fromJunction="J7" toJunction="J6" end="180" vehsPerHour="58.623271727496665" departLane="free"/>
  <flow id="JF3876" begin="120" fromJunction="J5" toJunction="J4" end="180" vehsPerHour="1.9032367954429759" departLane="free"/>
  <flow id="JF3877" begin="120" fromJunction="J5" toJunction="J7" end="180" vehsPerHour="66.64614336116443" departLane="free"/>
  <flow id="JF3878" begin="120" fromJunction="J5" toJunction="J6" end="180" vehsPerHour="44.933464329042486" departLane="free"/>
  <flow id="JF3879" begin="120" fromJunction="J6" toJunction="J4" end="180" vehsPerHour="30.059655497374465" departLane="free"/>
  <flow id="JF3880" begin="120" fromJunction="J6" toJunction="J7" end="180" vehsPerHour="40.13959540143977" departLane="free"/>
  <flow id="JF3881" begin="120" fromJunction="J6" toJunction="J5" end="180" vehsPerHour="31.438139822624052" departLane="free"/>
  <flow id="JF3882" begin="120" fromJunction="J4" toJunction="J0" end="180" vehsPerHour="26.93299761348956" departLane="free"/>
  <flow id="JF3883" begin="120" fromJunction="J4" toJunction="J3" end="180" vehsPerHour="27.100806481892892" departLane="free"/>
  <flow id="JF3884" begin="120" fromJunction="J7" toJunction="J0" end="180" vehsPerHour="14.605562948513896" departLane="free"/>
  <flow id="JF3885" begin="120" fromJunction="J7" toJunction="J3" end="180" vehsPerHour="37.13692548652073" departLane="free"/>
  <flow id="JF3886" begin="120" fromJunction="J5" toJunction="J0" end="180" vehsPerHour="7.0691255198242695" departLane="free"/>
  <flow id="JF3887" begin="120" fromJunction="J5" toJunction="J3" end="180" vehsPerHour="52.8727628638164" departLane="free"/>
  <flow id="JF3888" begin="120" fromJunction="J6" toJunction="J0" end="180" vehsPerHour="64.85015283568819" departLane="free"/>
  <flow id="JF3889" begin="120" fromJunction="J6" toJunction="J3" end="180" vehsPerHour="20.166945365829005" departLane="free"/>
  <flow id="JF3890" begin="180" fromJunction="J0" toJunction="J3" end="240" vehsPerHour="48.79439404890166" departLane="free"/>
  <flow id="JF3891" begin="180" fromJunction="J3" toJunction="J0" end="240" vehsPerHour="45.16654684472342" departLane="free"/>
  <flow id="JF3892" begin="180" fromJunction="J0" toJunction="J4" end="240" vehsPerHour="38.46647719631083" departLane="free"/>
  <flow id="JF3893" begin="180" fromJunction="J0" toJunction="J7" end="240" vehsPerHour="37.47735558106118" departLane="free"/>
  <flow id="JF3894" begin="180" fromJunction="J0" toJunction="J5" end="240" vehsPerHour="66.41286415322689" departLane="free"/>
  <flow id="JF3895" begin="180" fromJunction="J0" toJunction="J6" end="240" vehsPerHour="11.490451739035164" departLane="free"/>
  <flow id="JF3896" begin="180" fromJunction="J3" toJunction="J4" end="240" vehsPerHour="117.3136769182464" departLane="free"/>
  <flow id="JF3897" begin="180" fromJunction="J3" toJunction="J7" end="240" vehsPerHour="33.6326277190905" departLane="free"/>
  <flow id="JF3898" begin="180" fromJunction="J3" toJunction="J5" end="240" vehsPerHour="6.282893709311717" departLane="free"/>
  <flow id="JF3899" begin="180" fromJunction="J3" toJunction="J6" end="240" vehsPerHour="82.48847144517845" departLane="free"/>
  <flow id="JF3900" begin="180" fromJunction="J4" toJunction="J7" end="240" vehsPerHour="67.3009086863628" departLane="free"/>
  <flow id="JF3901" begin="180" fromJunction="J4" toJunction="J5" end="240" vehsPerHour="1.269721067045454" departLane="free"/>
  <flow id="JF3902" begin="180" fromJunction="J4" toJunction="J6" end="240" vehsPerHour="32.558227895422334" departLane="free"/>
  <flow id="JF3903" begin="180" fromJunction="J7" toJunction="J4" end="240" vehsPerHour="22.295859177321017" departLane="free"/>
  <flow id="JF3904" begin="180" fromJunction="J7" toJunction="J5" end="240" vehsPerHour="22.031069085877938" departLane="free"/>
  <flow id="JF3905" begin="180" fromJunction="J7" toJunction="J6" end="240" vehsPerHour="43.107915190142556" departLane="free"/>
  <flow id="JF3906" begin="180" fromJunction="J5" toJunction="J4" end="240" vehsPerHour="40.507411891763844" departLane="free"/>
  <flow id="JF3907" begin="180" fromJunction="J5" toJunction="J7" end="240" vehsPerHour="44.65556760816551" departLane="free"/>
  <flow id="JF3908" begin="180" fromJunction="J5" toJunction="J6" end="240" vehsPerHour="1.4829257333045254" departLane="free"/>
  <flow id="JF3909" begin="180" fromJunction="J6" toJunction="J4" end="240" vehsPerHour="8.360527933407797" departLane="free"/>
  <flow id="JF3910" begin="180" fromJunction="J6" toJunction="J7" end="240" vehsPerHour="42.96622380079517" departLane="free"/>
  <flow id="JF3911" begin="180" fromJunction="J6" toJunction="J5" end="240" vehsPerHour="7.408020305403327" departLane="free"/>
  <flow id="JF3912" begin="180" fromJunction="J4" toJunction="J0" end="240" vehsPerHour="43.13784309627442" departLane="free"/>
  <flow id="JF3913" begin="180" fromJunction="J4" toJunction="J3" end="240" vehsPerHour="11.298834753808874" departLane="free"/>
  <flow id="JF3914" begin="180" fromJunction="J7" toJunction="J0" end="240" vehsPerHour="1.6730560412942719" departLane="free"/>
  <flow id="JF3915" begin="180" fromJunction="J7" toJunction="J3" end="240" vehsPerHour="1.409804965929953" departLane="free"/>
  <flow id="JF3916" begin="180" fromJunction="J5" toJunction="J0" end="240" vehsPerHour="18.878670045082156" departLane="free"/>
  <flow id="JF3917" begin="180" fromJunction="J5" toJunction="J3" end="240" vehsPerHour="21.90999127075213" departLane="free"/>
  <flow id="JF3918" begin="180" fromJunction="J6" toJunction="J0" end="240" vehsPerHour="38.289783576126766" departLane="free"/>
  <flow id="JF3919" begin="180" fromJunction="J6" toJunction="J3" end="240" vehsPerHour="27.548469985598693" departLane="free"/>
  <flow id="JF3920" begin="240" fromJunction="J0" toJunction="J3" end="300" vehsPerHour="16.902661286421214" departLane="free"/>
  <flow id="JF3921" begin="240" fromJunction="J3" toJunction="J0" end="300" vehsPerHour="110.1311223486632" departLane="free"/>
  <flow id="JF3922" begin="240" fromJunction="J0" toJunction="J4" end="300" vehsPerHour="106.82798908580592" departLane="free"/>
  <flow id="JF3923" begin="240" fromJunction="J0" toJunction="J7" end="300" vehsPerHour="46.45272079045789" departLane="free"/>
  <flow id="JF3924" begin="240" fromJunction="J0" toJunction="J5" end="300" vehsPerHour="94.03648803738842" departLane="free"/>
  <flow id="JF3925" begin="240" fromJunction="J0" toJunction="J6" end="300" vehsPerHour="118.67960578153306" departLane="free"/>
  <flow id="JF3926" begin="240" fromJunction="J3" toJunction="J4" end="300" vehsPerHour="26.43908086186931" departLane="free"/>
  <flow id="JF3927" begin="240" fromJunction="J3" toJunction="J7" end="300" vehsPerHour="3.7872595724880713" departLane="free"/>
  <flow id="JF3928" begin="240" fromJunction="J3" toJunction="J5" end="300" vehsPerHour="8.432553822239148" departLane="free"/>
  <flow id="JF3929" begin="240" fromJunction="J3" toJunction="J6" end="300" vehsPerHour="71.12633257429802" departLane="free"/>
  <flow id="JF3930" begin="240" fromJunction="J4" toJunction="J7" end="300" vehsPerHour="51.51413532306208" departLane="free"/>
  <flow id="JF3931" begin="240" fromJunction="J4" toJunction="J5" end="300" vehsPerHour="52.03976217747525" departLane="free"/>
  <flow id="JF3932" begin="240" fromJunction="J4" toJunction="J6" end="300" vehsPerHour="25.851213761328115" departLane="free"/>
  <flow id="JF3933" begin="240" fromJunction="J7" toJunction="J4" end="300" vehsPerHour="42.29509012734735" departLane="free"/>
  <flow id="JF3934" begin="240" fromJunction="J7" toJunction="J5" end="300" vehsPerHour="10.023040187297594" departLane="free"/>
  <flow id="JF3935" begin="240" fromJunction="J7" toJunction="J6" end="300" vehsPerHour="6.486766802459399" departLane="free"/>
  <flow id="JF3936" begin="240" fromJunction="J5" toJunction="J4" end="300" vehsPerHour="17.200412546355956" departLane="free"/>
  <flow id="JF3937" begin="240" fromJunction="J5" toJunction="J7" end="300" vehsPerHour="47.456448769446645" departLane="free"/>
  <flow id="JF3938" begin="240" fromJunction="J5" toJunction="J6" end="300" vehsPerHour="20.420228677713627" departLane="free"/>
  <flow id="JF3939" begin="240" fromJunction="J6" toJunction="J4" end="300" vehsPerHour="49.53893828697065" departLane="free"/>
  <flow id="JF3940" begin="240" fromJunction="J6" toJunction="J7" end="300" vehsPerHour="8.52965086506594" departLane="free"/>
  <flow id="JF3941" begin="240" fromJunction="J6" toJunction="J5" end="300" vehsPerHour="49.691471446228434" departLane="free"/>
  <flow id="JF3942" begin="240" fromJunction="J4" toJunction="J0" end="300" vehsPerHour="5.851586466367809" departLane="free"/>
  <flow id="JF3943" begin="240" fromJunction="J4" toJunction="J3" end="300" vehsPerHour="24.852768727553705" departLane="free"/>
  <flow id="JF3944" begin="240" fromJunction="J7" toJunction="J0" end="300" vehsPerHour="5.0727572353792185" departLane="free"/>
  <flow id="JF3945" begin="240" fromJunction="J7" toJunction="J3" end="300" vehsPerHour="19.978327757997544" departLane="free"/>
  <flow id="JF3946" begin="240" fromJunction="J5" toJunction="J0" end="300" vehsPerHour="53.645604030224185" departLane="free"/>
  <flow id="JF3947" begin="240" fromJunction="J5" toJunction="J3" end="300" vehsPerHour="50.028442672299754" departLane="free"/>
  <flow id="JF3948" begin="240" fromJunction="J6" toJunction="J0" end="300" vehsPerHour="27.774161784755947" departLane="free"/>
  <flow id="JF3949" begin="240" fromJunction="J6" toJunction="J3" end="300" vehsPerHour="66.10497875520733" departLane="free"/>
  <flow id="JF3950" begin="300" fromJunction="J0" toJunction="J3" end="360" vehsPerHour="130.11923236398388" departLane="free"/>
  <flow id="JF3951" begin="300" fromJunction="J3" toJunction="J0" end="360" vehsPerHour="123.80788964649122" departLane="free"/>
  <flow id="JF3952" begin="300" fromJunction="J0" toJunction="J4" end="360" vehsPerHour="52.134166886270904" departLane="free"/>
  <flow id="JF3953" begin="300" fromJunction="J0" toJunction="J7" end="360" vehsPerHour="41.623746771628134" departLane="free"/>
  <flow id="JF3954" begin="300" fromJunction="J0" toJunction="J5" end="360" vehsPerHour="123.11690034655975" departLane="free"/>
  <flow id="JF3955" begin="300" fromJunction="J0" toJunction="J6" end="360" vehsPerHour="61.74533598345605" departLane="free"/>
  <flow id="JF3956" begin="300" fromJunction="J3" toJunction="J4" end="360" vehsPerHour="63.5445433406358" departLane="free"/>
  <flow id="JF3957" begin="300" fromJunction="J3" toJunction="J7" end="360" vehsPerHour="85.83577943312245" departLane="free"/>
  <flow id="JF3958" begin="300" fromJunction="J3" toJunction="J5" end="360" vehsPerHour="111.32807184742573" departLane="free"/>
  <flow id="JF3959" begin="300" fromJunction="J3" toJunction="J6" end="360" vehsPerHour="91.02049135543868" departLane="free"/>
  <flow id="JF3960" begin="360" fromJunction="J0" toJunction="J3" end="420" vehsPerHour="118.85040434142962" departLane="free"/>
  <flow id="JF3961" begin="360" fromJunction="J3" toJunction="J0" end="420" vehsPerHour="73.12946882347086" departLane="free"/>
  <flow id="JF3962" begin="360" fromJunction="J0" toJunction="J4" end="420" vehsPerHour="62.82037204488359" departLane="free"/>
  <flow id="JF3963" begin="360" fromJunction="J0" toJunction="J7" end="420" vehsPerHour="60.43257273579854" departLane="free"/>
  <flow id="JF3964" begin="360" fromJunction="J0" toJunction="J5" end="420" vehsPerHour="56.829003111541" departLane="free"/>
  <flow id="JF3965" begin="360" fromJunction="J0" toJunction="J6" end="420" vehsPerHour="134.81390164086417" departLane="free"/>
  <flow id="JF3966" begin="360" fromJunction="J3" toJunction="J4" end="420" vehsPerHour="50.935095763843755" departLane="free"/>
  <flow id="JF3967" begin="360" fromJunction="J3" toJunction="J7" end="420" vehsPerHour="123.30365357942553" departLane="free"/>
  <flow id="JF3968" begin="360" fromJunction="J3" toJunction="J5" end="420" vehsPerHour="82.59633634645694" departLane="free"/>
  <flow id="JF3969" begin="360" fromJunction="J3" toJunction="J6" end="420" vehsPerHour="23.346148021767046" departLane="free"/>
  <flow id="JF3970" begin="420" fromJunction="J0" toJunction="J3" end="480" vehsPerHour="16.2129705548491" departLane="free"/>
  <flow id="JF3971" begin="420" fromJunction="J3" toJunction="J0" end="480" vehsPerHour="132.31582058937116" departLane="free"/>
  <flow id="JF3972" begin="420" fromJunction="J0" toJunction="J4" end="480" vehsPerHour="97.84362204265301" departLane="free"/>
  <flow id="JF3973" begin="420" fromJunction="J0" toJunction="J7" end="480" vehsPerHour="121.23473186551476" departLane="free"/>
  <flow id="JF3974" begin="420" fromJunction="J0" toJunction="J5" end="480" vehsPerHour="16.23035921349372" departLane="free"/>
  <flow id="JF3975" begin="420" fromJunction="J0" toJunction="J6" end="480" vehsPerHour="3.9732622272898213" departLane="free"/>
  <flow id="JF3976" begin="420" fromJunction="J3" toJunction="J4" end="480" vehsPerHour="21.538479615757065" departLane="free"/>
  <flow id="JF3977" begin="420" fromJunction="J3" toJunction="J7" end="480" vehsPerHour="79.63384333460121" departLane="free"/>
  <flow id="JF3978" begin="420" fromJunction="J3" toJunction="J5" end="480" vehsPerHour="28.277697754548452" departLane="free"/>
  <flow id="JF3979" begin="420" fromJunction="J3" toJunction="J6" end="480" vehsPerHour="108.84795626180876" departLane="free"/>
  <flow id="JF3980" begin="420" fromJunction="J4" toJunction="J7" end="480" vehsPerHour="13.559892876318099" departLane="free"/>
  <flow id="JF3981" begin="420" fromJunction="J4" toJunction="J5" end="480" vehsPerHour="34.72066134236922" departLane="free"/>
  <flow id="JF3982" begin="420" fromJunction="J4" toJunction="J6" end="480" vehsPerHour="19.679604646358534" departLane="free"/>
  <flow id="JF3983" begin="420" fromJunction="J7" toJunction="J4" end="480" vehsPerHour="53.991526008719056" departLane="free"/>
  <flow id="JF3984" begin="420" fromJunction="J7" toJunction="J5" end="480" vehsPerHour="60.63062118476318" departLane="free"/>
  <flow id="JF3985" begin="420" fromJunction="J7" toJunction="J6" end="480" vehsPerHour="0.4968484674837106" departLane="free"/>
  <flow id="JF3986" begin="420" fromJunction="J5" toJunction="J4" end="480" vehsPerHour="57.70757912757861" departLane="free"/>
  <flow id="JF3987" begin="420" fromJunction="J5" toJunction="J7" end="480" vehsPerHour="47.17287628565343" departLane="free"/>
  <flow id="JF3988" begin="420" fromJunction="J5" toJunction="J6" end="480" vehsPerHour="52.666639367473245" departLane="free"/>
  <flow id="JF3989" begin="420" fromJunction="J6" toJunction="J4" end="480" vehsPerHour="12.043104588795849" departLane="free"/>
  <flow id="JF3990" begin="420" fromJunction="J6" toJunction="J7" end="480" vehsPerHour="47.13950260866025" departLane="free"/>
  <flow id="JF3991" begin="420" fromJunction="J6" toJunction="J5" end="480" vehsPerHour="42.54473100429012" departLane="free"/>
  <flow id="JF3992" begin="420" fromJunction="J4" toJunction="J0" end="480" vehsPerHour="1.4058673142764107" departLane="free"/>
  <flow id="JF3993" begin="420" fromJunction="J4" toJunction="J3" end="480" vehsPerHour="10.472789439652392" departLane="free"/>
  <flow id="JF3994" begin="420" fromJunction="J7" toJunction="J0" end="480" vehsPerHour="6.167061249158705" departLane="free"/>
  <flow id="JF3995" begin="420" fromJunction="J7" toJunction="J3" end="480" vehsPerHour="26.752890150000823" departLane="free"/>
  <flow id="JF3996" begin="420" fromJunction="J5" toJunction="J0" end="480" vehsPerHour="67.45880828552463" departLane="free"/>
  <flow id="JF3997" begin="420" fromJunction="J5" toJunction="J3" end="480" vehsPerHour="63.253987694510414" departLane="free"/>
  <flow id="JF3998" begin="420" fromJunction="J6" toJunction="J0" end="480" vehsPerHour="1.3137840852463203" departLane="free"/>
  <flow id="JF3999" begin="420" fromJunction="J6" toJunction="J3" end="480" vehsPerHour="66.47790455896352" departLane="free"/>
  <flow id="JF4000" begin="480" fromJunction="J0" toJunction="J3" end="540" vehsPerHour="113.92283587348355" departLane="free"/>
  <flow id="JF4001" begin="480" fromJunction="J3" toJunction="J0" end="540" vehsPerHour="98.5954809258802" departLane="free"/>
  <flow id="JF4002" begin="480" fromJunction="J0" toJunction="J4" end="540" vehsPerHour="121.0503669354709" departLane="free"/>
  <flow id="JF4003" begin="480" fromJunction="J0" toJunction="J7" end="540" vehsPerHour="31.80966701340944" departLane="free"/>
  <flow id="JF4004" begin="480" fromJunction="J0" toJunction="J5" end="540" vehsPerHour="78.80304417147181" departLane="free"/>
  <flow id="JF4005" begin="480" fromJunction="J0" toJunction="J6" end="540" vehsPerHour="16.837440459851308" departLane="free"/>
  <flow id="JF4006" begin="480" fromJunction="J3" toJunction="J4" end="540" vehsPerHour="27.255635646742004" departLane="free"/>
  <flow id="JF4007" begin="480" fromJunction="J3" toJunction="J7" end="540" vehsPerHour="15.64072178347664" departLane="free"/>
  <flow id="JF4008" begin="480" fromJunction="J3" toJunction="J5" end="540" vehsPerHour="128.11505837799845" departLane="free"/>
  <flow id="JF4009" begin="480" fromJunction="J3" toJunction="J6" end="540" vehsPerHour="80.96320929861136" departLane="free"/>
  <flow id="JF4010" begin="540" fromJunction="J0" toJunction="J3" end="600" vehsPerHour="34.12744508636337" departLane="free"/>
  <flow id="JF4011" begin="540" fromJunction="J3" toJunction="J0" end="600" vehsPerHour="73.44417488348158" departLane="free"/>
  <flow id="JF4012" begin="540" fromJunction="J0" toJunction="J4" end="600" vehsPerHour="78.72931325376634" departLane="free"/>
  <flow id="JF4013" begin="540" fromJunction="J0" toJunction="J7" end="600" vehsPerHour="119.86698792500601" departLane="free"/>
  <flow id="JF4014" begin="540" fromJunction="J0" toJunction="J5" end="600" vehsPerHour="19.247310477382776" departLane="free"/>
  <flow id="JF4015" begin="540" fromJunction="J0" toJunction="J6" end="600" vehsPerHour="89.93614827885123" departLane="free"/>
  <flow id="JF4016" begin="540" fromJunction="J3" toJunction="J4" end="600" vehsPerHour="21.151291451700786" departLane="free"/>
  <flow id="JF4017" begin="540" fromJunction="J3" toJunction="J7" end="600" vehsPerHour="11.506604042407545" departLane="free"/>
  <flow id="JF4018" begin="540" fromJunction="J3" toJunction="J5" end="600" vehsPerHour="108.51031059298336" departLane="free"/>
  <flow id="JF4019" begin="540" fromJunction="J3" toJunction="J6" end="600" vehsPerHour="119.76123140528671" departLane="free"/>
  <flow id="JF4020" begin="600" fromJunction="J0" toJunction="J3" end="660" vehsPerHour="136.8095953724189" departLane="free"/>
  <flow id="JF4021" begin="600" fromJunction="J3" toJunction="J0" end="660" vehsPerHour="20.092862004529493" departLane="free"/>
  <flow id="JF4022" begin="600" fromJunction="J0" toJunction="J4" end="660" vehsPerHour="45.217235771078165" departLane="free"/>
  <flow id="JF4023" begin="600" fromJunction="J0" toJunction="J7" end="660" vehsPerHour="26.45091570074201" departLane="free"/>
  <flow id="JF4024" begin="600" fromJunction="J0" toJunction="J5" end="660" vehsPerHour="55.3178012458319" departLane="free"/>
  <flow id="JF4025" begin="600" fromJunction="J0" toJunction="J6" end="660" vehsPerHour="99.6216929686451" departLane="free"/>
  <flow id="JF4026" begin="600" fromJunction="J3" toJunction="J4" end="660" vehsPerHour="98.5007355310049" departLane="free"/>
  <flow id="JF4027" begin="600" fromJunction="J3" toJunction="J7" end="660" vehsPerHour="30.418627990893462" departLane="free"/>
  <flow id="JF4028" begin="600" fromJunction="J3" toJunction="J5" end="660" vehsPerHour="127.49839183981284" departLane="free"/>
  <flow id="JF4029" begin="600" fromJunction="J3" toJunction="J6" end="660" vehsPerHour="78.03609892827691" departLane="free"/>
  <flow id="JF4030" begin="660" fromJunction="J0" toJunction="J3" end="720" vehsPerHour="98.98675376837302" departLane="free"/>
  <flow id="JF4031" begin="660" fromJunction="J3" toJunction="J0" end="720" vehsPerHour="135.92484416483975" departLane="free"/>
  <flow id="JF4032" begin="660" fromJunction="J0" toJunction="J4" end="720" vehsPerHour="5.6472262728538665" departLane="free"/>
  <flow id="JF4033" begin="660" fromJunction="J0" toJunction="J7" end="720" vehsPerHour="45.566955657016145" departLane="free"/>
  <flow id="JF4034" begin="660" fromJunction="J0" toJunction="J5" end="720" vehsPerHour="112.68758631160084" departLane="free"/>
  <flow id="JF4035" begin="660" fromJunction="J0" toJunction="J6" end="720" vehsPerHour="15.034347527518907" departLane="free"/>
  <flow id="JF4036" begin="660" fromJunction="J3" toJunction="J4" end="720" vehsPerHour="52.94603658109768" departLane="free"/>
  <flow id="JF4037" begin="660" fromJunction="J3" toJunction="J7" end="720" vehsPerHour="96.66495122417537" departLane="free"/>
  <flow id="JF4038" begin="660" fromJunction="J3" toJunction="J5" end="720" vehsPerHour="25.593890712665292" departLane="free"/>
  <flow id="JF4039" begin="660" fromJunction="J3" toJunction="J6" end="720" vehsPerHour="117.96453677811058" departLane="free"/>
  <flow id="JF4040" begin="660" fromJunction="J4" toJunction="J7" end="720" vehsPerHour="19.787699864180812" departLane="free"/>
  <flow id="JF4041" begin="660" fromJunction="J4" toJunction="J5" end="720" vehsPerHour="57.86419479780617" departLane="free"/>
  <flow id="JF4042" begin="660" fromJunction="J4" toJunction="J6" end="720" vehsPerHour="22.315500216880793" departLane="free"/>
  <flow id="JF4043" begin="660" fromJunction="J7" toJunction="J4" end="720" vehsPerHour="51.701127337215134" departLane="free"/>
  <flow id="JF4044" begin="660" fromJunction="J7" toJunction="J5" end="720" vehsPerHour="45.45562953727306" departLane="free"/>
  <flow id="JF4045" begin="660" fromJunction="J7" toJunction="J6" end="720" vehsPerHour="25.51593243123804" departLane="free"/>
  <flow id="JF4046" begin="660" fromJunction="J5" toJunction="J4" end="720" vehsPerHour="28.583995058678028" departLane="free"/>
  <flow id="JF4047" begin="660" fromJunction="J5" toJunction="J7" end="720" vehsPerHour="41.92158375650441" departLane="free"/>
  <flow id="JF4048" begin="660" fromJunction="J5" toJunction="J6" end="720" vehsPerHour="55.42762430535126" departLane="free"/>
  <flow id="JF4049" begin="660" fromJunction="J6" toJunction="J4" end="720" vehsPerHour="56.407367402452806" departLane="free"/>
  <flow id="JF4050" begin="660" fromJunction="J6" toJunction="J7" end="720" vehsPerHour="33.601687766341456" departLane="free"/>
  <flow id="JF4051" begin="660" fromJunction="J6" toJunction="J5" end="720" vehsPerHour="35.909103868696306" departLane="free"/>