<?xml version="1.0" encoding="UTF-8"?>
<routes xmlns:xsi="http://www.w3.org/2001/XMLSchema-instance" xsi:noNamespaceSchemaLocation="http://sumo.dlr.de/xsd/routes_file.xsd">
  <flow id="JF85830" begin="0" fromJunction="J0" toJunction="J5" end="60" vehsPerHour="542.7052110565495" departLane="free"/>
  <flow id="JF85831" begin="0" fromJunction="J0" toJunction="J7" end="60" vehsPerHour="9.32740929282083" departLane="free"/>
  <flow id="JF85832" begin="0" fromJunction="J3" toJunction="J0" end="60" vehsPerHour="50.94287378583696" departLane="free"/>
  <flow id="JF85833" begin="0" fromJunction="J3" toJunction="J4" end="60" vehsPerHour="10.638034567982881" departLane="free"/>
  <flow id="JF85834" begin="0" fromJunction="J3" toJunction="J5" end="60" vehsPerHour="535.9208448258844" departLane="free"/>
  <flow id="JF85835" begin="0" fromJunction="J3" toJunction="J6" end="60" vehsPerHour="66.93107376434405" departLane="free"/>
  <flow id="JF85836" begin="0" fromJunction="J3" toJunction="J7" end="60" vehsPerHour="158.51912154296195" departLane="free"/>
  <flow id="JF85837" begin="0" fromJunction="J4" toJunction="J3" end="60" vehsPerHour="152.01685594572473" departLane="free"/>
  <flow id="JF85838" begin="0" fromJunction="J4" toJunction="J5" end="60" vehsPerHour="217.26209991352064" departLane="free"/>
  <flow id="JF85839" begin="0" fromJunction="J4" toJunction="J6" end="60" vehsPerHour="190.86538356305255" departLane="free"/>
  <flow id="JF85840" begin="0" fromJunction="J5" toJunction="J0" end="60" vehsPerHour="97.00886589627744" departLane="free"/>
  <flow id="JF85841" begin="0" fromJunction="J5" toJunction="J3" end="60" vehsPerHour="144.8035208104576" departLane="free"/>
  <flow id="JF85842" begin="0" fromJunction="J5" toJunction="J6" end="60" vehsPerHour="31.36772619256518" departLane="free"/>
  <flow id="JF85843" begin="0" fromJunction="J5" toJunction="J7" end="60" vehsPerHour="20.400580696697908" departLane="free"/>
  <flow id="JF85844" begin="0" fromJunction="J6" toJunction="J0" end="60" vehsPerHour="8.5810375048507" departLane="free"/>
  <flow id="JF85845" begin="0" fromJunction="J6" toJunction="J3" end="60" vehsPerHour="155.34773625861266" departLane="free"/>
  <flow id="JF85846" begin="0" fromJunction="J6" toJunction="J4" end="60" vehsPerHour="157.57976490641587" departLane="free"/>
  <flow id="JF85847" begin="0" fromJunction="J6" toJunction="J5" end="60" vehsPerHour="238.81779271190874" departLane="free"/>
  <flow id="JF85848" begin="0" fromJunction="J7" toJunction="J3" end="60" vehsPerHour="253.76440749479517" departLane="free"/>
  <flow id="JF85849" begin="0" fromJunction="J7" toJunction="J4" end="60" vehsPerHour="26.993417220668366" departLane="free"/>
  <flow id="JF85850" begin="0" fromJunction="J7" toJunction="J5" end="60" vehsPerHour="11.064605450971012" departLane="free"/>
  <flow id="JF85851" begin="0" fromJunction="J7" toJunction="J6" end="60" vehsPerHour="172.78615538848544" departLane="free"/>
  <flow id="JF85852" begin="60" fromJunction="J0" toJunction="J4" end="120" vehsPerHour="320.8726287380029" departLane="free"/>
  <flow id="JF85853" begin="60" fromJunction="J0" toJunction="J5" end="120" vehsPerHour="511.5851180939922" departLane="free"/>
  <flow id="JF85854" begin="60" fromJunction="J0" toJunction="J6" end="120" vehsPerHour="442.88593884623117" departLane="free"/>
  <flow id="JF85855" begin="60" fromJunction="J0" toJunction="J7" end="120" vehsPerHour="99.1731891591642" departLane="free"/>
  <flow id="JF85856" begin="60" fromJunction="J3" toJunction="J0" end="120" vehsPerHour="173.05613231299748" departLane="free"/>
  <flow id="JF85857" begin="60" fromJunction="J3" toJunction="J4" end="120" vehsPerHour="53.8768076425026" departLane="free"/>
  <flow id="JF85858" begin="60" fromJunction="J3" toJunction="J5" end="120" vehsPerHour="545.7891137971385" departLane="free"/>
  <flow id="JF85859" begin="60" fromJunction="J3" toJunction="J6" end="120" vehsPerHour="471.9975575178044" departLane="free"/>
  <flow id="JF85860" begin="60" fromJunction="J3" toJunction="J7" end="120" vehsPerHour="445.4559044225708" departLane="free"/>
  <flow id="JF85861" begin="60" fromJunction="J4" toJunction="J0" end="120" vehsPerHour="194.0679251071433" departLane="free"/>
  <flow id="JF85862" begin="60" fromJunction="J4" toJunction="J3" end="120" vehsPerHour="34.88734899647567" departLane="free"/>
  <flow id="JF85863" begin="60" fromJunction="J4" toJunction="J6" end="120" vehsPerHour="250.42425076763658" departLane="free"/>
  <flow id="JF85864" begin="60" fromJunction="J4" toJunction="J7" end="120" vehsPerHour="117.76830091336127" departLane="free"/>
  <flow id="JF85865" begin="60" fromJunction="J5" toJunction="J0" end="120" vehsPerHour="11.18490514931346" departLane="free"/>
  <flow id="JF85866" begin="60" fromJunction="J5" toJunction="J3" end="120" vehsPerHour="239.33889247890912" departLane="free"/>
  <flow id="JF85867" begin="60" fromJunction="J5" toJunction="J4" end="120" vehsPerHour="80.46242562458391" departLane="free"/>
  <flow id="JF85868" begin="60" fromJunction="J6" toJunction="J4" end="120" vehsPerHour="105.37745977578606" departLane="free"/>
  <flow id="JF85869" begin="60" fromJunction="J7" toJunction="J0" end="120" vehsPerHour="252.85475528780643" departLane="free"/>
  <flow id="JF85870" begin="60" fromJunction="J7" toJunction="J3" end="120" vehsPerHour="203.55574734426227" departLane="free"/>
  <flow id="JF85871" begin="60" fromJunction="J7" toJunction="J4" end="120" vehsPerHour="130.4818172241829" departLane="free"/>
  <flow id="JF85872" begin="60" fromJunction="J7" toJunction="J5" end="120" vehsPerHour="88.68141225936508" departLane="free"/>
  <flow id="JF85873" begin="120" fromJunction="J0" toJunction="J3" end="180" vehsPerHour="95.405455849999" departLane="free"/>
  <flow id="JF85874" begin="120" fromJunction="J0" toJunction="J4" end="180" vehsPerHour="69.79287888424494" departLane="free"/>
  <flow id="JF85875" begin="120" fromJunction="J0" toJunction="J6" end="180" vehsPerHour="8.814547455534928" departLane="free"/>
  <flow id="JF85876" begin="120" fromJunction="J0" toJunction="J7" end="180" vehsPerHour="95.98255210855925" departLane="free"/>
  <flow id="JF85877" begin="120" fromJunction="J3" toJunction="J5" end="180" vehsPerHour="302.2358933919354" departLane="free"/>
  <flow id="JF85878" begin="120" fromJunction="J3" toJunction="J7" end="180" vehsPerHour="415.4949781451054" departLane="free"/>
  <flow id="JF85879" begin="120" fromJunction="J4" toJunction="J0" end="180" vehsPerHour="184.3329337414268" departLane="free"/>
  <flow id="JF85880" begin="120" fromJunction="J4" toJunction="J3" end="180" vehsPerHour="226.10628155441353" departLane="free"/>
  <flow id="JF85881" begin="120" fromJunction="J4" toJunction="J6" end="180" vehsPerHour="115.44661571259404" departLane="free"/>
  <flow id="JF85882" begin="120" fromJunction="J4" toJunction="J7" end="180" vehsPerHour="267.438048399982" departLane="free"/>
  <flow id="JF85883" begin="120" fromJunction="J5" toJunction="J0" end="180" vehsPerHour="36.73514016115123" departLane="free"/>
  <flow id="JF85884" begin="120" fromJunction="J5" toJunction="J6" end="180" vehsPerHour="126.4662316764695" departLane="free"/>
  <flow id="JF85885" begin="120" fromJunction="J5" toJunction="J7" end="180" vehsPerHour="138.6685165935255" departLane="free"/>
  <flow id="JF85886" begin="120" fromJunction="J6" toJunction="J4" end="180" vehsPerHour="247.7540703139209" departLane="free"/>
  <flow id="JF85887" begin="120" fromJunction="J6" toJunction="J5" end="180" vehsPerHour="29.26945294223636" departLane="free"/>
  <flow id="JF85888" begin="120" fromJunction="J7" toJunction="J0" end="180" vehsPerHour="22.717369975337842" departLane="free"/>
  <flow id="JF85889" begin="120" fromJunction="J7" toJunction="J4" end="180" vehsPerHour="56.811221544898196" departLane="free"/>
  <flow id="JF85890" begin="120" fromJunction="J7" toJunction="J5" end="180" vehsPerHour="60.606399943401236" departLane="free"/>
  <flow id="JF85891" begin="120" fromJunction="J7" toJunction="J6" end="180" vehsPerHour="152.3349647869419" departLane="free"/>
  <flow id="JF85892" begin="180" fromJunction="J0" toJunction="J3" end="240" vehsPerHour="322.12167074112205" departLane="free"/>
  <flow id="JF85893" begin="180" fromJunction="J0" toJunction="J4" end="240" vehsPerHour="473.22281248257735" departLane="free"/>
  <flow id="JF85894" begin="180" fromJunction="J0" toJunction="J6" end="240" vehsPerHour="74.96893227404038" departLane="free"/>
  <flow id="JF85895" begin="180" fromJunction="J3" toJunction="J0" end="240" vehsPerHour="169.52999510175871" departLane="free"/>
  <flow id="JF85896" begin="180" fromJunction="J3" toJunction="J4" end="240" vehsPerHour="362.72946251658794" departLane="free"/>
  <flow id="JF85897" begin="180" fromJunction="J3" toJunction="J6" end="240" vehsPerHour="374.6064655673289" departLane="free"/>
  <flow id="JF85898" begin="180" fromJunction="J3" toJunction="J7" end="240" vehsPerHour="433.43184246166874" departLane="free"/>
  <flow id="JF85899" begin="180" fromJunction="J4" toJunction="J0" end="240" vehsPerHour="156.00731810711483" departLane="free"/>
  <flow id="JF85900" begin="180" fromJunction="J4" toJunction="J7" end="240" vehsPerHour="63.395163825426145" departLane="free"/>
  <flow id="JF85901" begin="180" fromJunction="J5" toJunction="J3" end="240" vehsPerHour="189.46338958576752" departLane="free"/>
  <flow id="JF85902" begin="180" fromJunction="J5" toJunction="J4" end="240" vehsPerHour="273.35971539707964" departLane="free"/>
  <flow id="JF85903" begin="180" fromJunction="J5" toJunction="J6" end="240" vehsPerHour="45.375750620214404" departLane="free"/>
  <flow id="JF85904" begin="180" fromJunction="J6" toJunction="J0" end="240" vehsPerHour="175.0226066044703" departLane="free"/>
  <flow id="JF85905" begin="180" fromJunction="J6" toJunction="J3" end="240" vehsPerHour="122.45800699550782" departLane="free"/>
  <flow id="JF85906" begin="180" fromJunction="J6" toJunction="J5" end="240" vehsPerHour="42.36312733953763" departLane="free"/>
  <flow id="JF85907" begin="180" fromJunction="J6" toJunction="J7" end="240" vehsPerHour="196.8598132850938" departLane="free"/>
  <flow id="JF85908" begin="180" fromJunction="J7" toJunction="J0" end="240" vehsPerHour="193.76449354752714" departLane="free"/>
  <flow id="JF85909" begin="180" fromJunction="J7" toJunction="J3" end="240" vehsPerHour="240.2502185646075" departLane="free"/>
  <flow id="JF85910" begin="180" fromJunction="J7" toJunction="J5" end="240" vehsPerHour="116.32594244663994" departLane="free"/>
  <flow id="JF85911" begin="180" fromJunction="J7" toJunction="J6" end="240" vehsPerHour="72.46670058786687" departLane="free"/>
  <flow id="JF85912" begin="240" fromJunction="J0" toJunction="J4" end="300" vehsPerHour="473.3386579691186" departLane="free"/>
  <flow id="JF85913" begin="240" fromJunction="J0" toJunction="J5" end="300" vehsPerHour="80.86946434110531" departLane="free"/>
  <flow id="JF85914" begin="240" fromJunction="J0" toJunction="J7" end="300" vehsPerHour="408.3701815084479" departLane="free"/>
  <flow id="JF85915" begin="240" fromJunction="J3" toJunction="J0" end="300" vehsPerHour="434.5737017060595" departLane="free"/>
  <flow id="JF85916" begin="240" fromJunction="J3" toJunction="J4" end="300" vehsPerHour="279.97571493615726" departLane="free"/>
  <flow id="JF85917" begin="240" fromJunction="J3" toJunction="J5" end="300" vehsPerHour="329.3883830054663" departLane="free"/>
  <flow id="JF85918" begin="240" fromJunction="J3" toJunction="J6" end="300" vehsPerHour="413.6113646760707" departLane="free"/>
  <flow id="JF85919" begin="240" fromJunction="J3" toJunction="J7" end="300" vehsPerHour="411.3932084295964" departLane="free"/>
  <flow id="JF85920" begin="240" fromJunction="J4" toJunction="J3" end="300" vehsPerHour="185.81775327820736" departLane="free"/>
  <flow id="JF85921" begin="240" fromJunction="J4" toJunction="J5" end="300" vehsPerHour="233.63904826050677" departLane="free"/>
  <flow id="JF85922" begin="240" fromJunction="J4" toJunction="J6" end="300" vehsPerHour="227.66187788686605" departLane="free"/>
  <flow id="JF85923" begin="240" fromJunction="J4" toJunction="J7" end="300" vehsPerHour="50.4768601322624" departLane="free"/>
  <flow id="JF85924" begin="240" fromJunction="J5" toJunction="J0" end="300" vehsPerHour="159.76682804858842" departLane="free"/>
  <flow id="JF85925" begin="240" fromJunction="J5" toJunction="J4" end="300" vehsPerHour="125.41026441938781" departLane="free"/>
  <flow id="JF85926" begin="240" fromJunction="J6" toJunction="J0" end="300" vehsPerHour="253.42636922558358" departLane="free"/>
  <flow id="JF85927" begin="240" fromJunction="J6" toJunction="J3" end="300" vehsPerHour="214.820584917692" departLane="free"/>
  <flow id="JF85928" begin="240" fromJunction="J6" toJunction="J4" end="300" vehsPerHour="77.51325780036811" departLane="free"/>
  <flow id="JF85929" begin="240" fromJunction="J6" toJunction="J7" end="300" vehsPerHour="4.327435225761381" departLane="free"/>
  <flow id="JF85930" begin="240" fromJunction="J7" toJunction="J3" end="300" vehsPerHour="94.23927506547918" departLane="free"/>
  <flow id="JF85931" begin="240" fromJunction="J7" toJunction="J4" end="300" vehsPerHour="182.25046013677243" departLane="free"/>
  <flow id="JF85932" begin="240" fromJunction="J7" toJunction="J5" end="300" vehsPerHour="113.86909338423628" departLane="free"/>
  <flow id="JF85933" begin="240" fromJunction="J7" toJunction="J6" end="300" vehsPerHour="155.5708476847819" departLane="free"/>
  <flow id="JF85934" begin="300" fromJunction="J0" toJunction="J3" end="360" vehsPerHour="41.490438141716986" departLane="free"/>
  <flow id="JF85935" begin="300" fromJunction="J0" toJunction="J6" end="360" vehsPerHour="88.26016541915719" departLane="free"/>
  <flow id="JF85936" begin="300" fromJunction="J0" toJunction="J7" end="360" vehsPerHour="263.1563082298233" departLane="free"/>
  <flow id="JF85937" begin="300" fromJunction="J3" toJunction="J0" end="360" vehsPerHour="319.53500237979637" departLane="free"/>
  <flow id="JF85938" begin="300" fromJunction="J3" toJunction="J4" end="360" vehsPerHour="137.39976267281793" departLane="free"/>
  <flow id="JF85939" begin="300" fromJunction="J3" toJunction="J5" end="360" vehsPerHour="470.81336191314256" departLane="free"/>
  <flow id="JF85940" begin="300" fromJunction="J3" toJunction="J6" end="360" vehsPerHour="249.1118343882575" departLane="free"/>
  <flow id="JF85941" begin="300" fromJunction="J4" toJunction="J0" end="360" vehsPerHour="35.89468972667442" departLane="free"/>
  <flow id="JF85942" begin="300" fromJunction="J4" toJunction="J5" end="360" vehsPerHour="96.7348248192337" departLane="free"/>
  <flow id="JF85943" begin="300" fromJunction="J4" toJunction="J6" end="360" vehsPerHour="139.5632529711528" departLane="free"/>
  <flow id="JF85944" begin="300" fromJunction="J5" toJunction="J0" end="360" vehsPerHour="242.29211122934856" departLane="free"/>
  <flow id="JF85945" begin="300" fromJunction="J5" toJunction="J3" end="360" vehsPerHour="131.1686017320839" departLane="free"/>
  <flow id="JF85946" begin="300" fromJunction="J5" toJunction="J6" end="360" vehsPerHour="223.65051980758108" departLane="free"/>
  <flow id="JF85947" begin="300" fromJunction="J5" toJunction="J7" end="360" vehsPerHour="96.03331088814" departLane="free"/>
  <flow id="JF85948" begin="300" fromJunction="J6" toJunction="J3" end="360" vehsPerHour="267.2519108751197" departLane="free"/>
  <flow id="JF85949" begin="300" fromJunction="J6" toJunction="J5" end="360" vehsPerHour="211.59135270734555" departLane="free"/>
  <flow id="JF85950" begin="300" fromJunction="J6" toJunction="J7" end="360" vehsPerHour="111.24320550344301" departLane="free"/>
  <flow id="JF85951" begin="300" fromJunction="J7" toJunction="J0" end="360" vehsPerHour="0.2719260291965058" departLane="free"/>
  <flow id="JF85952" begin="300" fromJunction="J7" toJunction="J4" end="360" vehsPerHour="205.4149413916167" departLane="free"/>
  <flow id="JF85953" begin="300" fromJunction="J7" toJunction="J5" end="360" vehsPerHour="214.92360713863889" departLane="free"/>
  <flow id="JF85954" begin="360" fromJunction="J0" toJunction="J4" end="420" vehsPerHour="370.7971977648166" departLane="free"/>
  <flow id="JF85955" begin="360" fromJunction="J0" toJunction="J5" end="420" vehsPerHour="145.376883796955" departLane="free"/>
  <flow id="JF85956" begin="360" fromJunction="J0" toJunction="J7" end="420" vehsPerHour="428.1723393660109" departLane="free"/>
  <flow id="JF85957" begin="360" fromJunction="J3" toJunction="J0" end="420" vehsPerHour="2.924094112102677" departLane="free"/>
  <flow id="JF85958" begin="360" fromJunction="J3" toJunction="J4" end="420" vehsPerHour="271.7531575662348" departLane="free"/>
  <flow id="JF85959" begin="360" fromJunction="J3" toJunction="J5" end="420" vehsPerHour="245.02803503135888" departLane="free"/>
  <flow id="JF85960" begin="360" fromJunction="J3" toJunction="J6" end="420" vehsPerHour="176.61613070504387" departLane="free"/>
  <flow id="JF85961" begin="360" fromJunction="J3" toJunction="J7" end="420" vehsPerHour="295.96652193009" departLane="free"/>
  <flow id="JF85962" begin="360" fromJunction="J4" toJunction="J0" end="420" vehsPerHour="57.79425971466803" departLane="free"/>
  <flow id="JF85963" begin="360" fromJunction="J4" toJunction="J5" end="420" vehsPerHour="73.49648408166252" departLane="free"/>
  <flow id="JF85964" begin="360" fromJunction="J4" toJunction="J6" end="420" vehsPerHour="261.77092293624935" departLane="free"/>
  <flow id="JF85965" begin="360" fromJunction="J4" toJunction="J7" end="420" vehsPerHour="214.8997670750889" departLane="free"/>
  <flow id="JF85966" begin="360" fromJunction="J5" toJunction="J0" end="420" vehsPerHour="232.72552668914057" departLane="free"/>
  <flow id="JF85967" begin="360" fromJunction="J5" toJunction="J3" end="420" vehsPerHour="197.24821900483192" departLane="free"/>
  <flow id="JF85968" begin="360" fromJunction="J5" toJunction="J4" end="420" vehsPerHour="234.81355721327319" departLane="free"/>
  <flow id="JF85969" begin="360" fromJunction="J5" toJunction="J6" end="420" vehsPerHour="202.15303861428345" departLane="free"/>
  <flow id="JF85970" begin="360" fromJunction="J5" toJunction="J7" end="420" vehsPerHour="245.90177637428187" departLane="free"/>
  <flow id="JF85971" begin="360" fromJunction="J6" toJunction="J0" end="420" vehsPerHour="16.563069802893615" departLane="free"/>
  <flow id="JF85972" begin="360" fromJunction="J6" toJunction="J5" end="420" vehsPerHour="138.98849661646946" departLane="free"/>
  <flow id="JF85973" begin="360" fromJunction="J6" toJunction="J7" end="420" vehsPerHour="95.3123188016141" departLane="free"/>
  <flow id="JF85974" begin="360" fromJunction="J7" toJunction="J0" end="420" vehsPerHour="231.66540906395593" departLane="free"/>
  <flow id="JF85975" begin="360" fromJunction="J7" toJunction="J3" end="420" vehsPerHour="216.35814991595174" departLane="free"/>
  <flow id="JF85976" begin="360" fromJunction="J7" toJunction="J5" end="420" vehsPerHour="170.3910402716569" departLane="free"/>
  <flow id="JF85977" begin="360" fromJunction="J7" toJunction="J6" end="420" vehsPerHour="118.4380391406463" departLane="free"/>
  <flow id="JF85978" begin="420" fromJunction="J0" toJunction="J4" end="480" vehsPerHour="271.75962010481163" departLane="free"/>
  <flow id="JF85979" begin="420" fromJunction="J0" toJunction="J7" end="480" vehsPerHour="162.53476827690204" departLane="free"/>
  <flow id="JF85980" begin="420" fromJunction="J3" toJunction="J0" end="480" vehsPerHour="276.7526842130268" departLane="free"/>
  <flow id="JF85981" begin="420" fromJunction="J3" toJunction="J4" end="480" vehsPerHour="113.79675356517969" departLane="free"/>
  <flow id="JF85982" begin="420" fromJunction="J3" toJunction="J5" end="480" vehsPerHour="97.5022953616673" departLane="free"/>
  <flow id="JF85983" begin="420" fromJunction="J3" toJunction="J6" end="480" vehsPerHour="212.73439136322827" departLane="free"/>
  <flow id="JF85984" begin="420" fromJunction="J3" toJunction="J7" end="480" vehsPerHour="332.1048411000932" departLane="free"/>
  <flow id="JF85985" begin="420" fromJunction="J4" toJunction="J3" end="480" vehsPerHour="180.8954973025299" departLane="free"/>
  <flow id="JF85986" begin="420" fromJunction="J4" toJunction="J6" end="480" vehsPerHour="158.29976526089638" departLane="free"/>
  <flow id="JF85987" begin="420" fromJunction="J4" toJunction="J7" end="480" vehsPerHour="62.45509934248992" departLane="free"/>
  <flow id="JF85988" begin="420" fromJunction="J5" toJunction="J0" end="480" vehsPerHour="29.09679634679199" departLane="free"/>
  <flow id="JF85989" begin="420" fromJunction="J5" toJunction="J3" end="480" vehsPerHour="247.36161902585766" departLane="free"/>
  <flow id="JF85990" begin="420" fromJunction="J5" toJunction="J4" end="480" vehsPerHour="158.60964826411055" departLane="free"/>
  <flow id="JF85991" begin="420" fromJunction="J5" toJunction="J7" end="480" vehsPerHour="272.71886267518994" departLane="free"/>
  <flow id="JF85992" begin="420" fromJunction="J6" toJunction="J3" end="480" vehsPerHour="195.71636695722617" departLane="free"/>
  <flow id="JF85993" begin="420" fromJunction="J6" toJunction="J4" end="480" vehsPerHour="143.56226830406553" departLane="free"/>
  <flow id="JF85994" begin="420" fromJunction="J6" toJunction="J5" end="480" vehsPerHour="195.40518855972985" departLane="free"/>
  <flow id="JF85995" begin="420" fromJunction="J6" toJunction="J7" end="480" vehsPerHour="211.89394080008108" departLane="free"/>
  <flow id="JF85996" begin="420" fromJunction="J7" toJunction="J0" end="480" vehsPerHour="207.46651566684008" departLane="free"/>
  <flow id="JF85997" begin="420" fromJunction="J7" toJunction="J3" end="480" vehsPerHour="41.091973714032726" departLane="free"/>
  <flow id="JF85998" begin="420" fromJunction="J7" toJunction="J5" end="480" vehsPerHour="91.91983926631595" departLane="free"/>
  <flow id="JF85999" begin="420" fromJunction="J7" toJunction="J6" end="480" vehsPerHour="63.385578732282426" departLane="free"/>
  <flow id="JF86000" begin="480" fromJunction="J0" toJunction="J3" end="540" vehsPerHour="426.32475821972116" departLane="free"/>
  <flow id="JF86001" begin="480" fromJunction="J0" toJunction="J4" end="540" vehsPerHour="345.880804094067" departLane="free"/>
  <flow id="JF86002" begin="480" fromJunction="J0" toJunction="J5" end="540" vehsPerHour="358.05901748768827" departLane="free"/>
  <flow id="JF86003" begin="480" fromJunction="J0" toJunction="J6" end="540" vehsPerHour="343.86623389815963" departLane="free"/>
  <flow id="JF86004" begin="480" fromJunction="J0" toJunction="J7" end="540" vehsPerHour="316.92854058358404" departLane="free"/>
  <flow id="JF86005" begin="480" fromJunction="J3" toJunction="J0" end="540" vehsPerHour="47.97656279307716" departLane="free"/>
  <flow id="JF86006" begin="480" fromJunction="J4" toJunction="J0" end="540" vehsPerHour="261.9413637631632" departLane="free"/>
  <flow id="JF86007" begin="480" fromJunction="J4" toJunction="J3" end="540" vehsPerHour="180.42160418557316" departLane="free"/>
  <flow id="JF86008" begin="480" fromJunction="J4" toJunction="J7" end="540" vehsPerHour="255.24269625086214" departLane="free"/>
  <flow id="JF86009" begin="480" fromJunction="J5" toJunction="J0" end="540" vehsPerHour="70.4485148608986" departLane="free"/>
  <flow id="JF86010" begin="480" fromJunction="J5" toJunction="J6" end="540" vehsPerHour="116.96244604255345" departLane="free"/>
  <flow id="JF86011" begin="480" fromJunction="J6" toJunction="J0" end="540" vehsPerHour="122.94244357611652" departLane="free"/>
  <flow id="JF86012" begin="480" fromJunction="J6" toJunction="J3" end="540" vehsPerHour="207.74550336452515" departLane="free"/>
  <flow id="JF86013" begin="480" fromJunction="J6" toJunction="J4" end="540" vehsPerHour="274.65743651097875" departLane="free"/>
  <flow id="JF86014" begin="480" fromJunction="J7" toJunction="J0" end="540" vehsPerHour="5.759395204931733" departLane="free"/>
  <flow id="JF86015" begin="480" fromJunction="J7" toJunction="J4" end="540" vehsPerHour="140.41852645922677" departLane="free"/>
  <flow id="JF86016" begin="480" fromJunction="J7" toJunction="J5" end="540" vehsPerHour="34.958378408422526" departLane="free"/>
  <flow id="JF86017" begin="480" fromJunction="J7" toJunction="J6" end="540" vehsPerHour="25.565043047513434" departLane="free"/>
  <flow id="JF86018" begin="540" fromJunction="J0" toJunction="J3" end="600" vehsPerHour="389.8266349438234" departLane="free"/>
  <flow id="JF86019" begin="540" fromJunction="J0" toJunction="J4" end="600" vehsPerHour="382.4271103183526" departLane="free"/>
  <flow id="JF86020" begin="540" fromJunction="J0" toJunction="J5" end="600" vehsPerHour="80.85919570668757" departLane="free"/>
  <flow id="JF86021" begin="540" fromJunction="J0" toJunction="J6" end="600" vehsPerHour="499.71797813771764" departLane="free"/>
  <flow id="JF86022" begin="540" fromJunction="J0" toJunction="J7" end="600" vehsPerHour="68.84477222031867" departLane="free"/>
  <flow id="JF86023" begin="540" fromJunction="J3" toJunction="J0" end="600" vehsPerHour="156.23723315479285" departLane="free"/>
  <flow id="JF86024" begin="540" fromJunction="J3" toJunction="J4" end="600" vehsPerHour="248.2486340684966" departLane="free"/>
  <flow id="JF86025" begin="540" fromJunction="J3" toJunction="J6" end="600" vehsPerHour="398.37111414424027" departLane="free"/>
  <flow id="JF86026" begin="540" fromJunction="J3" toJunction="J7" end="600" vehsPerHour="525.5813959477206" departLane="free"/>
  <flow id="JF86027" begin="540" fromJunction="J4" toJunction="J3" end="600" vehsPerHour="178.7471981954519" departLane="free"/>
  <flow id="JF86028" begin="540" fromJunction="J4" toJunction="J5" end="600" vehsPerHour="249.4250578633249" departLane="free"/>
  <flow id="JF86029" begin="540" fromJunction="J4" toJunction="J6" end="600" vehsPerHour="223.88082495375176" departLane="free"/>
  <flow id="JF86030" begin="540" fromJunction="J4" toJunction="J7" end="600" vehsPerHour="122.72408448099343" departLane="free"/>
  <flow id="JF86031" begin="540" fromJunction="J5" toJunction="J4" end="600" vehsPerHour="194.28580573453567" departLane="free"/>
  <flow id="JF86032" begin="540" fromJunction="J5" toJunction="J7" end="600" vehsPerHour="5.394091680119187" departLane="free"/>
  <flow id="JF86033" begin="540" fromJunction="J6" toJunction="J3" end="600" vehsPerHour="33.2900654570264" departLane="free"/>
  <flow id="JF86034" begin="540" fromJunction="J6" toJunction="J4" end="600" vehsPerHour="58.909037762919525" departLane="free"/>
  <flow id="JF86035" begin="540" fromJunction="J6" toJunction="J5" end="600" vehsPerHour="201.3928547211128" departLane="free"/>
  <flow id="JF86036" begin="540" fromJunction="J6" toJunction="J7" end="600" vehsPerHour="51.317713304557024" departLane="free"/>
  <flow id="JF86037" begin="540" fromJunction="J7" toJunction="J0" end="600" vehsPerHour="13.753867876303126" departLane="free"/>
  <flow id="JF86038" begin="540" fromJunction="J7" toJunction="J3" end="600" vehsPerHour="156.74041587484055" departLane="free"/>
  <flow id="JF86039" begin="540" fromJunction="J7" toJunction="J4" end="600" vehsPerHour="191.5558306089143" departLane="free"/>
  <flow id="JF86040" begin="540" fromJunction="J7" toJunction="J5" end="600" vehsPerHour="160.67541908835366" departLane="free"/>
  <flow id="JF86041" begin="540" fromJunction="J7" toJunction="J6" end="600" vehsPerHour="187.0051049311666" departLane="free"/>
  <flow id="JF86042" begin="600" fromJunction="J0" toJunction="J3" end="660" vehsPerHour="183.74090158891713" departLane="free"/>
  <flow id="JF86043" begin="600" fromJunction="J0" toJunction="J5" end="660" vehsPerHour="436.0498170506143" departLane="free"/>
  <flow id="JF86044" begin="600" fromJunction="J0" toJunction="J6" end="660" vehsPerHour="430.90411615748525" departLane="free"/>
  <flow id="JF86045" begin="600" fromJunction="J0" toJunction="J7" end="660" vehsPerHour="12.40802068439608" departLane="free"/>
  <flow id="JF86046" begin="600" fromJunction="J3" toJunction="J0" end="660" vehsPerHour="527.8478875172518" departLane="free"/>
  <flow id="JF86047" begin="600" fromJunction="J3" toJunction="J4" end="660" vehsPerHour="363.48459015988743" departLane="free"/>
  <flow id="JF86048" begin="600" fromJunction="J3" toJunction="J5" end="660" vehsPerHour="478.6443503567096" departLane="free"/>
  <flow id="JF86049" begin="600" fromJunction="J3" toJunction="J6" end="660" vehsPerHour="56.91285673520421" departLane="free"/>
  <flow id="JF86050" begin="600" fromJunction="J3" toJunction="J7" end="660" vehsPerHour="130.02888987829823" departLane="free"/>
  <flow id="JF86051" begin="600" fromJunction="J4" toJunction="J0" end="660" vehsPerHour="263.20022613972833" departLane="free"/>
  <flow id="JF86052" begin="600" fromJunction="J4" toJunction="J3" end="660" vehsPerHour="230.87051377866644" departLane="free"/>
  <flow id="JF86053" begin="600" fromJunction="J4" toJunction="J6" end="660" vehsPerHour="65.94490987716775" departLane="free"/>
  <flow id="JF86054" begin="600" fromJunction="J4" toJunction="J7" end="660" vehsPerHour="202.41189310957904" departLane="free"/>
  <flow id="JF86055" begin="600" fromJunction="J5" toJunction="J0" end="660" vehsPerHour="194.96726702226385" departLane="free"/>
  <flow id="JF86056" begin="600" fromJunction="J5" toJunction="J3" end="660" vehsPerHour="133.608733271502" departLane="free"/>
  <flow id="JF86057" begin="600" fromJunction="J5" toJunction="J6" end="660" vehsPerHour="47.19232429349993" departLane="free"/>
  <flow id="JF86058" begin="600" fromJunction="J5" toJunction="J7" end="660" vehsPerHour="169.28259926571545" departLane="free"/>
  <flow id="JF86059" begin="600" fromJunction="J6" toJunction="J0" end="660" vehsPerHour="60.51000573472448" departLane="free"/>
  <flow id="JF86060" begin="600" fromJunction="J6" toJunction="J3" end="660" vehsPerHour="31.883195454710293" departLane="free"/>