<?xml version="1.0" encoding="UTF-8"?>
<routes xmlns:xsi="http://www.w3.org/2001/XMLSchema-instance" xsi:noNamespaceSchemaLocation="http://sumo.dlr.de/xsd/routes_file.xsd">
  <flow id="JF209496" begin="0" fromJunction="J0" toJunction="J3" end="60" vehsPerHour="80.63606310668443" departLane="free"/>
  <flow id="JF209497" begin="0" fromJunction="J0" toJunction="J5" end="60" vehsPerHour="33.37466584251068" departLane="free"/>
  <flow id="JF209498" begin="0" fromJunction="J0" toJunction="J6" end="60" vehsPerHour="55.992117039936346" departLane="free"/>
  <flow id="JF209499" begin="0" fromJunction="J0" toJunction="J7" end="60" vehsPerHour="115.51131796338045" departLane="free"/>
  <flow id="JF209500" begin="0" fromJunction="J3" toJunction="J0" end="60" vehsPerHour="86.79811873597124" departLane="free"/>
  <flow id="JF209501" begin="0" fromJunction="J3" toJunction="J4" end="60" vehsPerHour="12.828113016688869" departLane="free"/>
  <flow id="JF209502" begin="0" fromJunction="J3" toJunction="J6" end="60" vehsPerHour="44.136882998893746" departLane="free"/>
  <flow id="JF209503" begin="0" fromJunction="J4" toJunction="J3" end="60" vehsPerHour="36.63121310145453" departLane="free"/>
  <flow id="JF209504" begin="0" fromJunction="J4" toJunction="J5" end="60" vehsPerHour="36.74277314804709" departLane="free"/>
  <flow id="JF209505" begin="0" fromJunction="J4" toJunction="J7" end="60" vehsPerHour="68.59366135822414" departLane="free"/>
  <flow id="JF209506" begin="0" fromJunction="J5" toJunction="J0" end="60" vehsPerHour="1.1281225299543227" departLane="free"/>
  <flow id="JF209507" begin="0" fromJunction="J5" toJunction="J4" end="60" vehsPerHour="19.556852129452423" departLane="free"/>
  <flow id="JF209508" begin="0" fromJunction="J5" toJunction="J6" end="60" vehsPerHour="33.460835517344606" departLane="free"/>
  <flow id="JF209509" begin="0" fromJunction="J5" toJunction="J7" end="60" vehsPerHour="16.458632215936" departLane="free"/>
  <flow id="JF209510" begin="0" fromJunction="J6" toJunction="J0" end="60" vehsPerHour="0.1817344014746605" departLane="free"/>
  <flow id="JF209511" begin="0" fromJunction="J6" toJunction="J3" end="60" vehsPerHour="58.30273350256621" departLane="free"/>
  <flow id="JF209512" begin="0" fromJunction="J6" toJunction="J5" end="60" vehsPerHour="17.302628894113713" departLane="free"/>
  <flow id="JF209513" begin="0" fromJunction="J6" toJunction="J7" end="60" vehsPerHour="5.0772728714372715" departLane="free"/>
  <flow id="JF209514" begin="0" fromJunction="J7" toJunction="J0" end="60" vehsPerHour="12.764769366524654" departLane="free"/>
  <flow id="JF209515" begin="0" fromJunction="J7" toJunction="J3" end="60" vehsPerHour="54.02649171665768" departLane="free"/>
  <flow id="JF209516" begin="0" fromJunction="J7" toJunction="J4" end="60" vehsPerHour="22.027651916264233" departLane="free"/>
  <flow id="JF209517" begin="0" fromJunction="J7" toJunction="J5" end="60" vehsPerHour="60.970828622692686" departLane="free"/>
  <flow id="JF209518" begin="60" fromJunction="J0" toJunction="J3" end="120" vehsPerHour="60.31162196484094" departLane="free"/>
  <flow id="JF209519" begin="60" fromJunction="J0" toJunction="J5" end="120" vehsPerHour="118.54198545911935" departLane="free"/>
  <flow id="JF209520" begin="60" fromJunction="J3" toJunction="J0" end="120" vehsPerHour="14.682343907274655" departLane="free"/>
  <flow id="JF209521" begin="60" fromJunction="J3" toJunction="J4" end="120" vehsPerHour="79.29755883163931" departLane="free"/>
  <flow id="JF209522" begin="60" fromJunction="J3" toJunction="J6" end="120" vehsPerHour="1.3416294880329356" departLane="free"/>
  <flow id="JF209523" begin="60" fromJunction="J4" toJunction="J0" end="120" vehsPerHour="36.65183673973436" departLane="free"/>
  <flow id="JF209524" begin="60" fromJunction="J4" toJunction="J3" end="120" vehsPerHour="67.25551547918855" departLane="free"/>
  <flow id="JF209525" begin="60" fromJunction="J4" toJunction="J6" end="120" vehsPerHour="6.690627533789549" departLane="free"/>
  <flow id="JF209526" begin="60" fromJunction="J4" toJunction="J7" end="120" vehsPerHour="13.461939310470804" departLane="free"/>
  <flow id="JF209527" begin="60" fromJunction="J5" toJunction="J0" end="120" vehsPerHour="21.182114556909795" departLane="free"/>
  <flow id="JF209528" begin="60" fromJunction="J5" toJunction="J3" end="120" vehsPerHour="1.6336170409418442" departLane="free"/>
  <flow id="JF209529" begin="60" fromJunction="J6" toJunction="J0" end="120" vehsPerHour="55.486273367196624" departLane="free"/>
  <flow id="JF209530" begin="60" fromJunction="J6" toJunction="J3" end="120" vehsPerHour="53.301888214197604" departLane="free"/>
  <flow id="JF209531" begin="60" fromJunction="J6" toJunction="J4" end="120" vehsPerHour="8.382783272379147" departLane="free"/>
  <flow id="JF209532" begin="60" fromJunction="J7" toJunction="J0" end="120" vehsPerHour="20.094759011977942" departLane="free"/>
  <flow id="JF209533" begin="60" fromJunction="J7" toJunction="J5" end="120" vehsPerHour="33.668686722888715" departLane="free"/>
  <flow id="JF209534" begin="60" fromJunction="J7" toJunction="J6" end="120" vehsPerHour="59.24322205038661" departLane="free"/>
  <flow id="JF209535" begin="120" fromJunction="J0" toJunction="J3" end="180" vehsPerHour="30.19977429916248" departLane="free"/>
  <flow id="JF209536" begin="120" fromJunction="J0" toJunction="J4" end="180" vehsPerHour="108.76646474097994" departLane="free"/>
  <flow id="JF209537" begin="120" fromJunction="J0" toJunction="J6" end="180" vehsPerHour="19.294716052932127" departLane="free"/>
  <flow id="JF209538" begin="120" fromJunction="J0" toJunction="J7" end="180" vehsPerHour="62.244816703176426" departLane="free"/>
  <flow id="JF209539" begin="120" fromJunction="J3" toJunction="J5" end="180" vehsPerHour="26.031344936054694" departLane="free"/>
  <flow id="JF209540" begin="120" fromJunction="J3" toJunction="J7" end="180" vehsPerHour="61.33127227939976" departLane="free"/>
  <flow id="JF209541" begin="120" fromJunction="J4" toJunction="J0" end="180" vehsPerHour="18.852080122831463" departLane="free"/>
  <flow id="JF209542" begin="120" fromJunction="J4" toJunction="J5" end="180" vehsPerHour="16.28657660855123" departLane="free"/>
  <flow id="JF209543" begin="120" fromJunction="J4" toJunction="J6" end="180" vehsPerHour="2.919214019886247" departLane="free"/>
  <flow id="JF209544" begin="120" fromJunction="J4" toJunction="J7" end="180" vehsPerHour="24.878765835465664" departLane="free"/>
  <flow id="JF209545" begin="120" fromJunction="J5" toJunction="J0" end="180" vehsPerHour="33.083474227147846" departLane="free"/>
  <flow id="JF209546" begin="120" fromJunction="J5" toJunction="J3" end="180" vehsPerHour="67.45389406405123" departLane="free"/>
  <flow id="JF209547" begin="120" fromJunction="J5" toJunction="J6" end="180" vehsPerHour="32.72123166987614" departLane="free"/>
  <flow id="JF209548" begin="120" fromJunction="J5" toJunction="J7" end="180" vehsPerHour="36.14473594669679" departLane="free"/>
  <flow id="JF209549" begin="120" fromJunction="J6" toJunction="J0" end="180" vehsPerHour="62.15864516857563" departLane="free"/>
  <flow id="JF209550" begin="120" fromJunction="J6" toJunction="J3" end="180" vehsPerHour="52.87898082886292" departLane="free"/>
  <flow id="JF209551" begin="120" fromJunction="J6" toJunction="J4" end="180" vehsPerHour="56.810640447198914" departLane="free"/>
  <flow id="JF209552" begin="120" fromJunction="J6" toJunction="J5" end="180" vehsPerHour="66.89393983845314" departLane="free"/>
  <flow id="JF209553" begin="120" fromJunction="J6" toJunction="J7" end="180" vehsPerHour="21.033517133503015" departLane="free"/>
  <flow id="JF209554" begin="120" fromJunction="J7" toJunction="J0" end="180" vehsPerHour="44.16244432159154" departLane="free"/>
  <flow id="JF209555" begin="120" fromJunction="J7" toJunction="J4" end="180" vehsPerHour="38.23622097596101" departLane="free"/>
  <flow id="JF209556" begin="120" fromJunction="J7" toJunction="J5" end="180" vehsPerHour="21.980456131000103" departLane="free"/>
  <flow id="JF209557" begin="120" fromJunction="J7" toJunction="J6" end="180" vehsPerHour="16.378382673104387" departLane="free"/>
  <flow id="JF209558" begin="180" fromJunction="J0" toJunction="J5" end="240" vehsPerHour="101.86130744995504" departLane="free"/>
  <flow id="JF209559" begin="180" fromJunction="J0" toJunction="J6" end="240" vehsPerHour="41.987905725631144" departLane="free"/>
  <flow id="JF209560" begin="180" fromJunction="J0" toJunction="J7" end="240" vehsPerHour="21.379922139536117" departLane="free"/>
  <flow id="JF209561" begin="180" fromJunction="J3" toJunction="J0" end="240" vehsPerHour="60.32923114130124" departLane="free"/>
  <flow id="JF209562" begin="180" fromJunction="J3" toJunction="J4" end="240" vehsPerHour="121.9538868642596" departLane="free"/>
  <flow id="JF209563" begin="180" fromJunction="J3" toJunction="J6" end="240" vehsPerHour="27.687733346104103" departLane="free"/>
  <flow id="JF209564" begin="180" fromJunction="J4" toJunction="J0" end="240" vehsPerHour="37.35791545123659" departLane="free"/>
  <flow id="JF209565" begin="180" fromJunction="J4" toJunction="J3" end="240" vehsPerHour="68.5196244964481" departLane="free"/>
  <flow id="JF209566" begin="180" fromJunction="J4" toJunction="J5" end="240" vehsPerHour="14.508471279769324" departLane="free"/>
  <flow id="JF209567" begin="180" fromJunction="J4" toJunction="J6" end="240" vehsPerHour="62.656350270818365" departLane="free"/>
  <flow id="JF209568" begin="180" fromJunction="J5" toJunction="J0" end="240" vehsPerHour="64.53078605857303" departLane="free"/>
  <flow id="JF209569" begin="180" fromJunction="J5" toJunction="J4" end="240" vehsPerHour="40.87657604155988" departLane="free"/>
  <flow id="JF209570" begin="180" fromJunction="J5" toJunction="J6" end="240" vehsPerHour="5.93572943212003" departLane="free"/>
  <flow id="JF209571" begin="180" fromJunction="J5" toJunction="J7" end="240" vehsPerHour="22.27899378595374" departLane="free"/>
  <flow id="JF209572" begin="180" fromJunction="J6" toJunction="J0" end="240" vehsPerHour="65.18358783638347" departLane="free"/>
  <flow id="JF209573" begin="180" fromJunction="J6" toJunction="J4" end="240" vehsPerHour="10.134729260678743" departLane="free"/>
  <flow id="JF209574" begin="180" fromJunction="J6" toJunction="J7" end="240" vehsPerHour="36.269359727564314" departLane="free"/>
  <flow id="JF209575" begin="180" fromJunction="J7" toJunction="J3" end="240" vehsPerHour="47.99307991206841" departLane="free"/>
  <flow id="JF209576" begin="180" fromJunction="J7" toJunction="J5" end="240" vehsPerHour="49.562469617250585" departLane="free"/>
  <flow id="JF209577" begin="180" fromJunction="J7" toJunction="J6" end="240" vehsPerHour="58.07309446621563" departLane="free"/>
  <flow id="JF209578" begin="240" fromJunction="J0" toJunction="J5" end="300" vehsPerHour="80.38206269664556" departLane="free"/>
  <flow id="JF209579" begin="240" fromJunction="J3" toJunction="J7" end="300" vehsPerHour="126.40143688514479" departLane="free"/>
  <flow id="JF209580" begin="240" fromJunction="J4" toJunction="J0" end="300" vehsPerHour="19.242805933746403" departLane="free"/>
  <flow id="JF209581" begin="240" fromJunction="J4" toJunction="J5" end="300" vehsPerHour="13.672890102372985" departLane="free"/>
  <flow id="JF209582" begin="240" fromJunction="J4" toJunction="J7" end="300" vehsPerHour="3.0575715017887193" departLane="free"/>
  <flow id="JF209583" begin="240" fromJunction="J5" toJunction="J0" end="300" vehsPerHour="30.276620645110476" departLane="free"/>
  <flow id="JF209584" begin="240" fromJunction="J5" toJunction="J4" end="300" vehsPerHour="30.69530898594831" departLane="free"/>
  <flow id="JF209585" begin="240" fromJunction="J5" toJunction="J6" end="300" vehsPerHour="50.183125235990865" departLane="free"/>
  <flow id="JF209586" begin="240" fromJunction="J6" toJunction="J0" end="300" vehsPerHour="55.20905036899564" departLane="free"/>
  <flow id="JF209587" begin="240" fromJunction="J6" toJunction="J3" end="300" vehsPerHour="1.8824132987994804" departLane="free"/>
  <flow id="JF209588" begin="240" fromJunction="J6" toJunction="J4" end="300" vehsPerHour="31.52691697676589" departLane="free"/>
  <flow id="JF209589" begin="240" fromJunction="J6" toJunction="J5" end="300" vehsPerHour="25.28964634415837" departLane="free"/>
  <flow id="JF209590" begin="240" fromJunction="J7" toJunction="J0" end="300" vehsPerHour="31.162331913643218" departLane="free"/>
  <flow id="JF209591" begin="240" fromJunction="J7" toJunction="J3" end="300" vehsPerHour="22.782452188528904" departLane="free"/>
  <flow id="JF209592" begin="240" fromJunction="J7" toJunction="J4" end="300" vehsPerHour="22.045458495455286" departLane="free"/>
  <flow id="JF209593" begin="240" fromJunction="J7" toJunction="J5" end="300" vehsPerHour="12.250763399778869" departLane="free"/>
  <flow id="JF209594" begin="240" fromJunction="J7" toJunction="J6" end="300" vehsPerHour="9.069415089325137" departLane="free"/>
  <flow id="JF209595" begin="300" fromJunction="J0" toJunction="J7" end="360" vehsPerHour="13.207718627346635" departLane="free"/>
  <flow id="JF209596" begin="300" fromJunction="J3" toJunction="J0" end="360" vehsPerHour="134.61834756757946" departLane="free"/>
  <flow id="JF209597" begin="300" fromJunction="J3" toJunction="J4" end="360" vehsPerHour="60.27909849044962" departLane="free"/>
  <flow id="JF209598" begin="300" fromJunction="J3" toJunction="J5" end="360" vehsPerHour="49.67429245836673" departLane="free"/>
  <flow id="JF209599" begin="300" fromJunction="J3" toJunction="J7" end="360" vehsPerHour="117.35480392611767" departLane="free"/>
  <flow id="JF209600" begin="300" fromJunction="J4" toJunction="J3" end="360" vehsPerHour="48.87997836151513" departLane="free"/>
  <flow id="JF209601" begin="300" fromJunction="J4" toJunction="J5" end="360" vehsPerHour="2.7538992217340783" departLane="free"/>
  <flow id="JF209602" begin="300" fromJunction="J4" toJunction="J7" end="360" vehsPerHour="16.107886163680643" departLane="free"/>
  <flow id="JF209603" begin="300" fromJunction="J5" toJunction="J0" end="360" vehsPerHour="10.372657770703832" departLane="free"/>
  <flow id="JF209604" begin="300" fromJunction="J5" toJunction="J3" end="360" vehsPerHour="60.43009047387761" departLane="free"/>
  <flow id="JF209605" begin="300" fromJunction="J5" toJunction="J4" end="360" vehsPerHour="20.668339178548084" departLane="free"/>
  <flow id="JF209606" begin="300" fromJunction="J5" toJunction="J6" end="360" vehsPerHour="62.55304273377889" departLane="free"/>
  <flow id="JF209607" begin="300" fromJunction="J5" toJunction="J7" end="360" vehsPerHour="28.119655940423282" departLane="free"/>
  <flow id="JF209608" begin="300" fromJunction="J6" toJunction="J0" end="360" vehsPerHour="3.6856708812900347" departLane="free"/>
  <flow id="JF209609" begin="300" fromJunction="J6" toJunction="J3" end="360" vehsPerHour="8.722979944792796" departLane="free"/>
  <flow id="JF209610" begin="300" fromJunction="J6" toJunction="J4" end="360" vehsPerHour="61.28235832867482" departLane="free"/>
  <flow id="JF209611" begin="300" fromJunction="J6" toJunction="J7" end="360" vehsPerHour="58.74910374589338" departLane="free"/>
  <flow id="JF209612" begin="300" fromJunction="J7" toJunction="J0" end="360" vehsPerHour="54.879168823929994" departLane="free"/>
  <flow id="JF209613" begin="300" fromJunction="J7" toJunction="J3" end="360" vehsPerHour="1.6791232769253868" departLane="free"/>
  <flow id="JF209614" begin="300" fromJunction="J7" toJunction="J4" end="360" vehsPerHour="57.2282495517169" departLane="free"/>
  <flow id="JF209615" begin="300" fromJunction="J7" toJunction="J5" end="360" vehsPerHour="29.0340101477949" departLane="free"/>
  <flow id="JF209616" begin="360" fromJunction="J0" toJunction="J3" end="420" vehsPerHour="104.76796138097176" departLane="free"/>
  <flow id="JF209617" begin="360" fromJunction="J0" toJunction="J4" end="420" vehsPerHour="129.24455419856045" departLane="free"/>
  <flow id="JF209618" begin="360" fromJunction="J0" toJunction="J5" end="420" vehsPerHour="1.962549782040602" departLane="free"/>
  <flow id="JF209619" begin="360" fromJunction="J0" toJunction="J7" end="420" vehsPerHour="29.38875905454274" departLane="free"/>
  <flow id="JF209620" begin="360" fromJunction="J3" toJunction="J0" end="420" vehsPerHour="111.71564854811167" departLane="free"/>
  <flow id="JF209621" begin="360" fromJunction="J3" toJunction="J5" end="420" vehsPerHour="65.54123908798931" departLane="free"/>
  <flow id="JF209622" begin="360" fromJunction="J3" toJunction="J6" end="420" vehsPerHour="82.79431579673265" departLane="free"/>
  <flow id="JF209623" begin="360" fromJunction="J4" toJunction="J0" end="420" vehsPerHour="32.22005608649681" departLane="free"/>
  <flow id="JF209624" begin="360" fromJunction="J4" toJunction="J3" end="420" vehsPerHour="54.38199710417363" departLane="free"/>
  <flow id="JF209625" begin="360" fromJunction="J4" toJunction="J5" end="420" vehsPerHour="4.755499196754031" departLane="free"/>
  <flow id="JF209626" begin="360" fromJunction="J4" toJunction="J7" end="420" vehsPerHour="42.99041203957545" departLane="free"/>
  <flow id="JF209627" begin="360" fromJunction="J5" toJunction="J0" end="420" vehsPerHour="18.400072945110185" departLane="free"/>
  <flow id="JF209628" begin="360" fromJunction="J5" toJunction="J3" end="420" vehsPerHour="52.64861192556539" departLane="free"/>
  <flow id="JF209629" begin="360" fromJunction="J6" toJunction="J0" end="420" vehsPerHour="35.251538395636985" departLane="free"/>
  <flow id="JF209630" begin="360" fromJunction="J6" toJunction="J3" end="420" vehsPerHour="6.194308817023402" departLane="free"/>
  <flow id="JF209631" begin="360" fromJunction="J6" toJunction="J5" end="420" vehsPerHour="19.741106559167214" departLane="free"/>
  <flow id="JF209632" begin="360" fromJunction="J7" toJunction="J0" end="420" vehsPerHour="60.55371082842202" departLane="free"/>
  <flow id="JF209633" begin="360" fromJunction="J7" toJunction="J3" end="420" vehsPerHour="51.47766976615996" departLane="free"/>
  <flow id="JF209634" begin="360" fromJunction="J7" toJunction="J4" end="420" vehsPerHour="44.08739792131496" departLane="free"/>
  <flow id="JF209635" begin="360" fromJunction="J7" toJunction="J5" end="420" vehsPerHour="51.19344689622862" departLane="free"/>
  <flow id="JF209636" begin="420" fromJunction="J0" toJunction="J4" end="480" vehsPerHour="132.5395916490951" departLane="free"/>
  <flow id="JF209637" begin="420" fromJunction="J0" toJunction="J6" end="480" vehsPerHour="89.34659757966614" departLane="free"/>
  <flow id="JF209638" begin="420" fromJunction="J0" toJunction="J7" end="480" vehsPerHour="92.61450333900646" departLane="free"/>
  <flow id="JF209639" begin="420" fromJunction="J3" toJunction="J0" end="480" vehsPerHour="21.265395010841697" departLane="free"/>
  <flow id="JF209640" begin="420" fromJunction="J3" toJunction="J4" end="480" vehsPerHour="124.58317678055961" departLane="free"/>
  <flow id="JF209641" begin="420" fromJunction="J3" toJunction="J5" end="480" vehsPerHour="110.51515055101159" departLane="free"/>
  <flow id="JF209642" begin="420" fromJunction="J3" toJunction="J6" end="480" vehsPerHour="87.4776667178468" departLane="free"/>
  <flow id="JF209643" begin="420" fromJunction="J3" toJunction="J7" end="480" vehsPerHour="130.75645832234338" departLane="free"/>
  <flow id="JF209644" begin="420" fromJunction="J4" toJunction="J3" end="480" vehsPerHour="62.846558030131426" departLane="free"/>
  <flow id="JF209645" begin="420" fromJunction="J4" toJunction="J5" end="480" vehsPerHour="27.09438856274918" departLane="free"/>
  <flow id="JF209646" begin="420" fromJunction="J4" toJunction="J6" end="480" vehsPerHour="52.08109166195937" departLane="free"/>
  <flow id="JF209647" begin="420" fromJunction="J4" toJunction="J7" end="480" vehsPerHour="29.493313705350193" departLane="free"/>
  <flow id="JF209648" begin="420" fromJunction="J5" toJunction="J3" end="480" vehsPerHour="8.229438490012305" departLane="free"/>
  <flow id="JF209649" begin="420" fromJunction="J5" toJunction="J4" end="480" vehsPerHour="37.71643058685744" departLane="free"/>
  <flow id="JF209650" begin="420" fromJunction="J5" toJunction="J6" end="480" vehsPerHour="53.25047005959455" departLane="free"/>
  <flow id="JF209651" begin="420" fromJunction="J6" toJunction="J4" end="480" vehsPerHour="41.464013449775656" departLane="free"/>
  <flow id="JF209652" begin="420" fromJunction="J6" toJunction="J5" end="480" vehsPerHour="50.32109915820995" departLane="free"/>
  <flow id="JF209653" begin="420" fromJunction="J6" toJunction="J7" end="480" vehsPerHour="8.950360389361514" departLane="free"/>
  <flow id="JF209654" begin="420" fromJunction="J7" toJunction="J0" end="480" vehsPerHour="47.80119400193792" departLane="free"/>
  <flow id="JF209655" begin="420" fromJunction="J7" toJunction="J3" end="480" vehsPerHour="18.17104872012625" departLane="free"/>
  <flow id="JF209656" begin="420" fromJunction="J7" toJunction="J5" end="480" vehsPerHour="13.668909193859399" departLane="free"/>
  <flow id="JF209657" begin="480" fromJunction="J0" toJunction="J3" end="540" vehsPerHour="74.79129372428451" departLane="free"/>
  <flow id="JF209658" begin="480" fromJunction="J0" toJunction="J4" end="540" vehsPerHour="130.14073909175437" departLane="free"/>
  <flow id="JF209659" begin="480" fromJunction="J0" toJunction="J7" end="540" vehsPerHour="103.7589343232503" departLane="free"/>
  <flow id="JF209660" begin="480" fromJunction="J3" toJunction="J0" end="540" vehsPerHour="101.39084155862314" departLane="free"/>
  <flow id="JF209661" begin="480" fromJunction="J3" toJunction="J4" end="540" vehsPerHour="63.949177287969746" departLane="free"/>
  <flow id="JF209662" begin="480" fromJunction="J3" toJunction="J5" end="540" vehsPerHour="39.13990500400416" departLane="free"/>
  <flow id="JF209663" begin="480" fromJunction="J3" toJunction="J6" end="540" vehsPerHour="32.69397010292311" departLane="free"/>
  <flow id="JF209664" begin="480" fromJunction="J3" toJunction="J7" end="540" vehsPerHour="54.57928760419803" departLane="free"/>
  <flow id="JF209665" begin="480" fromJunction="J4" toJunction="J0" end="540" vehsPerHour="33.57490500398468" departLane="free"/>
  <flow id="JF209666" begin="480" fromJunction="J4" toJunction="J3" end="540" vehsPerHour="35.07995348960543" departLane="free"/>
  <flow id="JF209667" begin="480" fromJunction="J4" toJunction="J5" end="540" vehsPerHour="34.99224174619172" departLane="free"/>
  <flow id="JF209668" begin="480" fromJunction="J4" toJunction="J6" end="540" vehsPerHour="10.241116503150135" departLane="free"/>
  <flow id="JF209669" begin="480" fromJunction="J4" toJunction="J7" end="540" vehsPerHour="56.42674531076612" departLane="free"/>
  <flow id="JF209670" begin="480" fromJunction="J5" toJunction="J0" end="540" vehsPerHour="1.0422159169676641" departLane="free"/>
  <flow id="JF209671" begin="480" fromJunction="J5" toJunction="J4" end="540" vehsPerHour="59.39805073329134" departLane="free"/>
  <flow id="JF209672" begin="480" fromJunction="J5" toJunction="J7" end="540" vehsPerHour="19.19971513138117" departLane="free"/>
  <flow id="JF209673" begin="480" fromJunction="J6" toJunction="J0" end="540" vehsPerHour="49.86720952177465" departLane="free"/>
  <flow id="JF209674" begin="480" fromJunction="J6" toJunction="J3" end="540" vehsPerHour="40.099004778243106" departLane="free"/>
  <flow id="JF209675" begin="480" fromJunction="J6" toJunction="J4" end="540" vehsPerHour="42.6396964803035" departLane="free"/>
  <flow id="JF209676" begin="480" fromJunction="J6" toJunction="J5" end="540" vehsPerHour="5.175348961678098" departLane="free"/>
  <flow id="JF209677" begin="480" fromJunction="J6" toJunction="J7" end="540" vehsPerHour="30.694309645957848" departLane="free"/>
  <flow id="JF209678" begin="480" fromJunction="J7" toJunction="J0" end="540" vehsPerHour="62.5271381110173" departLane="free"/>
  <flow id="JF209679" begin="480" fromJunction="J7" toJunction="J3" end="540" vehsPerHour="67.40314775762752" departLane="free"/>
  <flow id="JF209680" begin="480" fromJunction="J7" toJunction="J6" end="540" vehsPerHour="63.59417686243444" departLane="free"/>
  <flow id="JF209681" begin="540" fromJunction="J0" toJunction="J4" end="600" vehsPerHour="95.05148569224198" departLane="free"/>
  <flow id="JF209682" begin="540" fromJunction="J0" toJunction="J7" end="600" vehsPerHour="132.77938889051842" departLane="free"/>
  <flow id="JF209683" begin="540" fromJunction="J3" toJunction="J4" end="600" vehsPerHour="136.00898469218936" departLane="free"/>
  <flow id="JF209684" begin="540" fromJunction="J3" toJunction="J5" end="600" vehsPerHour="127.75427264220792" departLane="free"/>
  <flow id="JF209685" begin="540" fromJunction="J3" toJunction="J6" end="600" vehsPerHour="107.27997318991228" departLane="free"/>
  <flow id="JF209686" begin="540" fromJunction="J3" toJunction="J7" end="600" vehsPerHour="89.99740399060497" departLane="free"/>
  <flow id="JF209687" begin="540" fromJunction="J4" toJunction="J0" end="600" vehsPerHour="24.763596933819166" departLane="free"/>
  <flow id="JF209688" begin="540" fromJunction="J4" toJunction="J5" end="600" vehsPerHour="16.28358061096711" departLane="free"/>
  <flow id="JF209689" begin="540" fromJunction="J5" toJunction="J0" end="600" vehsPerHour="28.924855291052467" departLane="free"/>
  <flow id="JF209690" begin="540" fromJunction="J5" toJunction="J4" end="600" vehsPerHour="8.985414549862348" departLane="free"/>
  <flow id="JF209691" begin="540" fromJunction="J5" toJunction="J7" end="600" vehsPerHour="41.974088225306296" departLane="free"/>
  <flow id="JF209692" begin="540" fromJunction="J6" toJunction="J0" end="600" vehsPerHour="59.97407990978139" departLane="free"/>
  <flow id="JF209693" begin="540" fromJunction="J6" toJunction="J3" end="600" vehsPerHour="20.20093998431919" departLane="free"/>
  <flow id="JF209694" begin="540" fromJunction="J6" toJunction="J4" end="600" vehsPerHour="67.0499538371473" departLane="free"/>
  <flow id="JF209695" begin="540" fromJunction="J6" toJunction="J5" end="600" vehsPerHour="54.326046658540974" departLane="free"/>
  <flow id="JF209696" begin="540" fromJunction="J6" toJunction="J7" end="600" vehsPerHour="28.236110071414682" departLane="free"/>
  <flow id="JF209697" begin="540" fromJunction="J7" toJunction="J0" end="600" vehsPerHour="33.8803887408884" departLane="free"/>
  <flow id="JF209698" begin="540" fromJunction="J7" toJunction="J3" end="600" vehsPerHour="46.65210455648285" departLane="free"/>
  <flow id="JF209699" begin="540" fromJunction="J7" toJunction="J4" end="600" vehsPerHour="45.3631074614692" departLane="free"/>
  <flow id="JF209700" begin="540" fromJunction="J7" toJunction="J6" end="600" vehsPerHour="57.090205159147416" departLane="free"/>
  <flow id="JF209701" begin="600" fromJunction="J0" toJunction="J3" end="660" vehsPerHour="100.41498068317313" departLane="free"/>
  <flow id="JF209702" begin="600" fromJunction="J0" toJunction="J4" end="660" vehsPerHour="99.82028768582983" departLane="free"/>
  <flow id="JF209703" begin="600" fromJunction="J0" toJunction="J5" end="660" vehsPerHour="115.96617799397887" departLane="free"/>
  <flow id="JF209704" begin="600" fromJunction="J0" toJunction="J6" end="660" vehsPerHour="38.27871037367369" departLane="free"/>
  <flow id="JF209705" begin="600" fromJunction="J0" toJunction="J7" end="660" vehsPerHour="42.89757605212995" departLane="free"/>
  <flow id="JF209706" begin="600" fromJunction="J3" toJunction="J0" end="660" vehsPerHour="81.48289154157769" departLane="free"/>
  <flow id="JF209707" begin="600" fromJunction="J3" toJunction="J4" end="660" vehsPerHour="126.5763097931286" departLane="free"/>
  <flow id="JF209708" begin="600" fromJunction="J3" toJunction="J5" end="660" vehsPerHour="9.379746722282242" departLane="free"/>
  <flow id="JF209709" begin="600" fromJunction="J4" toJunction="J5" end="660" vehsPerHour="64.90429035934214" departLane="free"/>
  <flow id="JF209710" begin="600" fromJunction="J4" toJunction="J6" end="660" vehsPerHour="56.96992360550611" departLane="free"/>
  <flow id="JF209711" begin="600" fromJunction="J4" toJunction="J7" end="660" vehsPerHour="3.662651468651845" departLane="free"/>
  <flow id="JF209712" begin="600" fromJunction="J5" toJunction="J0" end="660" vehsPerHour="2.792765800946797" departLane="free"/>
  <flow id="JF209713" begin="600" fromJunction="J5" toJunction="J3" end="660" vehsPerHour="55.578772983222386" departLane="free"/>
  <flow id="JF209714" begin="600" fromJunction="J5" toJunction="J4" end="660" vehsPerHour="37.85787845430968" departLane="free"/>
  <flow id="JF209715" begin="600" fromJunction="J5" toJunction="J6" end="660" vehsPerHour="40.822133862844446" departLane="free"/>
  <flow id="JF209716" begin="600" fromJunction="J5" toJunction="J7" end="660" vehsPerHour="48.53960040264498" departLane="free"/>
  <flow id="JF209717" begin="600" fromJunction="J6" toJunction="J3" end="660" vehsPerHour="42.876825792835376" departLane="free"/>
  <flow id="JF209718" begin="600" fromJunction="J6" toJunction="J4" end="660" vehsPerHour="49.44049794942676" departLane="free"/>
  <flow id="JF209719" begin="600" fromJunction="J6" toJunction="J5" end="660" vehsPerHour="57.53049615911796" departLane="free"/>
  <flow id="JF209720" begin="600" fromJunction="J6" toJunction="J7" end="660" vehsPerHour="46.23852345901808" departLane="free"/>
  <flow id="JF209721" begin="600" fromJunction="J7" toJunction="J0" end="660" vehsPerHour="16.99955684678319" departLane="free"/>
  <flow id="JF209722" begin="600" fromJunction="J7" toJunction="J4" end="660" vehsPerHour="60.02728658813504" departLane="free"/>
  <flow id="JF209723" begin="600" fromJunction="J7" toJunction="J5" end="660" vehsPerHour="6.128123882770343" departLane="free"/>
  <flow id="JF209724" begin="600" fromJunction="J7" toJunction="J6" end="660" vehsPerHour="42.520636169714976" departLane="free"/>