<?xml version="1.0" encoding="UTF-8"?>
<routes xmlns:xsi="http://www.w3.org/2001/XMLSchema-instance" xsi:noNamespaceSchemaLocation="http://sumo.dlr.de/xsd/routes_file.xsd">
  <flow id="JF211259" begin="0" fromJunction="J0" toJunction="J3" end="60" vehsPerHour="103.92185903453063" departLane="free"/>
  <flow id="JF211260" begin="0" fromJunction="J0" toJunction="J4" end="60" vehsPerHour="35.5862308787998" departLane="free"/>
  <flow id="JF211261" begin="0" fromJunction="J0" toJunction="J7" end="60" vehsPerHour="3.6758444127132144" departLane="free"/>
  <flow id="JF211262" begin="0" fromJunction="J3" toJunction="J0" end="60" vehsPerHour="86.5132599086318" departLane="free"/>
  <flow id="JF211263" begin="0" fromJunction="J3" toJunction="J4" end="60" vehsPerHour="130.32547779270521" departLane="free"/>
  <flow id="JF211264" begin="0" fromJunction="J3" toJunction="J5" end="60" vehsPerHour="19.696212995186393" departLane="free"/>
  <flow id="JF211265" begin="0" fromJunction="J3" toJunction="J7" end="60" vehsPerHour="117.07005725550549" departLane="free"/>
  <flow id="JF211266" begin="0" fromJunction="J4" toJunction="J0" end="60" vehsPerHour="61.835269880782356" departLane="free"/>
  <flow id="JF211267" begin="0" fromJunction="J4" toJunction="J3" end="60" vehsPerHour="19.923820615882892" departLane="free"/>
  <flow id="JF211268" begin="0" fromJunction="J4" toJunction="J5" end="60" vehsPerHour="14.224991618845966" departLane="free"/>
  <flow id="JF211269" begin="0" fromJunction="J4" toJunction="J6" end="60" vehsPerHour="42.811568520903755" departLane="free"/>
  <flow id="JF211270" begin="0" fromJunction="J5" toJunction="J3" end="60" vehsPerHour="25.06789656658523" departLane="free"/>
  <flow id="JF211271" begin="0" fromJunction="J5" toJunction="J4" end="60" vehsPerHour="7.275722476406758" departLane="free"/>
  <flow id="JF211272" begin="0" fromJunction="J5" toJunction="J6" end="60" vehsPerHour="65.21867323170069" departLane="free"/>
  <flow id="JF211273" begin="0" fromJunction="J5" toJunction="J7" end="60" vehsPerHour="24.229718761993905" departLane="free"/>
  <flow id="JF211274" begin="0" fromJunction="J6" toJunction="J0" end="60" vehsPerHour="40.14232868277707" departLane="free"/>
  <flow id="JF211275" begin="0" fromJunction="J6" toJunction="J3" end="60" vehsPerHour="49.63614225615908" departLane="free"/>
  <flow id="JF211276" begin="0" fromJunction="J6" toJunction="J4" end="60" vehsPerHour="44.17049819758279" departLane="free"/>
  <flow id="JF211277" begin="0" fromJunction="J6" toJunction="J5" end="60" vehsPerHour="12.638693197738434" departLane="free"/>
  <flow id="JF211278" begin="0" fromJunction="J7" toJunction="J0" end="60" vehsPerHour="6.778277597739333" departLane="free"/>
  <flow id="JF211279" begin="0" fromJunction="J7" toJunction="J3" end="60" vehsPerHour="30.45968281088513" departLane="free"/>
  <flow id="JF211280" begin="0" fromJunction="J7" toJunction="J4" end="60" vehsPerHour="44.889075648716336" departLane="free"/>
  <flow id="JF211281" begin="0" fromJunction="J7" toJunction="J5" end="60" vehsPerHour="3.291313177417198" departLane="free"/>
  <flow id="JF211282" begin="60" fromJunction="J0" toJunction="J4" end="120" vehsPerHour="19.254548843980498" departLane="free"/>
  <flow id="JF211283" begin="60" fromJunction="J0" toJunction="J5" end="120" vehsPerHour="42.242123528002004" departLane="free"/>
  <flow id="JF211284" begin="60" fromJunction="J0" toJunction="J7" end="120" vehsPerHour="77.33493985322922" departLane="free"/>
  <flow id="JF211285" begin="60" fromJunction="J3" toJunction="J0" end="120" vehsPerHour="121.32116733099564" departLane="free"/>
  <flow id="JF211286" begin="60" fromJunction="J3" toJunction="J4" end="120" vehsPerHour="51.13530210208027" departLane="free"/>
  <flow id="JF211287" begin="60" fromJunction="J3" toJunction="J5" end="120" vehsPerHour="104.7805354288115" departLane="free"/>
  <flow id="JF211288" begin="60" fromJunction="J4" toJunction="J0" end="120" vehsPerHour="1.587423973167453" departLane="free"/>
  <flow id="JF211289" begin="60" fromJunction="J4" toJunction="J5" end="120" vehsPerHour="17.461215024442655" departLane="free"/>
  <flow id="JF211290" begin="60" fromJunction="J4" toJunction="J6" end="120" vehsPerHour="35.167426303331" departLane="free"/>
  <flow id="JF211291" begin="60" fromJunction="J5" toJunction="J0" end="120" vehsPerHour="34.64887463900151" departLane="free"/>
  <flow id="JF211292" begin="60" fromJunction="J5" toJunction="J3" end="120" vehsPerHour="26.912038133836475" departLane="free"/>
  <flow id="JF211293" begin="60" fromJunction="J5" toJunction="J4" end="120" vehsPerHour="30.41950220809889" departLane="free"/>
  <flow id="JF211294" begin="60" fromJunction="J5" toJunction="J6" end="120" vehsPerHour="51.49618174995098" departLane="free"/>
  <flow id="JF211295" begin="60" fromJunction="J5" toJunction="J7" end="120" vehsPerHour="31.22191344319754" departLane="free"/>
  <flow id="JF211296" begin="60" fromJunction="J6" toJunction="J3" end="120" vehsPerHour="7.168024149129156" departLane="free"/>
  <flow id="JF211297" begin="60" fromJunction="J6" toJunction="J4" end="120" vehsPerHour="24.034703557168825" departLane="free"/>
  <flow id="JF211298" begin="60" fromJunction="J6" toJunction="J5" end="120" vehsPerHour="0.17920877958810613" departLane="free"/>
  <flow id="JF211299" begin="60" fromJunction="J6" toJunction="J7" end="120" vehsPerHour="46.83042958625236" departLane="free"/>
  <flow id="JF211300" begin="60" fromJunction="J7" toJunction="J0" end="120" vehsPerHour="3.8748192308736216" departLane="free"/>
  <flow id="JF211301" begin="60" fromJunction="J7" toJunction="J3" end="120" vehsPerHour="10.893386539366638" departLane="free"/>
  <flow id="JF211302" begin="60" fromJunction="J7" toJunction="J5" end="120" vehsPerHour="23.42687467496903" departLane="free"/>
  <flow id="JF211303" begin="60" fromJunction="J7" toJunction="J6" end="120" vehsPerHour="24.283427967390462" departLane="free"/>
  <flow id="JF211304" begin="120" fromJunction="J0" toJunction="J3" end="180" vehsPerHour="69.71957353815796" departLane="free"/>
  <flow id="JF211305" begin="120" fromJunction="J0" toJunction="J4" end="180" vehsPerHour="1.3455251063972418" departLane="free"/>
  <flow id="JF211306" begin="120" fromJunction="J0" toJunction="J5" end="180" vehsPerHour="36.52611933409938" departLane="free"/>
  <flow id="JF211307" begin="120" fromJunction="J0" toJunction="J6" end="180" vehsPerHour="57.2330617878804" departLane="free"/>
  <flow id="JF211308" begin="120" fromJunction="J0" toJunction="J7" end="180" vehsPerHour="60.833672691378204" departLane="free"/>
  <flow id="JF211309" begin="120" fromJunction="J3" toJunction="J0" end="180" vehsPerHour="56.65699076785627" departLane="free"/>
  <flow id="JF211310" begin="120" fromJunction="J3" toJunction="J4" end="180" vehsPerHour="8.212350164200869" departLane="free"/>
  <flow id="JF211311" begin="120" fromJunction="J4" toJunction="J0" end="180" vehsPerHour="24.145889979808718" departLane="free"/>
  <flow id="JF211312" begin="120" fromJunction="J4" toJunction="J5" end="180" vehsPerHour="32.08823109655314" departLane="free"/>
  <flow id="JF211313" begin="120" fromJunction="J4" toJunction="J6" end="180" vehsPerHour="20.823173536100665" departLane="free"/>
  <flow id="JF211314" begin="120" fromJunction="J4" toJunction="J7" end="180" vehsPerHour="53.87369930101842" departLane="free"/>
  <flow id="JF211315" begin="120" fromJunction="J5" toJunction="J3" end="180" vehsPerHour="27.21336713192866" departLane="free"/>
  <flow id="JF211316" begin="120" fromJunction="J5" toJunction="J4" end="180" vehsPerHour="31.076218826972415" departLane="free"/>
  <flow id="JF211317" begin="120" fromJunction="J5" toJunction="J7" end="180" vehsPerHour="31.11708586446902" departLane="free"/>
  <flow id="JF211318" begin="120" fromJunction="J6" toJunction="J0" end="180" vehsPerHour="24.61052294369278" departLane="free"/>
  <flow id="JF211319" begin="120" fromJunction="J6" toJunction="J5" end="180" vehsPerHour="29.165346659039812" departLane="free"/>
  <flow id="JF211320" begin="120" fromJunction="J7" toJunction="J3" end="180" vehsPerHour="3.4972928876463443" departLane="free"/>
  <flow id="JF211321" begin="120" fromJunction="J7" toJunction="J6" end="180" vehsPerHour="37.07721717757764" departLane="free"/>
  <flow id="JF211322" begin="180" fromJunction="J0" toJunction="J3" end="240" vehsPerHour="35.51265304270589" departLane="free"/>
  <flow id="JF211323" begin="180" fromJunction="J0" toJunction="J4" end="240" vehsPerHour="108.1597268723766" departLane="free"/>
  <flow id="JF211324" begin="180" fromJunction="J0" toJunction="J6" end="240" vehsPerHour="96.86799161504622" departLane="free"/>
  <flow id="JF211325" begin="180" fromJunction="J0" toJunction="J7" end="240" vehsPerHour="110.11965633432615" departLane="free"/>
  <flow id="JF211326" begin="180" fromJunction="J3" toJunction="J0" end="240" vehsPerHour="36.59115864399641" departLane="free"/>
  <flow id="JF211327" begin="180" fromJunction="J3" toJunction="J4" end="240" vehsPerHour="120.76766827062865" departLane="free"/>
  <flow id="JF211328" begin="180" fromJunction="J3" toJunction="J5" end="240" vehsPerHour="35.40569588680771" departLane="free"/>
  <flow id="JF211329" begin="180" fromJunction="J3" toJunction="J6" end="240" vehsPerHour="7.079344909928275" departLane="free"/>
  <flow id="JF211330" begin="180" fromJunction="J3" toJunction="J7" end="240" vehsPerHour="114.54021031489174" departLane="free"/>
  <flow id="JF211331" begin="180" fromJunction="J4" toJunction="J0" end="240" vehsPerHour="30.755518273933497" departLane="free"/>
  <flow id="JF211332" begin="180" fromJunction="J4" toJunction="J5" end="240" vehsPerHour="7.678927121202274" departLane="free"/>
  <flow id="JF211333" begin="180" fromJunction="J4" toJunction="J6" end="240" vehsPerHour="48.22839078138047" departLane="free"/>
  <flow id="JF211334" begin="180" fromJunction="J5" toJunction="J0" end="240" vehsPerHour="49.3705228285815" departLane="free"/>
  <flow id="JF211335" begin="180" fromJunction="J5" toJunction="J3" end="240" vehsPerHour="22.12752636498174" departLane="free"/>
  <flow id="JF211336" begin="180" fromJunction="J5" toJunction="J4" end="240" vehsPerHour="31.16224688888956" departLane="free"/>
  <flow id="JF211337" begin="180" fromJunction="J5" toJunction="J6" end="240" vehsPerHour="43.216691225907965" departLane="free"/>
  <flow id="JF211338" begin="180" fromJunction="J5" toJunction="J7" end="240" vehsPerHour="32.482603016440464" departLane="free"/>
  <flow id="JF211339" begin="180" fromJunction="J6" toJunction="J3" end="240" vehsPerHour="36.73155428310208" departLane="free"/>
  <flow id="JF211340" begin="180" fromJunction="J6" toJunction="J4" end="240" vehsPerHour="60.39955061905945" departLane="free"/>
  <flow id="JF211341" begin="180" fromJunction="J7" toJunction="J4" end="240" vehsPerHour="25.575824387829666" departLane="free"/>
  <flow id="JF211342" begin="180" fromJunction="J7" toJunction="J5" end="240" vehsPerHour="42.186351758411085" departLane="free"/>
  <flow id="JF211343" begin="180" fromJunction="J7" toJunction="J6" end="240" vehsPerHour="20.410911159300465" departLane="free"/>
  <flow id="JF211344" begin="240" fromJunction="J0" toJunction="J3" end="300" vehsPerHour="50.7105229770636" departLane="free"/>
  <flow id="JF211345" begin="240" fromJunction="J0" toJunction="J4" end="300" vehsPerHour="90.32930292280923" departLane="free"/>
  <flow id="JF211346" begin="240" fromJunction="J0" toJunction="J6" end="300" vehsPerHour="105.4023589548678" departLane="free"/>
  <flow id="JF211347" begin="240" fromJunction="J0" toJunction="J7" end="300" vehsPerHour="129.82813871194983" departLane="free"/>
  <flow id="JF211348" begin="240" fromJunction="J3" toJunction="J0" end="300" vehsPerHour="45.965052082369255" departLane="free"/>
  <flow id="JF211349" begin="240" fromJunction="J3" toJunction="J5" end="300" vehsPerHour="94.28209677118353" departLane="free"/>
  <flow id="JF211350" begin="240" fromJunction="J3" toJunction="J6" end="300" vehsPerHour="34.507736628468884" departLane="free"/>
  <flow id="JF211351" begin="240" fromJunction="J4" toJunction="J0" end="300" vehsPerHour="32.53653548317003" departLane="free"/>
  <flow id="JF211352" begin="240" fromJunction="J4" toJunction="J5" end="300" vehsPerHour="21.880733254695542" departLane="free"/>
  <flow id="JF211353" begin="240" fromJunction="J4" toJunction="J6" end="300" vehsPerHour="55.1014533173618" departLane="free"/>
  <flow id="JF211354" begin="240" fromJunction="J4" toJunction="J7" end="300" vehsPerHour="13.950105752196865" departLane="free"/>
  <flow id="JF211355" begin="240" fromJunction="J5" toJunction="J0" end="300" vehsPerHour="43.464050957954896" departLane="free"/>
  <flow id="JF211356" begin="240" fromJunction="J5" toJunction="J3" end="300" vehsPerHour="21.680136263304945" departLane="free"/>
  <flow id="JF211357" begin="240" fromJunction="J5" toJunction="J4" end="300" vehsPerHour="27.870608542461202" departLane="free"/>
  <flow id="JF211358" begin="240" fromJunction="J5" toJunction="J6" end="300" vehsPerHour="8.773254494111608" departLane="free"/>
  <flow id="JF211359" begin="240" fromJunction="J5" toJunction="J7" end="300" vehsPerHour="1.1142681158133285" departLane="free"/>
  <flow id="JF211360" begin="240" fromJunction="J6" toJunction="J0" end="300" vehsPerHour="57.393232315091936" departLane="free"/>
  <flow id="JF211361" begin="240" fromJunction="J6" toJunction="J3" end="300" vehsPerHour="4.625402143621212" departLane="free"/>
  <flow id="JF211362" begin="240" fromJunction="J6" toJunction="J5" end="300" vehsPerHour="25.747068484181526" departLane="free"/>
  <flow id="JF211363" begin="240" fromJunction="J6" toJunction="J7" end="300" vehsPerHour="55.93470904576718" departLane="free"/>
  <flow id="JF211364" begin="240" fromJunction="J7" toJunction="J0" end="300" vehsPerHour="0.05204078175575976" departLane="free"/>
  <flow id="JF211365" begin="240" fromJunction="J7" toJunction="J3" end="300" vehsPerHour="11.730901346423451" departLane="free"/>
  <flow id="JF211366" begin="240" fromJunction="J7" toJunction="J4" end="300" vehsPerHour="63.1117278240985" departLane="free"/>
  <flow id="JF211367" begin="240" fromJunction="J7" toJunction="J5" end="300" vehsPerHour="36.2985574712051" departLane="free"/>
  <flow id="JF211368" begin="300" fromJunction="J0" toJunction="J3" end="360" vehsPerHour="31.1377646612531" departLane="free"/>
  <flow id="JF211369" begin="300" fromJunction="J0" toJunction="J4" end="360" vehsPerHour="73.88621808476815" departLane="free"/>
  <flow id="JF211370" begin="300" fromJunction="J0" toJunction="J5" end="360" vehsPerHour="64.37412772970129" departLane="free"/>
  <flow id="JF211371" begin="300" fromJunction="J0" toJunction="J6" end="360" vehsPerHour="100.392654681662" departLane="free"/>
  <flow id="JF211372" begin="300" fromJunction="J3" toJunction="J4" end="360" vehsPerHour="114.5505324535108" departLane="free"/>
  <flow id="JF211373" begin="300" fromJunction="J3" toJunction="J7" end="360" vehsPerHour="90.67215744160772" departLane="free"/>
  <flow id="JF211374" begin="300" fromJunction="J4" toJunction="J0" end="360" vehsPerHour="6.3485905189727605" departLane="free"/>
  <flow id="JF211375" begin="300" fromJunction="J4" toJunction="J3" end="360" vehsPerHour="24.393955586217064" departLane="free"/>
  <flow id="JF211376" begin="300" fromJunction="J4" toJunction="J6" end="360" vehsPerHour="47.1738792077929" departLane="free"/>
  <flow id="JF211377" begin="300" fromJunction="J5" toJunction="J0" end="360" vehsPerHour="35.67725539683594" departLane="free"/>
  <flow id="JF211378" begin="300" fromJunction="J5" toJunction="J3" end="360" vehsPerHour="27.501885063937138" departLane="free"/>
  <flow id="JF211379" begin="300" fromJunction="J5" toJunction="J4" end="360" vehsPerHour="14.6102048372334" departLane="free"/>
  <flow id="JF211380" begin="300" fromJunction="J5" toJunction="J6" end="360" vehsPerHour="24.374662307329945" departLane="free"/>
  <flow id="JF211381" begin="300" fromJunction="J5" toJunction="J7" end="360" vehsPerHour="24.90403761559145" departLane="free"/>
  <flow id="JF211382" begin="300" fromJunction="J6" toJunction="J0" end="360" vehsPerHour="19.406216367260473" departLane="free"/>
  <flow id="JF211383" begin="300" fromJunction="J6" toJunction="J3" end="360" vehsPerHour="48.979227226561164" departLane="free"/>
  <flow id="JF211384" begin="300" fromJunction="J6" toJunction="J7" end="360" vehsPerHour="4.2760731869460695" departLane="free"/>
  <flow id="JF211385" begin="300" fromJunction="J7" toJunction="J0" end="360" vehsPerHour="42.22120913908416" departLane="free"/>
  <flow id="JF211386" begin="300" fromJunction="J7" toJunction="J3" end="360" vehsPerHour="20.446517377170732" departLane="free"/>
  <flow id="JF211387" begin="300" fromJunction="J7" toJunction="J4" end="360" vehsPerHour="28.977296652559446" departLane="free"/>
  <flow id="JF211388" begin="300" fromJunction="J7" toJunction="J5" end="360" vehsPerHour="37.12466230086712" departLane="free"/>
  <flow id="JF211389" begin="300" fromJunction="J7" toJunction="J6" end="360" vehsPerHour="44.70630247527639" departLane="free"/>
  <flow id="JF211390" begin="360" fromJunction="J0" toJunction="J4" end="420" vehsPerHour="75.22535686079996" departLane="free"/>
  <flow id="JF211391" begin="360" fromJunction="J0" toJunction="J5" end="420" vehsPerHour="100.22659212953955" departLane="free"/>
  <flow id="JF211392" begin="360" fromJunction="J3" toJunction="J0" end="420" vehsPerHour="99.44583806097206" departLane="free"/>
  <flow id="JF211393" begin="360" fromJunction="J4" toJunction="J0" end="420" vehsPerHour="32.812314391586376" departLane="free"/>
  <flow id="JF211394" begin="360" fromJunction="J4" toJunction="J5" end="420" vehsPerHour="13.060629738012215" departLane="free"/>
  <flow id="JF211395" begin="360" fromJunction="J5" toJunction="J0" end="420" vehsPerHour="67.65493763870091" departLane="free"/>
  <flow id="JF211396" begin="360" fromJunction="J5" toJunction="J3" end="420" vehsPerHour="14.555918537170408" departLane="free"/>
  <flow id="JF211397" begin="360" fromJunction="J5" toJunction="J4" end="420" vehsPerHour="48.63247747447387" departLane="free"/>
  <flow id="JF211398" begin="360" fromJunction="J5" toJunction="J6" end="420" vehsPerHour="57.91791515476909" departLane="free"/>
  <flow id="JF211399" begin="360" fromJunction="J5" toJunction="J7" end="420" vehsPerHour="5.5678973263448235" departLane="free"/>
  <flow id="JF211400" begin="360" fromJunction="J6" toJunction="J0" end="420" vehsPerHour="53.60245791788198" departLane="free"/>
  <flow id="JF211401" begin="360" fromJunction="J6" toJunction="J3" end="420" vehsPerHour="39.131680276365735" departLane="free"/>
  <flow id="JF211402" begin="360" fromJunction="J7" toJunction="J0" end="420" vehsPerHour="65.34201576579886" departLane="free"/>
  <flow id="JF211403" begin="360" fromJunction="J7" toJunction="J3" end="420" vehsPerHour="51.24319860601621" departLane="free"/>
  <flow id="JF211404" begin="360" fromJunction="J7" toJunction="J4" end="420" vehsPerHour="56.27502855591595" departLane="free"/>
  <flow id="JF211405" begin="360" fromJunction="J7" toJunction="J5" end="420" vehsPerHour="41.88534697999537" departLane="free"/>
  <flow id="JF211406" begin="360" fromJunction="J7" toJunction="J6" end="420" vehsPerHour="17.825786023317637" departLane="free"/>
  <flow id="JF211407" begin="420" fromJunction="J0" toJunction="J3" end="480" vehsPerHour="91.34275248281152" departLane="free"/>
  <flow id="JF211408" begin="420" fromJunction="J0" toJunction="J4" end="480" vehsPerHour="51.252281672688554" departLane="free"/>
  <flow id="JF211409" begin="420" fromJunction="J0" toJunction="J5" end="480" vehsPerHour="59.4417569088528" departLane="free"/>
  <flow id="JF211410" begin="420" fromJunction="J0" toJunction="J7" end="480" vehsPerHour="39.973877708224585" departLane="free"/>
  <flow id="JF211411" begin="420" fromJunction="J3" toJunction="J0" end="480" vehsPerHour="14.547263100551767" departLane="free"/>
  <flow id="JF211412" begin="420" fromJunction="J3" toJunction="J4" end="480" vehsPerHour="125.4642701180611" departLane="free"/>
  <flow id="JF211413" begin="420" fromJunction="J3" toJunction="J5" end="480" vehsPerHour="128.00483802890074" departLane="free"/>
  <flow id="JF211414" begin="420" fromJunction="J3" toJunction="J6" end="480" vehsPerHour="62.66037276054078" departLane="free"/>
  <flow id="JF211415" begin="420" fromJunction="J3" toJunction="J7" end="480" vehsPerHour="52.9313417053737" departLane="free"/>
  <flow id="JF211416" begin="420" fromJunction="J4" toJunction="J0" end="480" vehsPerHour="24.648082530026535" departLane="free"/>
  <flow id="JF211417" begin="420" fromJunction="J4" toJunction="J5" end="480" vehsPerHour="32.857135082938306" departLane="free"/>
  <flow id="JF211418" begin="420" fromJunction="J4" toJunction="J6" end="480" vehsPerHour="54.080437751139286" departLane="free"/>
  <flow id="JF211419" begin="420" fromJunction="J4" toJunction="J7" end="480" vehsPerHour="18.463550116600288" departLane="free"/>
  <flow id="JF211420" begin="420" fromJunction="J5" toJunction="J0" end="480" vehsPerHour="21.22837208657418" departLane="free"/>
  <flow id="JF211421" begin="420" fromJunction="J5" toJunction="J6" end="480" vehsPerHour="25.198960204341983" departLane="free"/>
  <flow id="JF211422" begin="420" fromJunction="J5" toJunction="J7" end="480" vehsPerHour="24.86076105321487" departLane="free"/>
  <flow id="JF211423" begin="420" fromJunction="J6" toJunction="J0" end="480" vehsPerHour="45.40230769727588" departLane="free"/>
  <flow id="JF211424" begin="420" fromJunction="J6" toJunction="J5" end="480" vehsPerHour="27.303311992732908" departLane="free"/>
  <flow id="JF211425" begin="420" fromJunction="J6" toJunction="J7" end="480" vehsPerHour="23.2752209750947" departLane="free"/>
  <flow id="JF211426" begin="420" fromJunction="J7" toJunction="J0" end="480" vehsPerHour="33.15493710274639" departLane="free"/>
  <flow id="JF211427" begin="420" fromJunction="J7" toJunction="J4" end="480" vehsPerHour="8.82386405066037" departLane="free"/>
  <flow id="JF211428" begin="420" fromJunction="J7" toJunction="J5" end="480" vehsPerHour="46.60395266860799" departLane="free"/>
  <flow id="JF211429" begin="480" fromJunction="J0" toJunction="J4" end="540" vehsPerHour="60.571696494529675" departLane="free"/>
  <flow id="JF211430" begin="480" fromJunction="J0" toJunction="J6" end="540" vehsPerHour="137.07282049800003" departLane="free"/>
  <flow id="JF211431" begin="480" fromJunction="J3" toJunction="J0" end="540" vehsPerHour="126.52878768458301" departLane="free"/>
  <flow id="JF211432" begin="480" fromJunction="J3" toJunction="J5" end="540" vehsPerHour="125.90428175986543" departLane="free"/>
  <flow id="JF211433" begin="480" fromJunction="J3" toJunction="J6" end="540" vehsPerHour="123.92209053258664" departLane="free"/>
  <flow id="JF211434" begin="480" fromJunction="J4" toJunction="J0" end="540" vehsPerHour="66.78847591165997" departLane="free"/>
  <flow id="JF211435" begin="480" fromJunction="J4" toJunction="J3" end="540" vehsPerHour="60.5084373647027" departLane="free"/>
  <flow id="JF211436" begin="480" fromJunction="J4" toJunction="J5" end="540" vehsPerHour="52.67386283973052" departLane="free"/>
  <flow id="JF211437" begin="480" fromJunction="J4" toJunction="J6" end="540" vehsPerHour="19.471264451650352" departLane="free"/>
  <flow id="JF211438" begin="480" fromJunction="J4" toJunction="J7" end="540" vehsPerHour="5.331879612286929" departLane="free"/>
  <flow id="JF211439" begin="480" fromJunction="J5" toJunction="J0" end="540" vehsPerHour="49.80966525036065" departLane="free"/>
  <flow id="JF211440" begin="480" fromJunction="J5" toJunction="J6" end="540" vehsPerHour="50.1936299950808" departLane="free"/>
  <flow id="JF211441" begin="480" fromJunction="J5" toJunction="J7" end="540" vehsPerHour="58.28567720372967" departLane="free"/>
  <flow id="JF211442" begin="480" fromJunction="J6" toJunction="J3" end="540" vehsPerHour="26.2964974689301" departLane="free"/>
  <flow id="JF211443" begin="480" fromJunction="J6" toJunction="J4" end="540" vehsPerHour="67.96189869156198" departLane="free"/>
  <flow id="JF211444" begin="480" fromJunction="J6" toJunction="J5" end="540" vehsPerHour="26.286906979065932" departLane="free"/>
  <flow id="JF211445" begin="480" fromJunction="J6" toJunction="J7" end="540" vehsPerHour="27.40956128042048" departLane="free"/>
  <flow id="JF211446" begin="480" fromJunction="J7" toJunction="J0" end="540" vehsPerHour="9.539958265369451" departLane="free"/>
  <flow id="JF211447" begin="480" fromJunction="J7" toJunction="J3" end="540" vehsPerHour="0.8615936011917765" departLane="free"/>
  <flow id="JF211448" begin="480" fromJunction="J7" toJunction="J4" end="540" vehsPerHour="65.89650385442297" departLane="free"/>
  <flow id="JF211449" begin="480" fromJunction="J7" toJunction="J6" end="540" vehsPerHour="31.484041068114184" departLane="free"/>
  <flow id="JF211450" begin="540" fromJunction="J0" toJunction="J3" end="600" vehsPerHour="33.07754292187723" departLane="free"/>
  <flow id="JF211451" begin="540" fromJunction="J0" toJunction="J4" end="600" vehsPerHour="82.32476366279735" departLane="free"/>
  <flow id="JF211452" begin="540" fromJunction="J0" toJunction="J6" end="600" vehsPerHour="118.7874984520964" departLane="free"/>
  <flow id="JF211453" begin="540" fromJunction="J0" toJunction="J7" end="600" vehsPerHour="128.0998263706366" departLane="free"/>
  <flow id="JF211454" begin="540" fromJunction="J3" toJunction="J4" end="600" vehsPerHour="99.49217150909588" departLane="free"/>
  <flow id="JF211455" begin="540" fromJunction="J3" toJunction="J5" end="600" vehsPerHour="65.92465298386716" departLane="free"/>
  <flow id="JF211456" begin="540" fromJunction="J3" toJunction="J6" end="600" vehsPerHour="33.73583914371777" departLane="free"/>
  <flow id="JF211457" begin="540" fromJunction="J4" toJunction="J0" end="600" vehsPerHour="22.202836347363853" departLane="free"/>
  <flow id="JF211458" begin="540" fromJunction="J4" toJunction="J3" end="600" vehsPerHour="4.879911878079817" departLane="free"/>
  <flow id="JF211459" begin="540" fromJunction="J4" toJunction="J6" end="600" vehsPerHour="7.6243129552792395" departLane="free"/>
  <flow id="JF211460" begin="540" fromJunction="J4" toJunction="J7" end="600" vehsPerHour="51.160790712785044" departLane="free"/>
  <flow id="JF211461" begin="540" fromJunction="J5" toJunction="J0" end="600" vehsPerHour="10.605194037291113" departLane="free"/>
  <flow id="JF211462" begin="540" fromJunction="J5" toJunction="J3" end="600" vehsPerHour="59.51611981971277" departLane="free"/>
  <flow id="JF211463" begin="540" fromJunction="J5" toJunction="J6" end="600" vehsPerHour="50.41237004130284" departLane="free"/>
  <flow id="JF211464" begin="540" fromJunction="J5" toJunction="J7" end="600" vehsPerHour="56.82696216839109" departLane="free"/>
  <flow id="JF211465" begin="540" fromJunction="J6" toJunction="J0" end="600" vehsPerHour="57.569753843492535" departLane="free"/>
  <flow id="JF211466" begin="540" fromJunction="J6" toJunction="J4" end="600" vehsPerHour="52.84995924319216" departLane="free"/>
  <flow id="JF211467" begin="540" fromJunction="J6" toJunction="J5" end="600" vehsPerHour="67.65168651968767" departLane="free"/>
  <flow id="JF211468" begin="540" fromJunction="J6" toJunction="J7" end="600" vehsPerHour="26.605098881402437" departLane="free"/>
  <flow id="JF211469" begin="540" fromJunction="J7" toJunction="J5" end="600" vehsPerHour="30.411521945354288" departLane="free"/>
  <flow id="JF211470" begin="600" fromJunction="J0" toJunction="J3" end="660" vehsPerHour="36.198682118823484" departLane="free"/>
  <flow id="JF211471" begin="600" fromJunction="J0" toJunction="J5" end="660" vehsPerHour="75.71660653838312" departLane="free"/>
  <flow id="JF211472" begin="600" fromJunction="J0" toJunction="J6" end="660" vehsPerHour="35.51528577465188" departLane="free"/>
  <flow id="JF211473" begin="600" fromJunction="J3" toJunction="J0" end="660" vehsPerHour="118.53145968503156" departLane="free"/>
  <flow id="JF211474" begin="600" fromJunction="J3" toJunction="J6" end="660" vehsPerHour="101.17399118643978" departLane="free"/>
  <flow id="JF211475" begin="600" fromJunction="J4" toJunction="J0" end="660" vehsPerHour="48.585159650172244" departLane="free"/>
  <flow id="JF211476" begin="600" fromJunction="J4" toJunction="J3" end="660" vehsPerHour="68.12156582100754" departLane="free"/>
  <flow id="JF211477" begin="600" fromJunction="J4" toJunction="J7" end="660" vehsPerHour="7.101780279964439" departLane="free"/>
  <flow id="JF211478" begin="600" fromJunction="J5" toJunction="J0" end="660" vehsPerHour="62.11590257134" departLane="free"/>
  <flow id="JF211479" begin="600" fromJunction="J5" toJunction="J4" end="660" vehsPerHour="5.0609935028581425" departLane="free"/>
  <flow id="JF211480" begin="600" fromJunction="J5" toJunction="J6" end="660" vehsPerHour="34.92519709282351" departLane="free"/>
  <flow id="JF211481" begin="600" fromJunction="J6" toJunction="J0" end="660" vehsPerHour="32.563560778848256" departLane="free"/>
  <flow id="JF211482" begin="600" fromJunction="J6" toJunction="J3" end="660" vehsPerHour="13.675297390883442" departLane="free"/>
  <flow id="JF211483" begin="600" fromJunction="J6" toJunction="J4" end="660" vehsPerHour="64.62702435837609" departLane="free"/>
  <flow id="JF211484" begin="600" fromJunction="J6" toJunction="J5" end="660" vehsPerHour="6.4497808992295935" departLane="free"/>
  <flow id="JF211485" begin="600" fromJunction="J6" toJunction="J7" end="660" vehsPerHour="29.606197285586077" departLane="free"/>
  <flow id="JF211486" begin="600" fromJunction="J7" toJunction="J0" end="660" vehsPerHour="66.27423928273443" departLane="free"/>
  <flow id="JF211487" begin="600" fromJunction="J7" toJunction="J3" end="660" vehsPerHour="32.248471440311256" departLane="free"/>