<?xml version="1.0" encoding="UTF-8"?>
<routes xmlns:xsi="http://www.w3.org/2001/XMLSchema-instance" xsi:noNamespaceSchemaLocation="http://sumo.dlr.de/xsd/routes_file.xsd">
  <flow id="JF205982" begin="0" fromJunction="J0" toJunction="J3" end="60" vehsPerHour="28.262381865742586" departLane="free"/>
  <flow id="JF205983" begin="0" fromJunction="J0" toJunction="J4" end="60" vehsPerHour="112.77279965265859" departLane="free"/>
  <flow id="JF205984" begin="0" fromJunction="J0" toJunction="J5" end="60" vehsPerHour="127.0484043824363" departLane="free"/>
  <flow id="JF205985" begin="0" fromJunction="J0" toJunction="J6" end="60" vehsPerHour="73.76646787686543" departLane="free"/>
  <flow id="JF205986" begin="0" fromJunction="J3" toJunction="J0" end="60" vehsPerHour="51.23235868514311" departLane="free"/>
  <flow id="JF205987" begin="0" fromJunction="J3" toJunction="J4" end="60" vehsPerHour="48.59121313649526" departLane="free"/>
  <flow id="JF205988" begin="0" fromJunction="J3" toJunction="J5" end="60" vehsPerHour="19.676339402386773" departLane="free"/>
  <flow id="JF205989" begin="0" fromJunction="J3" toJunction="J7" end="60" vehsPerHour="112.46981645337898" departLane="free"/>
  <flow id="JF205990" begin="0" fromJunction="J4" toJunction="J0" end="60" vehsPerHour="59.1955078258062" departLane="free"/>
  <flow id="JF205991" begin="0" fromJunction="J4" toJunction="J3" end="60" vehsPerHour="37.47698685672201" departLane="free"/>
  <flow id="JF205992" begin="0" fromJunction="J4" toJunction="J5" end="60" vehsPerHour="63.707015544153236" departLane="free"/>
  <flow id="JF205993" begin="0" fromJunction="J4" toJunction="J7" end="60" vehsPerHour="5.52554067375962" departLane="free"/>
  <flow id="JF205994" begin="0" fromJunction="J5" toJunction="J3" end="60" vehsPerHour="8.174902015997137" departLane="free"/>
  <flow id="JF205995" begin="0" fromJunction="J5" toJunction="J4" end="60" vehsPerHour="40.69939779216044" departLane="free"/>
  <flow id="JF205996" begin="0" fromJunction="J6" toJunction="J0" end="60" vehsPerHour="52.79160947571108" departLane="free"/>
  <flow id="JF205997" begin="0" fromJunction="J6" toJunction="J3" end="60" vehsPerHour="27.99155325252381" departLane="free"/>
  <flow id="JF205998" begin="0" fromJunction="J6" toJunction="J4" end="60" vehsPerHour="68.15801286130512" departLane="free"/>
  <flow id="JF205999" begin="0" fromJunction="J6" toJunction="J5" end="60" vehsPerHour="55.947100090198695" departLane="free"/>
  <flow id="JF206000" begin="0" fromJunction="J6" toJunction="J7" end="60" vehsPerHour="24.306819241919083" departLane="free"/>
  <flow id="JF206001" begin="0" fromJunction="J7" toJunction="J0" end="60" vehsPerHour="62.049568931276646" departLane="free"/>
  <flow id="JF206002" begin="0" fromJunction="J7" toJunction="J3" end="60" vehsPerHour="33.725377448905036" departLane="free"/>
  <flow id="JF206003" begin="0" fromJunction="J7" toJunction="J4" end="60" vehsPerHour="29.826260724540116" departLane="free"/>
  <flow id="JF206004" begin="0" fromJunction="J7" toJunction="J5" end="60" vehsPerHour="6.373381995534822" departLane="free"/>
  <flow id="JF206005" begin="60" fromJunction="J0" toJunction="J4" end="120" vehsPerHour="107.04301035167221" departLane="free"/>
  <flow id="JF206006" begin="60" fromJunction="J0" toJunction="J5" end="120" vehsPerHour="128.5703466393607" departLane="free"/>
  <flow id="JF206007" begin="60" fromJunction="J0" toJunction="J6" end="120" vehsPerHour="117.57101429075847" departLane="free"/>
  <flow id="JF206008" begin="60" fromJunction="J0" toJunction="J7" end="120" vehsPerHour="29.18001052435672" departLane="free"/>
  <flow id="JF206009" begin="60" fromJunction="J3" toJunction="J0" end="120" vehsPerHour="79.34039590259493" departLane="free"/>
  <flow id="JF206010" begin="60" fromJunction="J3" toJunction="J4" end="120" vehsPerHour="16.098455653804105" departLane="free"/>
  <flow id="JF206011" begin="60" fromJunction="J3" toJunction="J5" end="120" vehsPerHour="39.84780717334932" departLane="free"/>
  <flow id="JF206012" begin="60" fromJunction="J4" toJunction="J0" end="120" vehsPerHour="25.402554285594338" departLane="free"/>
  <flow id="JF206013" begin="60" fromJunction="J4" toJunction="J3" end="120" vehsPerHour="9.895915700045602" departLane="free"/>
  <flow id="JF206014" begin="60" fromJunction="J4" toJunction="J7" end="120" vehsPerHour="18.927032035943817" departLane="free"/>
  <flow id="JF206015" begin="60" fromJunction="J5" toJunction="J3" end="120" vehsPerHour="54.412280214415006" departLane="free"/>
  <flow id="JF206016" begin="60" fromJunction="J5" toJunction="J6" end="120" vehsPerHour="56.97294696951456" departLane="free"/>
  <flow id="JF206017" begin="60" fromJunction="J5" toJunction="J7" end="120" vehsPerHour="34.8152956369333" departLane="free"/>
  <flow id="JF206018" begin="60" fromJunction="J6" toJunction="J0" end="120" vehsPerHour="3.972668777250412" departLane="free"/>
  <flow id="JF206019" begin="60" fromJunction="J6" toJunction="J3" end="120" vehsPerHour="44.930279614582936" departLane="free"/>
  <flow id="JF206020" begin="60" fromJunction="J6" toJunction="J4" end="120" vehsPerHour="36.102160440342644" departLane="free"/>
  <flow id="JF206021" begin="60" fromJunction="J6" toJunction="J5" end="120" vehsPerHour="12.703241005011305" departLane="free"/>
  <flow id="JF206022" begin="60" fromJunction="J6" toJunction="J7" end="120" vehsPerHour="26.1145792855108" departLane="free"/>
  <flow id="JF206023" begin="60" fromJunction="J7" toJunction="J3" end="120" vehsPerHour="36.13710057481097" departLane="free"/>
  <flow id="JF206024" begin="60" fromJunction="J7" toJunction="J4" end="120" vehsPerHour="47.86950179122974" departLane="free"/>
  <flow id="JF206025" begin="60" fromJunction="J7" toJunction="J6" end="120" vehsPerHour="63.32483017842638" departLane="free"/>
  <flow id="JF206026" begin="120" fromJunction="J0" toJunction="J3" end="180" vehsPerHour="17.91175464755813" departLane="free"/>
  <flow id="JF206027" begin="120" fromJunction="J0" toJunction="J5" end="180" vehsPerHour="71.93587395720297" departLane="free"/>
  <flow id="JF206028" begin="120" fromJunction="J0" toJunction="J6" end="180" vehsPerHour="25.259231344313452" departLane="free"/>
  <flow id="JF206029" begin="120" fromJunction="J0" toJunction="J7" end="180" vehsPerHour="123.47898109626011" departLane="free"/>
  <flow id="JF206030" begin="120" fromJunction="J3" toJunction="J5" end="180" vehsPerHour="85.5250897432734" departLane="free"/>
  <flow id="JF206031" begin="120" fromJunction="J4" toJunction="J0" end="180" vehsPerHour="62.43925073252235" departLane="free"/>
  <flow id="JF206032" begin="120" fromJunction="J4" toJunction="J3" end="180" vehsPerHour="63.78011766529643" departLane="free"/>
  <flow id="JF206033" begin="120" fromJunction="J4" toJunction="J5" end="180" vehsPerHour="16.666951064052352" departLane="free"/>
  <flow id="JF206034" begin="120" fromJunction="J4" toJunction="J7" end="180" vehsPerHour="5.439749520957656" departLane="free"/>
  <flow id="JF206035" begin="120" fromJunction="J5" toJunction="J0" end="180" vehsPerHour="63.34695404614233" departLane="free"/>
  <flow id="JF206036" begin="120" fromJunction="J5" toJunction="J3" end="180" vehsPerHour="50.863375590223164" departLane="free"/>
  <flow id="JF206037" begin="120" fromJunction="J5" toJunction="J4" end="180" vehsPerHour="39.93865134461488" departLane="free"/>
  <flow id="JF206038" begin="120" fromJunction="J5" toJunction="J6" end="180" vehsPerHour="41.236030214181866" departLane="free"/>
  <flow id="JF206039" begin="120" fromJunction="J6" toJunction="J7" end="180" vehsPerHour="14.889885340539484" departLane="free"/>
  <flow id="JF206040" begin="120" fromJunction="J7" toJunction="J0" end="180" vehsPerHour="26.132455765296243" departLane="free"/>
  <flow id="JF206041" begin="120" fromJunction="J7" toJunction="J6" end="180" vehsPerHour="46.2176233150139" departLane="free"/>
  <flow id="JF206042" begin="180" fromJunction="J0" toJunction="J3" end="240" vehsPerHour="84.00995368367246" departLane="free"/>
  <flow id="JF206043" begin="180" fromJunction="J0" toJunction="J5" end="240" vehsPerHour="59.58774754415487" departLane="free"/>
  <flow id="JF206044" begin="180" fromJunction="J0" toJunction="J6" end="240" vehsPerHour="116.69689146242875" departLane="free"/>
  <flow id="JF206045" begin="180" fromJunction="J0" toJunction="J7" end="240" vehsPerHour="122.04207419861635" departLane="free"/>
  <flow id="JF206046" begin="180" fromJunction="J3" toJunction="J0" end="240" vehsPerHour="36.716978789065955" departLane="free"/>
  <flow id="JF206047" begin="180" fromJunction="J3" toJunction="J4" end="240" vehsPerHour="134.43855429181437" departLane="free"/>
  <flow id="JF206048" begin="180" fromJunction="J3" toJunction="J5" end="240" vehsPerHour="87.46230861208504" departLane="free"/>
  <flow id="JF206049" begin="180" fromJunction="J3" toJunction="J7" end="240" vehsPerHour="67.45463751138544" departLane="free"/>
  <flow id="JF206050" begin="180" fromJunction="J4" toJunction="J0" end="240" vehsPerHour="10.803125132951415" departLane="free"/>
  <flow id="JF206051" begin="180" fromJunction="J4" toJunction="J3" end="240" vehsPerHour="39.33819429984418" departLane="free"/>
  <flow id="JF206052" begin="180" fromJunction="J4" toJunction="J5" end="240" vehsPerHour="31.061683216699944" departLane="free"/>
  <flow id="JF206053" begin="180" fromJunction="J4" toJunction="J6" end="240" vehsPerHour="39.26975750096968" departLane="free"/>
  <flow id="JF206054" begin="180" fromJunction="J4" toJunction="J7" end="240" vehsPerHour="26.59782965743664" departLane="free"/>
  <flow id="JF206055" begin="180" fromJunction="J5" toJunction="J0" end="240" vehsPerHour="68.5084403512419" departLane="free"/>
  <flow id="JF206056" begin="180" fromJunction="J5" toJunction="J3" end="240" vehsPerHour="35.871803930810856" departLane="free"/>
  <flow id="JF206057" begin="180" fromJunction="J5" toJunction="J4" end="240" vehsPerHour="8.094820980871182" departLane="free"/>
  <flow id="JF206058" begin="180" fromJunction="J5" toJunction="J6" end="240" vehsPerHour="30.536375573924822" departLane="free"/>
  <flow id="JF206059" begin="180" fromJunction="J5" toJunction="J7" end="240" vehsPerHour="13.19352674760207" departLane="free"/>
  <flow id="JF206060" begin="180" fromJunction="J6" toJunction="J0" end="240" vehsPerHour="17.04874019567201" departLane="free"/>
  <flow id="JF206061" begin="180" fromJunction="J6" toJunction="J3" end="240" vehsPerHour="57.8661324989639" departLane="free"/>
  <flow id="JF206062" begin="180" fromJunction="J6" toJunction="J4" end="240" vehsPerHour="46.71473624294575" departLane="free"/>
  <flow id="JF206063" begin="180" fromJunction="J6" toJunction="J5" end="240" vehsPerHour="21.48311398740928" departLane="free"/>
  <flow id="JF206064" begin="180" fromJunction="J6" toJunction="J7" end="240" vehsPerHour="16.76231730900308" departLane="free"/>
  <flow id="JF206065" begin="180" fromJunction="J7" toJunction="J0" end="240" vehsPerHour="30.162505382845875" departLane="free"/>
  <flow id="JF206066" begin="180" fromJunction="J7" toJunction="J3" end="240" vehsPerHour="66.5535716670566" departLane="free"/>
  <flow id="JF206067" begin="180" fromJunction="J7" toJunction="J4" end="240" vehsPerHour="57.60646193334106" departLane="free"/>
  <flow id="JF206068" begin="180" fromJunction="J7" toJunction="J5" end="240" vehsPerHour="66.49980186864823" departLane="free"/>
  <flow id="JF206069" begin="180" fromJunction="J7" toJunction="J6" end="240" vehsPerHour="0.9872166466315601" departLane="free"/>
  <flow id="JF206070" begin="240" fromJunction="J0" toJunction="J4" end="300" vehsPerHour="85.10450305729056" departLane="free"/>
  <flow id="JF206071" begin="240" fromJunction="J0" toJunction="J5" end="300" vehsPerHour="136.542118266024" departLane="free"/>
  <flow id="JF206072" begin="240" fromJunction="J0" toJunction="J6" end="300" vehsPerHour="7.432558372659567" departLane="free"/>
  <flow id="JF206073" begin="240" fromJunction="J0" toJunction="J7" end="300" vehsPerHour="93.56079169818817" departLane="free"/>
  <flow id="JF206074" begin="240" fromJunction="J3" toJunction="J4" end="300" vehsPerHour="6.235731022295186" departLane="free"/>
  <flow id="JF206075" begin="240" fromJunction="J3" toJunction="J5" end="300" vehsPerHour="14.048298581207945" departLane="free"/>
  <flow id="JF206076" begin="240" fromJunction="J3" toJunction="J6" end="300" vehsPerHour="27.809536728606922" departLane="free"/>
  <flow id="JF206077" begin="240" fromJunction="J4" toJunction="J5" end="300" vehsPerHour="6.074175239307798" departLane="free"/>
  <flow id="JF206078" begin="240" fromJunction="J4" toJunction="J6" end="300" vehsPerHour="0.5387953805493625" departLane="free"/>
  <flow id="JF206079" begin="240" fromJunction="J5" toJunction="J0" end="300" vehsPerHour="46.99832874536907" departLane="free"/>
  <flow id="JF206080" begin="240" fromJunction="J5" toJunction="J7" end="300" vehsPerHour="63.593513489426414" departLane="free"/>
  <flow id="JF206081" begin="240" fromJunction="J6" toJunction="J0" end="300" vehsPerHour="33.057291585398865" departLane="free"/>
  <flow id="JF206082" begin="240" fromJunction="J6" toJunction="J3" end="300" vehsPerHour="18.540860155268533" departLane="free"/>
  <flow id="JF206083" begin="240" fromJunction="J6" toJunction="J5" end="300" vehsPerHour="26.153966932530746" departLane="free"/>
  <flow id="JF206084" begin="240" fromJunction="J7" toJunction="J0" end="300" vehsPerHour="42.767998351550276" departLane="free"/>
  <flow id="JF206085" begin="240" fromJunction="J7" toJunction="J4" end="300" vehsPerHour="23.019867199100847" departLane="free"/>
  <flow id="JF206086" begin="240" fromJunction="J7" toJunction="J5" end="300" vehsPerHour="60.636234075572176" departLane="free"/>
  <flow id="JF206087" begin="240" fromJunction="J7" toJunction="J6" end="300" vehsPerHour="3.428769646372156" departLane="free"/>
  <flow id="JF206088" begin="300" fromJunction="J0" toJunction="J3" end="360" vehsPerHour="87.26367146086565" departLane="free"/>
  <flow id="JF206089" begin="300" fromJunction="J0" toJunction="J5" end="360" vehsPerHour="4.377568259330228" departLane="free"/>
  <flow id="JF206090" begin="300" fromJunction="J0" toJunction="J6" end="360" vehsPerHour="7.764653002978207" departLane="free"/>
  <flow id="JF206091" begin="300" fromJunction="J0" toJunction="J7" end="360" vehsPerHour="41.70663192202408" departLane="free"/>
  <flow id="JF206092" begin="300" fromJunction="J3" toJunction="J0" end="360" vehsPerHour="13.373281169865905" departLane="free"/>
  <flow id="JF206093" begin="300" fromJunction="J3" toJunction="J5" end="360" vehsPerHour="1.810989212055805" departLane="free"/>
  <flow id="JF206094" begin="300" fromJunction="J3" toJunction="J6" end="360" vehsPerHour="14.344258708982252" departLane="free"/>
  <flow id="JF206095" begin="300" fromJunction="J3" toJunction="J7" end="360" vehsPerHour="34.46836254513167" departLane="free"/>
  <flow id="JF206096" begin="300" fromJunction="J4" toJunction="J0" end="360" vehsPerHour="40.55201893891142" departLane="free"/>
  <flow id="JF206097" begin="300" fromJunction="J4" toJunction="J6" end="360" vehsPerHour="21.952278448001312" departLane="free"/>
  <flow id="JF206098" begin="300" fromJunction="J4" toJunction="J7" end="360" vehsPerHour="25.211704138061386" departLane="free"/>
  <flow id="JF206099" begin="300" fromJunction="J5" toJunction="J0" end="360" vehsPerHour="41.96326249466345" departLane="free"/>
  <flow id="JF206100" begin="300" fromJunction="J5" toJunction="J3" end="360" vehsPerHour="19.43558066798978" departLane="free"/>
  <flow id="JF206101" begin="300" fromJunction="J5" toJunction="J6" end="360" vehsPerHour="41.660281749846206" departLane="free"/>
  <flow id="JF206102" begin="300" fromJunction="J6" toJunction="J0" end="360" vehsPerHour="18.358673601926075" departLane="free"/>
  <flow id="JF206103" begin="300" fromJunction="J6" toJunction="J3" end="360" vehsPerHour="8.002215077390524" departLane="free"/>
  <flow id="JF206104" begin="300" fromJunction="J6" toJunction="J4" end="360" vehsPerHour="11.012554762538956" departLane="free"/>
  <flow id="JF206105" begin="300" fromJunction="J6" toJunction="J5" end="360" vehsPerHour="54.09234762052874" departLane="free"/>
  <flow id="JF206106" begin="300" fromJunction="J6" toJunction="J7" end="360" vehsPerHour="2.853216118579454" departLane="free"/>
  <flow id="JF206107" begin="300" fromJunction="J7" toJunction="J0" end="360" vehsPerHour="51.45348705893921" departLane="free"/>
  <flow id="JF206108" begin="300" fromJunction="J7" toJunction="J3" end="360" vehsPerHour="53.096690313121336" departLane="free"/>
  <flow id="JF206109" begin="300" fromJunction="J7" toJunction="J5" end="360" vehsPerHour="63.15767453051378" departLane="free"/>
  <flow id="JF206110" begin="360" fromJunction="J0" toJunction="J6" end="420" vehsPerHour="50.114894660448094" departLane="free"/>
  <flow id="JF206111" begin="360" fromJunction="J0" toJunction="J7" end="420" vehsPerHour="114.26799261149114" departLane="free"/>
  <flow id="JF206112" begin="360" fromJunction="J3" toJunction="J4" end="420" vehsPerHour="62.18138676578573" departLane="free"/>
  <flow id="JF206113" begin="360" fromJunction="J3" toJunction="J5" end="420" vehsPerHour="85.77152902302876" departLane="free"/>
  <flow id="JF206114" begin="360" fromJunction="J4" toJunction="J0" end="420" vehsPerHour="8.557638925394153" departLane="free"/>
  <flow id="JF206115" begin="360" fromJunction="J4" toJunction="J6" end="420" vehsPerHour="64.42434471193589" departLane="free"/>
  <flow id="JF206116" begin="360" fromJunction="J4" toJunction="J7" end="420" vehsPerHour="20.2902163432282" departLane="free"/>
  <flow id="JF206117" begin="360" fromJunction="J5" toJunction="J0" end="420" vehsPerHour="17.247478617116993" departLane="free"/>
  <flow id="JF206118" begin="360" fromJunction="J5" toJunction="J3" end="420" vehsPerHour="16.452312467890458" departLane="free"/>
  <flow id="JF206119" begin="360" fromJunction="J5" toJunction="J4" end="420" vehsPerHour="28.11796538707391" departLane="free"/>
  <flow id="JF206120" begin="360" fromJunction="J5" toJunction="J6" end="420" vehsPerHour="5.821864912790177" departLane="free"/>
  <flow id="JF206121" begin="360" fromJunction="J6" toJunction="J4" end="420" vehsPerHour="32.059034852205656" departLane="free"/>
  <flow id="JF206122" begin="360" fromJunction="J6" toJunction="J5" end="420" vehsPerHour="42.97804559981" departLane="free"/>
  <flow id="JF206123" begin="360" fromJunction="J7" toJunction="J0" end="420" vehsPerHour="18.778094045731397" departLane="free"/>
  <flow id="JF206124" begin="360" fromJunction="J7" toJunction="J3" end="420" vehsPerHour="25.124047278977308" departLane="free"/>
  <flow id="JF206125" begin="360" fromJunction="J7" toJunction="J6" end="420" vehsPerHour="67.61343365593271" departLane="free"/>
  <flow id="JF206126" begin="420" fromJunction="J0" toJunction="J4" end="480" vehsPerHour="68.82866548726678" departLane="free"/>
  <flow id="JF206127" begin="420" fromJunction="J0" toJunction="J5" end="480" vehsPerHour="119.18896749015518" departLane="free"/>
  <flow id="JF206128" begin="420" fromJunction="J0" toJunction="J6" end="480" vehsPerHour="131.31558738878567" departLane="free"/>
  <flow id="JF206129" begin="420" fromJunction="J0" toJunction="J7" end="480" vehsPerHour="77.59147014570596" departLane="free"/>
  <flow id="JF206130" begin="420" fromJunction="J3" toJunction="J0" end="480" vehsPerHour="95.6317680500596" departLane="free"/>
  <flow id="JF206131" begin="420" fromJunction="J3" toJunction="J4" end="480" vehsPerHour="50.244405214205536" departLane="free"/>
  <flow id="JF206132" begin="420" fromJunction="J3" toJunction="J5" end="480" vehsPerHour="115.44382568703725" departLane="free"/>
  <flow id="JF206133" begin="420" fromJunction="J3" toJunction="J6" end="480" vehsPerHour="22.993135565867778" departLane="free"/>
  <flow id="JF206134" begin="420" fromJunction="J4" toJunction="J6" end="480" vehsPerHour="30.937504517676842" departLane="free"/>
  <flow id="JF206135" begin="420" fromJunction="J4" toJunction="J7" end="480" vehsPerHour="4.471051978420147" departLane="free"/>
  <flow id="JF206136" begin="420" fromJunction="J5" toJunction="J6" end="480" vehsPerHour="7.852937659685714" departLane="free"/>
  <flow id="JF206137" begin="420" fromJunction="J5" toJunction="J7" end="480" vehsPerHour="9.431763643112564" departLane="free"/>
  <flow id="JF206138" begin="420" fromJunction="J6" toJunction="J0" end="480" vehsPerHour="37.64418675640104" departLane="free"/>
  <flow id="JF206139" begin="420" fromJunction="J6" toJunction="J3" end="480" vehsPerHour="57.47870393067083" departLane="free"/>
  <flow id="JF206140" begin="420" fromJunction="J6" toJunction="J5" end="480" vehsPerHour="1.9165298889848261" departLane="free"/>
  <flow id="JF206141" begin="420" fromJunction="J6" toJunction="J7" end="480" vehsPerHour="40.206407020107925" departLane="free"/>
  <flow id="JF206142" begin="420" fromJunction="J7" toJunction="J0" end="480" vehsPerHour="9.22462485416802" departLane="free"/>
  <flow id="JF206143" begin="420" fromJunction="J7" toJunction="J5" end="480" vehsPerHour="8.534810130319995" departLane="free"/>
  <flow id="JF206144" begin="420" fromJunction="J7" toJunction="J6" end="480" vehsPerHour="31.985902054398576" departLane="free"/>
  <flow id="JF206145" begin="480" fromJunction="J0" toJunction="J4" end="540" vehsPerHour="34.76983821813473" departLane="free"/>
  <flow id="JF206146" begin="480" fromJunction="J0" toJunction="J5" end="540" vehsPerHour="27.581676486197402" departLane="free"/>
  <flow id="JF206147" begin="480" fromJunction="J0" toJunction="J6" end="540" vehsPerHour="3.682437532126608" departLane="free"/>
  <flow id="JF206148" begin="480" fromJunction="J0" toJunction="J7" end="540" vehsPerHour="103.53928348784967" departLane="free"/>
  <flow id="JF206149" begin="480" fromJunction="J3" toJunction="J0" end="540" vehsPerHour="34.460450796420176" departLane="free"/>
  <flow id="JF206150" begin="480" fromJunction="J3" toJunction="J4" end="540" vehsPerHour="3.59180448005354" departLane="free"/>
  <flow id="JF206151" begin="480" fromJunction="J3" toJunction="J5" end="540" vehsPerHour="35.12674451062293" departLane="free"/>
  <flow id="JF206152" begin="480" fromJunction="J4" toJunction="J0" end="540" vehsPerHour="21.197902550446564" departLane="free"/>
  <flow id="JF206153" begin="480" fromJunction="J4" toJunction="J5" end="540" vehsPerHour="5.206754813588275" departLane="free"/>
  <flow id="JF206154" begin="480" fromJunction="J5" toJunction="J4" end="540" vehsPerHour="9.920317953011761" departLane="free"/>
  <flow id="JF206155" begin="480" fromJunction="J5" toJunction="J6" end="540" vehsPerHour="49.89871710605542" departLane="free"/>
  <flow id="JF206156" begin="480" fromJunction="J5" toJunction="J7" end="540" vehsPerHour="15.730182151194617" departLane="free"/>
  <flow id="JF206157" begin="480" fromJunction="J6" toJunction="J0" end="540" vehsPerHour="11.322385352252411" departLane="free"/>
  <flow id="JF206158" begin="480" fromJunction="J6" toJunction="J3" end="540" vehsPerHour="28.280559160258807" departLane="free"/>
  <flow id="JF206159" begin="480" fromJunction="J6" toJunction="J4" end="540" vehsPerHour="66.31899528596853" departLane="free"/>
  <flow id="JF206160" begin="480" fromJunction="J6" toJunction="J5" end="540" vehsPerHour="42.19853803030947" departLane="free"/>
  <flow id="JF206161" begin="480" fromJunction="J6" toJunction="J7" end="540" vehsPerHour="60.02549241361237" departLane="free"/>
  <flow id="JF206162" begin="480" fromJunction="J7" toJunction="J0" end="540" vehsPerHour="59.71597344934958" departLane="free"/>
  <flow id="JF206163" begin="480" fromJunction="J7" toJunction="J4" end="540" vehsPerHour="49.6606725904778" departLane="free"/>
  <flow id="JF206164" begin="480" fromJunction="J7" toJunction="J5" end="540" vehsPerHour="60.191004989743405" departLane="free"/>
  <flow id="JF206165" begin="540" fromJunction="J0" toJunction="J4" end="600" vehsPerHour="135.87406689098023" departLane="free"/>
  <flow id="JF206166" begin="540" fromJunction="J0" toJunction="J7" end="600" vehsPerHour="26.608546218206858" departLane="free"/>
  <flow id="JF206167" begin="540" fromJunction="J3" toJunction="J0" end="600" vehsPerHour="42.90743033229285" departLane="free"/>
  <flow id="JF206168" begin="540" fromJunction="J3" toJunction="J4" end="600" vehsPerHour="114.11982981273994" departLane="free"/>
  <flow id="JF206169" begin="540" fromJunction="J4" toJunction="J0" end="600" vehsPerHour="56.27392319921537" departLane="free"/>
  <flow id="JF206170" begin="540" fromJunction="J4" toJunction="J3" end="600" vehsPerHour="6.264898260079423" departLane="free"/>
  <flow id="JF206171" begin="540" fromJunction="J5" toJunction="J0" end="600" vehsPerHour="63.85877332024879" departLane="free"/>
  <flow id="JF206172" begin="540" fromJunction="J5" toJunction="J3" end="600" vehsPerHour="49.2805875876766" departLane="free"/>
  <flow id="JF206173" begin="540" fromJunction="J5" toJunction="J4" end="600" vehsPerHour="9.519827571690117" departLane="free"/>
  <flow id="JF206174" begin="540" fromJunction="J5" toJunction="J6" end="600" vehsPerHour="8.559582784666611" departLane="free"/>
  <flow id="JF206175" begin="540" fromJunction="J6" toJunction="J0" end="600" vehsPerHour="1.9457180696653142" departLane="free"/>
  <flow id="JF206176" begin="540" fromJunction="J6" toJunction="J5" end="600" vehsPerHour="11.403349492148894" departLane="free"/>
  <flow id="JF206177" begin="540" fromJunction="J6" toJunction="J7" end="600" vehsPerHour="12.22120475893045" departLane="free"/>
  <flow id="JF206178" begin="540" fromJunction="J7" toJunction="J5" end="600" vehsPerHour="48.875535250053375" departLane="free"/>
  <flow id="JF206179" begin="540" fromJunction="J7" toJunction="J6" end="600" vehsPerHour="35.75908526439934" departLane="free"/>
  <flow id="JF206180" begin="600" fromJunction="J0" toJunction="J3" end="660" vehsPerHour="34.261897740521626" departLane="free"/>
  <flow id="JF206181" begin="600" fromJunction="J0" toJunction="J4" end="660" vehsPerHour="49.06647964590975" departLane="free"/>
  <flow id="JF206182" begin="600" fromJunction="J0" toJunction="J5" end="660" vehsPerHour="38.64894079528293" departLane="free"/>
  <flow id="JF206183" begin="600" fromJunction="J0" toJunction="J6" end="660" vehsPerHour="26.707116702117464" departLane="free"/>
  <flow id="JF206184" begin="600" fromJunction="J0" toJunction="J7" end="660" vehsPerHour="31.923961505134375" departLane="free"/>
  <flow id="JF206185" begin="600" fromJunction="J3" toJunction="J0" end="660" vehsPerHour="72.10138734065515" departLane="free"/>
  <flow id="JF206186" begin="600" fromJunction="J3" toJunction="J4" end="660" vehsPerHour="12.224552286344617" departLane="free"/>
  <flow id="JF206187" begin="600" fromJunction="J3" toJunction="J5" end="660" vehsPerHour="44.31739647183062" departLane="free"/>
  <flow id="JF206188" begin="600" fromJunction="J3" toJunction="J6" end="660" vehsPerHour="37.847457842569845" departLane="free"/>
  <flow id="JF206189" begin="600" fromJunction="J4" toJunction="J5" end="660" vehsPerHour="6.732309109201852" departLane="free"/>
  <flow id="JF206190" begin="600" fromJunction="J4" toJunction="J6" end="660" vehsPerHour="2.9409648302879035" departLane="free"/>
  <flow id="JF206191" begin="600" fromJunction="J4" toJunction="J7" end="660" vehsPerHour="48.231775553751575" departLane="free"/>
  <flow id="JF206192" begin="600" fromJunction="J5" toJunction="J0" end="660" vehsPerHour="6.89628265838017" departLane="free"/>
  <flow id="JF206193" begin="600" fromJunction="J5" toJunction="J3" end="660" vehsPerHour="5.460856978597194" departLane="free"/>
  <flow id="JF206194" begin="600" fromJunction="J5" toJunction="J6" end="660" vehsPerHour="62.7826005684243" departLane="free"/>
  <flow id="JF206195" begin="600" fromJunction="J6" toJunction="J0" end="660" vehsPerHour="26.18760056971843" departLane="free"/>
  <flow id="JF206196" begin="600" fromJunction="J6" toJunction="J3" end="660" vehsPerHour="43.21860396485738" departLane="free"/>
  <flow id="JF206197" begin="600" fromJunction="J6" toJunction="J4" end="660" vehsPerHour="0.32237156789203114" departLane="free"/>
  <flow id="JF206198" begin="600" fromJunction="J6" toJunction="J5" end="660" vehsPerHour="40.17335629580974" departLane="free"/>
  <flow id="JF206199" begin="600" fromJunction="J6" toJunction="J7" end="660" vehsPerHour="48.53373376687002" departLane="free"/>
  <flow id="JF206200" begin="600" fromJunction="J7" toJunction="J5" end="660" vehsPerHour="7.038569213647424" departLane="free"/>
  <flow id="JF206201" begin="600" fromJunction="J7" toJunction="J6" end="660" vehsPerHour="2.4264111037102873" departLane="free"/>
  <flow id="JF206202" begin="660" fromJunction="J0" toJunction="J3" end="720" vehsPerHour="86.71684886238302" departLane="free"/>
  <flow id="JF206203" begin="660" fromJunction="J0" toJunction="J7" end="720" vehsPerHour="87.49218802888818" departLane="free"/>
  <flow id="JF206204" begin="660" fromJunction="J3" toJunction="J5" end="720" vehsPerHour="124.777964689819" departLane="free"/>
  <flow id="JF206205" begin="660" fromJunction="J3" toJunction="J7" end="720" vehsPerHour="7.9924464849633585" departLane="free"/>
  <flow id="JF206206" begin="660" fromJunction="J4" toJunction="J0" end="720" vehsPerHour="28.96137856671179" departLane="free"/>
  <flow id="JF206207" begin="660" fromJunction="J4" toJunction="J3" end="720" vehsPerHour="19.03105843091152" departLane="free"/>
  <flow id="JF206208" begin="660" fromJunction="J4" toJunction="J5" end="720" vehsPerHour="0.703180231642376" departLane="free"/>
  <flow id="JF206209" begin="660" fromJunction="J4" toJunction="J6" end="720" vehsPerHour="21.282207201975474" departLane="free"/>
  <flow id="JF206210" begin="660" fromJunction="J4" toJunction="J7" end="720" vehsPerHour="21.117520148430298" departLane="free"/>