<?xml version="1.0" encoding="UTF-8"?>
<routes xmlns:xsi="http://www.w3.org/2001/XMLSchema-instance" xsi:noNamespaceSchemaLocation="http://sumo.dlr.de/xsd/routes_file.xsd">
  <flow id="JF207741" begin="0" fromJunction="J0" toJunction="J3" end="60" vehsPerHour="110.48164550235404" departLane="free"/>
  <flow id="JF207742" begin="0" fromJunction="J0" toJunction="J4" end="60" vehsPerHour="45.99017244559434" departLane="free"/>
  <flow id="JF207743" begin="0" fromJunction="J0" toJunction="J5" end="60" vehsPerHour="104.68447355348837" departLane="free"/>
  <flow id="JF207744" begin="0" fromJunction="J0" toJunction="J7" end="60" vehsPerHour="132.1795511838051" departLane="free"/>
  <flow id="JF207745" begin="0" fromJunction="J3" toJunction="J0" end="60" vehsPerHour="40.897252132363754" departLane="free"/>
  <flow id="JF207746" begin="0" fromJunction="J3" toJunction="J4" end="60" vehsPerHour="41.94275237635907" departLane="free"/>
  <flow id="JF207747" begin="0" fromJunction="J3" toJunction="J6" end="60" vehsPerHour="72.63522144393997" departLane="free"/>
  <flow id="JF207748" begin="0" fromJunction="J4" toJunction="J0" end="60" vehsPerHour="55.39117408689742" departLane="free"/>
  <flow id="JF207749" begin="0" fromJunction="J4" toJunction="J3" end="60" vehsPerHour="45.471571294013025" departLane="free"/>
  <flow id="JF207750" begin="0" fromJunction="J4" toJunction="J7" end="60" vehsPerHour="49.84231774911781" departLane="free"/>
  <flow id="JF207751" begin="0" fromJunction="J5" toJunction="J4" end="60" vehsPerHour="12.752163061688021" departLane="free"/>
  <flow id="JF207752" begin="0" fromJunction="J6" toJunction="J0" end="60" vehsPerHour="68.05301346618086" departLane="free"/>
  <flow id="JF207753" begin="0" fromJunction="J6" toJunction="J5" end="60" vehsPerHour="59.537751968642056" departLane="free"/>
  <flow id="JF207754" begin="0" fromJunction="J6" toJunction="J7" end="60" vehsPerHour="36.48589174262782" departLane="free"/>
  <flow id="JF207755" begin="0" fromJunction="J7" toJunction="J0" end="60" vehsPerHour="44.473246868105186" departLane="free"/>
  <flow id="JF207756" begin="0" fromJunction="J7" toJunction="J3" end="60" vehsPerHour="61.04343435480174" departLane="free"/>
  <flow id="JF207757" begin="0" fromJunction="J7" toJunction="J4" end="60" vehsPerHour="23.225437108677944" departLane="free"/>
  <flow id="JF207758" begin="0" fromJunction="J7" toJunction="J5" end="60" vehsPerHour="35.83625112788422" departLane="free"/>
  <flow id="JF207759" begin="0" fromJunction="J7" toJunction="J6" end="60" vehsPerHour="17.790794637792526" departLane="free"/>
  <flow id="JF207760" begin="60" fromJunction="J0" toJunction="J4" end="120" vehsPerHour="47.27906721024294" departLane="free"/>
  <flow id="JF207761" begin="60" fromJunction="J0" toJunction="J5" end="120" vehsPerHour="17.926026212195932" departLane="free"/>
  <flow id="JF207762" begin="60" fromJunction="J3" toJunction="J4" end="120" vehsPerHour="58.53903113529852" departLane="free"/>
  <flow id="JF207763" begin="60" fromJunction="J3" toJunction="J5" end="120" vehsPerHour="26.967451526069024" departLane="free"/>
  <flow id="JF207764" begin="60" fromJunction="J3" toJunction="J6" end="120" vehsPerHour="122.13027775215498" departLane="free"/>
  <flow id="JF207765" begin="60" fromJunction="J3" toJunction="J7" end="120" vehsPerHour="49.621304642676904" departLane="free"/>
  <flow id="JF207766" begin="60" fromJunction="J4" toJunction="J0" end="120" vehsPerHour="31.192610009280333" departLane="free"/>
  <flow id="JF207767" begin="60" fromJunction="J4" toJunction="J3" end="120" vehsPerHour="22.676922416090033" departLane="free"/>
  <flow id="JF207768" begin="60" fromJunction="J4" toJunction="J5" end="120" vehsPerHour="15.26749323668061" departLane="free"/>
  <flow id="JF207769" begin="60" fromJunction="J4" toJunction="J6" end="120" vehsPerHour="55.360394437125436" departLane="free"/>
  <flow id="JF207770" begin="60" fromJunction="J4" toJunction="J7" end="120" vehsPerHour="14.533826922541245" departLane="free"/>
  <flow id="JF207771" begin="60" fromJunction="J5" toJunction="J0" end="120" vehsPerHour="19.01223458571535" departLane="free"/>
  <flow id="JF207772" begin="60" fromJunction="J5" toJunction="J3" end="120" vehsPerHour="30.077399773607006" departLane="free"/>
  <flow id="JF207773" begin="60" fromJunction="J5" toJunction="J4" end="120" vehsPerHour="56.792780673680284" departLane="free"/>
  <flow id="JF207774" begin="60" fromJunction="J5" toJunction="J6" end="120" vehsPerHour="25.166425107001867" departLane="free"/>
  <flow id="JF207775" begin="60" fromJunction="J6" toJunction="J0" end="120" vehsPerHour="20.14908756833802" departLane="free"/>
  <flow id="JF207776" begin="60" fromJunction="J6" toJunction="J3" end="120" vehsPerHour="15.0818161509919" departLane="free"/>
  <flow id="JF207777" begin="60" fromJunction="J6" toJunction="J7" end="120" vehsPerHour="11.456533491991841" departLane="free"/>
  <flow id="JF207778" begin="60" fromJunction="J7" toJunction="J0" end="120" vehsPerHour="48.369363154947315" departLane="free"/>
  <flow id="JF207779" begin="60" fromJunction="J7" toJunction="J6" end="120" vehsPerHour="41.53148126059147" departLane="free"/>
  <flow id="JF207780" begin="120" fromJunction="J0" toJunction="J3" end="180" vehsPerHour="60.91362378693358" departLane="free"/>
  <flow id="JF207781" begin="120" fromJunction="J0" toJunction="J4" end="180" vehsPerHour="45.42019893508225" departLane="free"/>
  <flow id="JF207782" begin="120" fromJunction="J0" toJunction="J5" end="180" vehsPerHour="27.245937908923214" departLane="free"/>
  <flow id="JF207783" begin="120" fromJunction="J0" toJunction="J6" end="180" vehsPerHour="49.29075569181247" departLane="free"/>
  <flow id="JF207784" begin="120" fromJunction="J0" toJunction="J7" end="180" vehsPerHour="24.791794205022928" departLane="free"/>
  <flow id="JF207785" begin="120" fromJunction="J3" toJunction="J0" end="180" vehsPerHour="4.885815020204253" departLane="free"/>
  <flow id="JF207786" begin="120" fromJunction="J3" toJunction="J5" end="180" vehsPerHour="32.79003726100831" departLane="free"/>
  <flow id="JF207787" begin="120" fromJunction="J3" toJunction="J6" end="180" vehsPerHour="70.95553435976721" departLane="free"/>
  <flow id="JF207788" begin="120" fromJunction="J4" toJunction="J0" end="180" vehsPerHour="67.85447458387488" departLane="free"/>
  <flow id="JF207789" begin="120" fromJunction="J4" toJunction="J3" end="180" vehsPerHour="66.56509420585975" departLane="free"/>
  <flow id="JF207790" begin="120" fromJunction="J4" toJunction="J5" end="180" vehsPerHour="60.37075167664336" departLane="free"/>
  <flow id="JF207791" begin="120" fromJunction="J4" toJunction="J6" end="180" vehsPerHour="67.04097187256079" departLane="free"/>
  <flow id="JF207792" begin="120" fromJunction="J4" toJunction="J7" end="180" vehsPerHour="66.94440602225667" departLane="free"/>
  <flow id="JF207793" begin="120" fromJunction="J5" toJunction="J0" end="180" vehsPerHour="38.032063436722936" departLane="free"/>
  <flow id="JF207794" begin="120" fromJunction="J5" toJunction="J3" end="180" vehsPerHour="65.87019224788068" departLane="free"/>
  <flow id="JF207795" begin="120" fromJunction="J5" toJunction="J4" end="180" vehsPerHour="67.45181144247289" departLane="free"/>
  <flow id="JF207796" begin="120" fromJunction="J5" toJunction="J6" end="180" vehsPerHour="0.5236627760501416" departLane="free"/>
  <flow id="JF207797" begin="120" fromJunction="J6" toJunction="J4" end="180" vehsPerHour="54.91202391876005" departLane="free"/>
  <flow id="JF207798" begin="120" fromJunction="J6" toJunction="J5" end="180" vehsPerHour="4.682465075940164" departLane="free"/>
  <flow id="JF207799" begin="120" fromJunction="J7" toJunction="J0" end="180" vehsPerHour="66.83492072138813" departLane="free"/>
  <flow id="JF207800" begin="120" fromJunction="J7" toJunction="J3" end="180" vehsPerHour="55.40023906908638" departLane="free"/>
  <flow id="JF207801" begin="120" fromJunction="J7" toJunction="J4" end="180" vehsPerHour="65.24509836570955" departLane="free"/>
  <flow id="JF207802" begin="120" fromJunction="J7" toJunction="J5" end="180" vehsPerHour="21.966232643069713" departLane="free"/>
  <flow id="JF207803" begin="120" fromJunction="J7" toJunction="J6" end="180" vehsPerHour="39.2635928573762" departLane="free"/>
  <flow id="JF207804" begin="180" fromJunction="J0" toJunction="J6" end="240" vehsPerHour="23.83728414929103" departLane="free"/>
  <flow id="JF207805" begin="180" fromJunction="J0" toJunction="J7" end="240" vehsPerHour="130.1833949448782" departLane="free"/>
  <flow id="JF207806" begin="180" fromJunction="J3" toJunction="J0" end="240" vehsPerHour="106.07004662045203" departLane="free"/>
  <flow id="JF207807" begin="180" fromJunction="J3" toJunction="J5" end="240" vehsPerHour="15.053645621954537" departLane="free"/>
  <flow id="JF207808" begin="180" fromJunction="J3" toJunction="J7" end="240" vehsPerHour="58.7165368012496" departLane="free"/>
  <flow id="JF207809" begin="180" fromJunction="J4" toJunction="J3" end="240" vehsPerHour="46.854652462501996" departLane="free"/>
  <flow id="JF207810" begin="180" fromJunction="J4" toJunction="J5" end="240" vehsPerHour="49.8919704653218" departLane="free"/>
  <flow id="JF207811" begin="180" fromJunction="J4" toJunction="J6" end="240" vehsPerHour="15.93888278795094" departLane="free"/>
  <flow id="JF207812" begin="180" fromJunction="J4" toJunction="J7" end="240" vehsPerHour="43.12121802957405" departLane="free"/>
  <flow id="JF207813" begin="180" fromJunction="J5" toJunction="J0" end="240" vehsPerHour="12.451389649868347" departLane="free"/>
  <flow id="JF207814" begin="180" fromJunction="J5" toJunction="J3" end="240" vehsPerHour="6.241452957808397" departLane="free"/>
  <flow id="JF207815" begin="180" fromJunction="J5" toJunction="J4" end="240" vehsPerHour="17.57334074944202" departLane="free"/>
  <flow id="JF207816" begin="180" fromJunction="J6" toJunction="J0" end="240" vehsPerHour="45.413263758606384" departLane="free"/>
  <flow id="JF207817" begin="180" fromJunction="J6" toJunction="J4" end="240" vehsPerHour="29.67864386201794" departLane="free"/>
  <flow id="JF207818" begin="180" fromJunction="J6" toJunction="J5" end="240" vehsPerHour="6.4623444412912985" departLane="free"/>
  <flow id="JF207819" begin="180" fromJunction="J7" toJunction="J0" end="240" vehsPerHour="9.627149723648627" departLane="free"/>
  <flow id="JF207820" begin="180" fromJunction="J7" toJunction="J4" end="240" vehsPerHour="35.08194488081186" departLane="free"/>
  <flow id="JF207821" begin="180" fromJunction="J7" toJunction="J5" end="240" vehsPerHour="32.83705554848422" departLane="free"/>
  <flow id="JF207822" begin="240" fromJunction="J0" toJunction="J3" end="300" vehsPerHour="43.9669693303802" departLane="free"/>
  <flow id="JF207823" begin="240" fromJunction="J0" toJunction="J4" end="300" vehsPerHour="6.042075536978845" departLane="free"/>
  <flow id="JF207824" begin="240" fromJunction="J0" toJunction="J6" end="300" vehsPerHour="61.67361219554794" departLane="free"/>
  <flow id="JF207825" begin="240" fromJunction="J3" toJunction="J4" end="300" vehsPerHour="29.852829439899487" departLane="free"/>
  <flow id="JF207826" begin="240" fromJunction="J3" toJunction="J5" end="300" vehsPerHour="90.6029348184819" departLane="free"/>
  <flow id="JF207827" begin="240" fromJunction="J4" toJunction="J0" end="300" vehsPerHour="61.08734834034228" departLane="free"/>
  <flow id="JF207828" begin="240" fromJunction="J4" toJunction="J3" end="300" vehsPerHour="62.84678476112438" departLane="free"/>
  <flow id="JF207829" begin="240" fromJunction="J4" toJunction="J5" end="300" vehsPerHour="10.4931995250389" departLane="free"/>
  <flow id="JF207830" begin="240" fromJunction="J4" toJunction="J6" end="300" vehsPerHour="19.617191628351346" departLane="free"/>
  <flow id="JF207831" begin="240" fromJunction="J4" toJunction="J7" end="300" vehsPerHour="63.02396515732288" departLane="free"/>
  <flow id="JF207832" begin="240" fromJunction="J5" toJunction="J0" end="300" vehsPerHour="23.837096849495612" departLane="free"/>
  <flow id="JF207833" begin="240" fromJunction="J5" toJunction="J3" end="300" vehsPerHour="24.252721723783118" departLane="free"/>
  <flow id="JF207834" begin="240" fromJunction="J5" toJunction="J4" end="300" vehsPerHour="35.9727705490383" departLane="free"/>
  <flow id="JF207835" begin="240" fromJunction="J5" toJunction="J6" end="300" vehsPerHour="22.123165223384653" departLane="free"/>
  <flow id="JF207836" begin="240" fromJunction="J6" toJunction="J0" end="300" vehsPerHour="9.290077110628253" departLane="free"/>
  <flow id="JF207837" begin="240" fromJunction="J6" toJunction="J3" end="300" vehsPerHour="24.91982001974294" departLane="free"/>
  <flow id="JF207838" begin="240" fromJunction="J6" toJunction="J4" end="300" vehsPerHour="34.0837950392327" departLane="free"/>
  <flow id="JF207839" begin="240" fromJunction="J6" toJunction="J5" end="300" vehsPerHour="13.791413903473325" departLane="free"/>
  <flow id="JF207840" begin="240" fromJunction="J6" toJunction="J7" end="300" vehsPerHour="64.42155393190555" departLane="free"/>
  <flow id="JF207841" begin="240" fromJunction="J7" toJunction="J0" end="300" vehsPerHour="12.693686753941924" departLane="free"/>
  <flow id="JF207842" begin="240" fromJunction="J7" toJunction="J4" end="300" vehsPerHour="53.603347112810816" departLane="free"/>
  <flow id="JF207843" begin="240" fromJunction="J7" toJunction="J5" end="300" vehsPerHour="18.817781657692265" departLane="free"/>
  <flow id="JF207844" begin="240" fromJunction="J7" toJunction="J6" end="300" vehsPerHour="32.320471240965595" departLane="free"/>
  <flow id="JF207845" begin="300" fromJunction="J0" toJunction="J3" end="360" vehsPerHour="104.19083956986805" departLane="free"/>
  <flow id="JF207846" begin="300" fromJunction="J0" toJunction="J4" end="360" vehsPerHour="104.04529542473885" departLane="free"/>
  <flow id="JF207847" begin="300" fromJunction="J0" toJunction="J6" end="360" vehsPerHour="54.94704528442599" departLane="free"/>
  <flow id="JF207848" begin="300" fromJunction="J0" toJunction="J7" end="360" vehsPerHour="69.74242690790643" departLane="free"/>
  <flow id="JF207849" begin="300" fromJunction="J3" toJunction="J5" end="360" vehsPerHour="128.19047471115832" departLane="free"/>
  <flow id="JF207850" begin="300" fromJunction="J4" toJunction="J0" end="360" vehsPerHour="7.682610314467738" departLane="free"/>
  <flow id="JF207851" begin="300" fromJunction="J4" toJunction="J3" end="360" vehsPerHour="36.057651034697436" departLane="free"/>
  <flow id="JF207852" begin="300" fromJunction="J4" toJunction="J5" end="360" vehsPerHour="57.61013229195107" departLane="free"/>
  <flow id="JF207853" begin="300" fromJunction="J4" toJunction="J6" end="360" vehsPerHour="56.279669962254516" departLane="free"/>
  <flow id="JF207854" begin="300" fromJunction="J5" toJunction="J4" end="360" vehsPerHour="55.244680497115816" departLane="free"/>
  <flow id="JF207855" begin="300" fromJunction="J5" toJunction="J6" end="360" vehsPerHour="15.704079309770519" departLane="free"/>
  <flow id="JF207856" begin="300" fromJunction="J6" toJunction="J0" end="360" vehsPerHour="49.44032395521745" departLane="free"/>
  <flow id="JF207857" begin="300" fromJunction="J6" toJunction="J3" end="360" vehsPerHour="47.0512460119204" departLane="free"/>
  <flow id="JF207858" begin="300" fromJunction="J6" toJunction="J4" end="360" vehsPerHour="44.12649436513289" departLane="free"/>
  <flow id="JF207859" begin="300" fromJunction="J6" toJunction="J7" end="360" vehsPerHour="20.51454420198514" departLane="free"/>
  <flow id="JF207860" begin="300" fromJunction="J7" toJunction="J4" end="360" vehsPerHour="37.919952483049535" departLane="free"/>
  <flow id="JF207861" begin="300" fromJunction="J7" toJunction="J6" end="360" vehsPerHour="41.34213311667907" departLane="free"/>
  <flow id="JF207862" begin="360" fromJunction="J0" toJunction="J3" end="420" vehsPerHour="41.427630289064" departLane="free"/>
  <flow id="JF207863" begin="360" fromJunction="J0" toJunction="J4" end="420" vehsPerHour="14.210591876734991" departLane="free"/>
  <flow id="JF207864" begin="360" fromJunction="J0" toJunction="J5" end="420" vehsPerHour="19.26452564549088" departLane="free"/>
  <flow id="JF207865" begin="360" fromJunction="J0" toJunction="J6" end="420" vehsPerHour="87.37144475876009" departLane="free"/>
  <flow id="JF207866" begin="360" fromJunction="J0" toJunction="J7" end="420" vehsPerHour="134.82392943170964" departLane="free"/>
  <flow id="JF207867" begin="360" fromJunction="J3" toJunction="J6" end="420" vehsPerHour="21.048709009712454" departLane="free"/>
  <flow id="JF207868" begin="360" fromJunction="J4" toJunction="J0" end="420" vehsPerHour="55.17262721657612" departLane="free"/>
  <flow id="JF207869" begin="360" fromJunction="J4" toJunction="J5" end="420" vehsPerHour="46.977356858480235" departLane="free"/>
  <flow id="JF207870" begin="360" fromJunction="J4" toJunction="J7" end="420" vehsPerHour="56.20647219658949" departLane="free"/>
  <flow id="JF207871" begin="360" fromJunction="J5" toJunction="J3" end="420" vehsPerHour="50.356288979965974" departLane="free"/>
  <flow id="JF207872" begin="360" fromJunction="J5" toJunction="J7" end="420" vehsPerHour="15.03907333716021" departLane="free"/>
  <flow id="JF207873" begin="360" fromJunction="J6" toJunction="J3" end="420" vehsPerHour="46.202825671593516" departLane="free"/>
  <flow id="JF207874" begin="360" fromJunction="J6" toJunction="J5" end="420" vehsPerHour="67.61165455646446" departLane="free"/>
  <flow id="JF207875" begin="360" fromJunction="J6" toJunction="J7" end="420" vehsPerHour="58.38750838264084" departLane="free"/>
  <flow id="JF207876" begin="360" fromJunction="J7" toJunction="J0" end="420" vehsPerHour="58.829813746639964" departLane="free"/>
  <flow id="JF207877" begin="360" fromJunction="J7" toJunction="J3" end="420" vehsPerHour="18.213755201857555" departLane="free"/>
  <flow id="JF207878" begin="360" fromJunction="J7" toJunction="J4" end="420" vehsPerHour="41.14113257816276" departLane="free"/>
  <flow id="JF207879" begin="360" fromJunction="J7" toJunction="J6" end="420" vehsPerHour="40.99956718099049" departLane="free"/>
  <flow id="JF207880" begin="420" fromJunction="J0" toJunction="J4" end="480" vehsPerHour="18.05768244359536" departLane="free"/>
  <flow id="JF207881" begin="420" fromJunction="J0" toJunction="J7" end="480" vehsPerHour="39.718122364190855" departLane="free"/>
  <flow id="JF207882" begin="420" fromJunction="J3" toJunction="J0" end="480" vehsPerHour="61.78176770988029" departLane="free"/>
  <flow id="JF207883" begin="420" fromJunction="J3" toJunction="J4" end="480" vehsPerHour="9.586373251742126" departLane="free"/>
  <flow id="JF207884" begin="420" fromJunction="J3" toJunction="J5" end="480" vehsPerHour="88.38936139654713" departLane="free"/>
  <flow id="JF207885" begin="420" fromJunction="J3" toJunction="J6" end="480" vehsPerHour="59.5332923104064" departLane="free"/>
  <flow id="JF207886" begin="420" fromJunction="J4" toJunction="J0" end="480" vehsPerHour="33.553423389062615" departLane="free"/>
  <flow id="JF207887" begin="420" fromJunction="J4" toJunction="J3" end="480" vehsPerHour="54.031874738515086" departLane="free"/>
  <flow id="JF207888" begin="420" fromJunction="J4" toJunction="J6" end="480" vehsPerHour="66.06720643216399" departLane="free"/>
  <flow id="JF207889" begin="420" fromJunction="J4" toJunction="J7" end="480" vehsPerHour="62.18684806302561" departLane="free"/>
  <flow id="JF207890" begin="420" fromJunction="J5" toJunction="J0" end="480" vehsPerHour="20.15578663717718" departLane="free"/>
  <flow id="JF207891" begin="420" fromJunction="J5" toJunction="J3" end="480" vehsPerHour="10.607066056616212" departLane="free"/>
  <flow id="JF207892" begin="420" fromJunction="J5" toJunction="J4" end="480" vehsPerHour="18.332905475492144" departLane="free"/>
  <flow id="JF207893" begin="420" fromJunction="J5" toJunction="J7" end="480" vehsPerHour="63.69922456432819" departLane="free"/>
  <flow id="JF207894" begin="420" fromJunction="J6" toJunction="J0" end="480" vehsPerHour="37.401681361290954" departLane="free"/>
  <flow id="JF207895" begin="420" fromJunction="J6" toJunction="J4" end="480" vehsPerHour="13.217391211647058" departLane="free"/>
  <flow id="JF207896" begin="420" fromJunction="J6" toJunction="J5" end="480" vehsPerHour="20.184491344163845" departLane="free"/>
  <flow id="JF207897" begin="420" fromJunction="J6" toJunction="J7" end="480" vehsPerHour="49.28176077625769" departLane="free"/>
  <flow id="JF207898" begin="420" fromJunction="J7" toJunction="J0" end="480" vehsPerHour="12.150445731831391" departLane="free"/>
  <flow id="JF207899" begin="420" fromJunction="J7" toJunction="J3" end="480" vehsPerHour="11.207996835107348" departLane="free"/>
  <flow id="JF207900" begin="420" fromJunction="J7" toJunction="J4" end="480" vehsPerHour="21.396275391436884" departLane="free"/>
  <flow id="JF207901" begin="420" fromJunction="J7" toJunction="J5" end="480" vehsPerHour="58.580954411837446" departLane="free"/>
  <flow id="JF207902" begin="480" fromJunction="J0" toJunction="J3" end="540" vehsPerHour="37.48369654916902" departLane="free"/>
  <flow id="JF207903" begin="480" fromJunction="J0" toJunction="J4" end="540" vehsPerHour="108.03756855503582" departLane="free"/>
  <flow id="JF207904" begin="480" fromJunction="J0" toJunction="J5" end="540" vehsPerHour="55.16541740909399" departLane="free"/>
  <flow id="JF207905" begin="480" fromJunction="J0" toJunction="J6" end="540" vehsPerHour="83.99579729746097" departLane="free"/>
  <flow id="JF207906" begin="480" fromJunction="J0" toJunction="J7" end="540" vehsPerHour="56.89651453109842" departLane="free"/>
  <flow id="JF207907" begin="480" fromJunction="J3" toJunction="J5" end="540" vehsPerHour="72.31430029832258" departLane="free"/>
  <flow id="JF207908" begin="480" fromJunction="J3" toJunction="J6" end="540" vehsPerHour="96.4836203353707" departLane="free"/>
  <flow id="JF207909" begin="480" fromJunction="J3" toJunction="J7" end="540" vehsPerHour="32.84134715596611" departLane="free"/>
  <flow id="JF207910" begin="480" fromJunction="J4" toJunction="J0" end="540" vehsPerHour="41.93891746560555" departLane="free"/>
  <flow id="JF207911" begin="480" fromJunction="J4" toJunction="J3" end="540" vehsPerHour="65.75644653352175" departLane="free"/>
  <flow id="JF207912" begin="480" fromJunction="J4" toJunction="J6" end="540" vehsPerHour="41.20446786220791" departLane="free"/>
  <flow id="JF207913" begin="480" fromJunction="J5" toJunction="J0" end="540" vehsPerHour="56.31845011300543" departLane="free"/>
  <flow id="JF207914" begin="480" fromJunction="J5" toJunction="J3" end="540" vehsPerHour="42.96601548250986" departLane="free"/>
  <flow id="JF207915" begin="480" fromJunction="J5" toJunction="J4" end="540" vehsPerHour="50.99381482030267" departLane="free"/>
  <flow id="JF207916" begin="480" fromJunction="J5" toJunction="J6" end="540" vehsPerHour="22.7721476696099" departLane="free"/>
  <flow id="JF207917" begin="480" fromJunction="J5" toJunction="J7" end="540" vehsPerHour="65.272355467307" departLane="free"/>
  <flow id="JF207918" begin="480" fromJunction="J6" toJunction="J0" end="540" vehsPerHour="43.2849586801207" departLane="free"/>
  <flow id="JF207919" begin="480" fromJunction="J6" toJunction="J3" end="540" vehsPerHour="56.22473771792039" departLane="free"/>
  <flow id="JF207920" begin="480" fromJunction="J6" toJunction="J4" end="540" vehsPerHour="8.025692390897152" departLane="free"/>
  <flow id="JF207921" begin="480" fromJunction="J6" toJunction="J5" end="540" vehsPerHour="62.25712986409191" departLane="free"/>
  <flow id="JF207922" begin="480" fromJunction="J7" toJunction="J0" end="540" vehsPerHour="5.837069128494602" departLane="free"/>
  <flow id="JF207923" begin="480" fromJunction="J7" toJunction="J3" end="540" vehsPerHour="39.15738165923363" departLane="free"/>
  <flow id="JF207924" begin="480" fromJunction="J7" toJunction="J4" end="540" vehsPerHour="33.72009601028363" departLane="free"/>
  <flow id="JF207925" begin="540" fromJunction="J0" toJunction="J3" end="600" vehsPerHour="37.99826518474173" departLane="free"/>
  <flow id="JF207926" begin="540" fromJunction="J0" toJunction="J4" end="600" vehsPerHour="124.09750583857002" departLane="free"/>
  <flow id="JF207927" begin="540" fromJunction="J0" toJunction="J7" end="600" vehsPerHour="11.063885124735783" departLane="free"/>
  <flow id="JF207928" begin="540" fromJunction="J3" toJunction="J0" end="600" vehsPerHour="37.448108096096945" departLane="free"/>
  <flow id="JF207929" begin="540" fromJunction="J3" toJunction="J4" end="600" vehsPerHour="126.87563880170774" departLane="free"/>
  <flow id="JF207930" begin="540" fromJunction="J3" toJunction="J5" end="600" vehsPerHour="30.59979103561527" departLane="free"/>
  <flow id="JF207931" begin="540" fromJunction="J3" toJunction="J6" end="600" vehsPerHour="38.75043988623691" departLane="free"/>
  <flow id="JF207932" begin="540" fromJunction="J3" toJunction="J7" end="600" vehsPerHour="89.8269830350764" departLane="free"/>
  <flow id="JF207933" begin="540" fromJunction="J4" toJunction="J0" end="600" vehsPerHour="12.265927486460678" departLane="free"/>
  <flow id="JF207934" begin="540" fromJunction="J4" toJunction="J3" end="600" vehsPerHour="2.3611860946902206" departLane="free"/>
  <flow id="JF207935" begin="540" fromJunction="J4" toJunction="J5" end="600" vehsPerHour="37.98757318631322" departLane="free"/>
  <flow id="JF207936" begin="540" fromJunction="J4" toJunction="J7" end="600" vehsPerHour="4.275275905215537" departLane="free"/>
  <flow id="JF207937" begin="540" fromJunction="J5" toJunction="J0" end="600" vehsPerHour="16.183843086860783" departLane="free"/>
  <flow id="JF207938" begin="540" fromJunction="J5" toJunction="J6" end="600" vehsPerHour="20.092921909398036" departLane="free"/>
  <flow id="JF207939" begin="540" fromJunction="J5" toJunction="J7" end="600" vehsPerHour="44.69007784017239" departLane="free"/>
  <flow id="JF207940" begin="540" fromJunction="J6" toJunction="J3" end="600" vehsPerHour="15.473783382727753" departLane="free"/>
  <flow id="JF207941" begin="540" fromJunction="J6" toJunction="J4" end="600" vehsPerHour="27.964350797316257" departLane="free"/>
  <flow id="JF207942" begin="540" fromJunction="J6" toJunction="J5" end="600" vehsPerHour="41.003575388324855" departLane="free"/>
  <flow id="JF207943" begin="540" fromJunction="J6" toJunction="J7" end="600" vehsPerHour="64.72793404759072" departLane="free"/>
  <flow id="JF207944" begin="540" fromJunction="J7" toJunction="J0" end="600" vehsPerHour="11.70777145975058" departLane="free"/>
  <flow id="JF207945" begin="540" fromJunction="J7" toJunction="J4" end="600" vehsPerHour="18.686399922855255" departLane="free"/>
  <flow id="JF207946" begin="540" fromJunction="J7" toJunction="J5" end="600" vehsPerHour="20.809460882588997" departLane="free"/>
  <flow id="JF207947" begin="540" fromJunction="J7" toJunction="J6" end="600" vehsPerHour="35.25305825024715" departLane="free"/>
  <flow id="JF207948" begin="600" fromJunction="J0" toJunction="J3" end="660" vehsPerHour="28.20556743318836" departLane="free"/>
  <flow id="JF207949" begin="600" fromJunction="J0" toJunction="J4" end="660" vehsPerHour="57.40133025539597" departLane="free"/>
  <flow id="JF207950" begin="600" fromJunction="J0" toJunction="J5" end="660" vehsPerHour="73.67940396160856" departLane="free"/>
  <flow id="JF207951" begin="600" fromJunction="J0" toJunction="J7" end="660" vehsPerHour="26.327675227257558" departLane="free"/>
  <flow id="JF207952" begin="600" fromJunction="J3" toJunction="J0" end="660" vehsPerHour="113.25430963385615" departLane="free"/>
  <flow id="JF207953" begin="600" fromJunction="J3" toJunction="J4" end="660" vehsPerHour="107.34410902580188" departLane="free"/>
  <flow id="JF207954" begin="600" fromJunction="J3" toJunction="J5" end="660" vehsPerHour="109.12506968535978" departLane="free"/>
  <flow id="JF207955" begin="600" fromJunction="J3" toJunction="J7" end="660" vehsPerHour="26.93658308555238" departLane="free"/>
  <flow id="JF207956" begin="600" fromJunction="J4" toJunction="J0" end="660" vehsPerHour="35.13365526716118" departLane="free"/>
  <flow id="JF207957" begin="600" fromJunction="J4" toJunction="J5" end="660" vehsPerHour="58.629794937994255" departLane="free"/>
  <flow id="JF207958" begin="600" fromJunction="J5" toJunction="J0" end="660" vehsPerHour="35.2309136823743" departLane="free"/>
  <flow id="JF207959" begin="600" fromJunction="J5" toJunction="J4" end="660" vehsPerHour="48.329019014775945" departLane="free"/>
  <flow id="JF207960" begin="600" fromJunction="J5" toJunction="J6" end="660" vehsPerHour="45.70408442933304" departLane="free"/>
  <flow id="JF207961" begin="600" fromJunction="J5" toJunction="J7" end="660" vehsPerHour="61.41401149137295" departLane="free"/>
  <flow id="JF207962" begin="600" fromJunction="J6" toJunction="J0" end="660" vehsPerHour="41.12157625926221" departLane="free"/>
  <flow id="JF207963" begin="600" fromJunction="J6" toJunction="J3" end="660" vehsPerHour="24.956928053066623" departLane="free"/>
  <flow id="JF207964" begin="600" fromJunction="J6" toJunction="J4" end="660" vehsPerHour="6.893839036187638" departLane="free"/>
  <flow id="JF207965" begin="600" fromJunction="J6" toJunction="J5" end="660" vehsPerHour="29.145480600655265" departLane="free"/>
  <flow id="JF207966" begin="600" fromJunction="J6" toJunction="J7" end="660" vehsPerHour="10.363949058653551" departLane="free"/>
  <flow id="JF207967" begin="600" fromJunction="J7" toJunction="J3" end="660" vehsPerHour="10.277674954823123" departLane="free"/>
  <flow id="JF207968" begin="600" fromJunction="J7" toJunction="J4" end="660" vehsPerHour="52.08570081493557" departLane="free"/>
  <flow id="JF207969" begin="600" fromJunction="J7" toJunction="J5" end="660" vehsPerHour="55.40962499552383" departLane="free"/>