<?xml version="1.0" encoding="UTF-8"?>
<routes xmlns:xsi="http://www.w3.org/2001/XMLSchema-instance" xsi:noNamespaceSchemaLocation="http://sumo.dlr.de/xsd/routes_file.xsd">
  <flow id="JF212992" begin="0" fromJunction="J3" toJunction="J5" end="60" vehsPerHour="94.45650951860105" departLane="free"/>
  <flow id="JF212993" begin="0" fromJunction="J3" toJunction="J6" end="60" vehsPerHour="87.29691404088595" departLane="free"/>
  <flow id="JF212994" begin="0" fromJunction="J4" toJunction="J0" end="60" vehsPerHour="49.31177790531935" departLane="free"/>
  <flow id="JF212995" begin="0" fromJunction="J4" toJunction="J5" end="60" vehsPerHour="49.230902300844505" departLane="free"/>
  <flow id="JF212996" begin="0" fromJunction="J4" toJunction="J7" end="60" vehsPerHour="44.323198907868814" departLane="free"/>
  <flow id="JF212997" begin="0" fromJunction="J5" toJunction="J0" end="60" vehsPerHour="58.3075660383178" departLane="free"/>
  <flow id="JF212998" begin="0" fromJunction="J5" toJunction="J4" end="60" vehsPerHour="38.0017348318103" departLane="free"/>
  <flow id="JF212999" begin="0" fromJunction="J5" toJunction="J6" end="60" vehsPerHour="46.93606117531318" departLane="free"/>
  <flow id="JF213000" begin="0" fromJunction="J5" toJunction="J7" end="60" vehsPerHour="7.732866255101641" departLane="free"/>
  <flow id="JF213001" begin="0" fromJunction="J6" toJunction="J3" end="60" vehsPerHour="54.50086448090869" departLane="free"/>
  <flow id="JF213002" begin="0" fromJunction="J6" toJunction="J5" end="60" vehsPerHour="30.373605501361652" departLane="free"/>
  <flow id="JF213003" begin="0" fromJunction="J6" toJunction="J7" end="60" vehsPerHour="11.56090223877066" departLane="free"/>
  <flow id="JF213004" begin="0" fromJunction="J7" toJunction="J0" end="60" vehsPerHour="27.672020160319562" departLane="free"/>
  <flow id="JF213005" begin="0" fromJunction="J7" toJunction="J3" end="60" vehsPerHour="46.172918320159674" departLane="free"/>
  <flow id="JF213006" begin="0" fromJunction="J7" toJunction="J4" end="60" vehsPerHour="6.699873293815525" departLane="free"/>
  <flow id="JF213007" begin="0" fromJunction="J7" toJunction="J5" end="60" vehsPerHour="50.789797314361934" departLane="free"/>
  <flow id="JF213008" begin="60" fromJunction="J0" toJunction="J3" end="120" vehsPerHour="129.45915973612472" departLane="free"/>
  <flow id="JF213009" begin="60" fromJunction="J0" toJunction="J4" end="120" vehsPerHour="33.37210254490345" departLane="free"/>
  <flow id="JF213010" begin="60" fromJunction="J0" toJunction="J7" end="120" vehsPerHour="125.20201876439576" departLane="free"/>
  <flow id="JF213011" begin="60" fromJunction="J3" toJunction="J4" end="120" vehsPerHour="25.678597453033777" departLane="free"/>
  <flow id="JF213012" begin="60" fromJunction="J3" toJunction="J7" end="120" vehsPerHour="84.27001030736047" departLane="free"/>
  <flow id="JF213013" begin="60" fromJunction="J4" toJunction="J3" end="120" vehsPerHour="35.113096652902996" departLane="free"/>
  <flow id="JF213014" begin="60" fromJunction="J4" toJunction="J5" end="120" vehsPerHour="51.033410960680406" departLane="free"/>
  <flow id="JF213015" begin="60" fromJunction="J4" toJunction="J6" end="120" vehsPerHour="29.465614896068367" departLane="free"/>
  <flow id="JF213016" begin="60" fromJunction="J4" toJunction="J7" end="120" vehsPerHour="29.00820237085042" departLane="free"/>
  <flow id="JF213017" begin="60" fromJunction="J5" toJunction="J0" end="120" vehsPerHour="3.1713679263792343" departLane="free"/>
  <flow id="JF213018" begin="60" fromJunction="J5" toJunction="J4" end="120" vehsPerHour="24.001437134357857" departLane="free"/>
  <flow id="JF213019" begin="60" fromJunction="J5" toJunction="J7" end="120" vehsPerHour="47.189836506427085" departLane="free"/>
  <flow id="JF213020" begin="60" fromJunction="J6" toJunction="J3" end="120" vehsPerHour="4.379560267959749" departLane="free"/>
  <flow id="JF213021" begin="60" fromJunction="J6" toJunction="J4" end="120" vehsPerHour="9.434767798177567" departLane="free"/>
  <flow id="JF213022" begin="60" fromJunction="J6" toJunction="J5" end="120" vehsPerHour="2.737711762445649" departLane="free"/>
  <flow id="JF213023" begin="60" fromJunction="J7" toJunction="J0" end="120" vehsPerHour="3.097067123791943" departLane="free"/>
  <flow id="JF213024" begin="60" fromJunction="J7" toJunction="J3" end="120" vehsPerHour="18.21833689907176" departLane="free"/>
  <flow id="JF213025" begin="60" fromJunction="J7" toJunction="J6" end="120" vehsPerHour="43.97390873132852" departLane="free"/>
  <flow id="JF213026" begin="120" fromJunction="J0" toJunction="J3" end="180" vehsPerHour="105.30271972207527" departLane="free"/>
  <flow id="JF213027" begin="120" fromJunction="J3" toJunction="J4" end="180" vehsPerHour="131.89295396530068" departLane="free"/>
  <flow id="JF213028" begin="120" fromJunction="J3" toJunction="J5" end="180" vehsPerHour="82.27647724402915" departLane="free"/>
  <flow id="JF213029" begin="120" fromJunction="J3" toJunction="J7" end="180" vehsPerHour="112.46517589854628" departLane="free"/>
  <flow id="JF213030" begin="120" fromJunction="J4" toJunction="J0" end="180" vehsPerHour="60.51705704652727" departLane="free"/>
  <flow id="JF213031" begin="120" fromJunction="J4" toJunction="J5" end="180" vehsPerHour="47.39670222092358" departLane="free"/>
  <flow id="JF213032" begin="120" fromJunction="J4" toJunction="J6" end="180" vehsPerHour="53.824543967534915" departLane="free"/>
  <flow id="JF213033" begin="120" fromJunction="J4" toJunction="J7" end="180" vehsPerHour="58.88009567018287" departLane="free"/>
  <flow id="JF213034" begin="120" fromJunction="J5" toJunction="J0" end="180" vehsPerHour="18.63917872496361" departLane="free"/>
  <flow id="JF213035" begin="120" fromJunction="J5" toJunction="J6" end="180" vehsPerHour="14.775446969399207" departLane="free"/>
  <flow id="JF213036" begin="120" fromJunction="J5" toJunction="J7" end="180" vehsPerHour="13.938873730611046" departLane="free"/>
  <flow id="JF213037" begin="120" fromJunction="J6" toJunction="J0" end="180" vehsPerHour="7.236456694252997" departLane="free"/>
  <flow id="JF213038" begin="120" fromJunction="J6" toJunction="J3" end="180" vehsPerHour="1.9477565111432136" departLane="free"/>
  <flow id="JF213039" begin="120" fromJunction="J6" toJunction="J4" end="180" vehsPerHour="22.56531937542048" departLane="free"/>
  <flow id="JF213040" begin="120" fromJunction="J6" toJunction="J5" end="180" vehsPerHour="18.829877059588362" departLane="free"/>
  <flow id="JF213041" begin="120" fromJunction="J6" toJunction="J7" end="180" vehsPerHour="62.04777625207596" departLane="free"/>
  <flow id="JF213042" begin="120" fromJunction="J7" toJunction="J0" end="180" vehsPerHour="2.588392404711541" departLane="free"/>
  <flow id="JF213043" begin="120" fromJunction="J7" toJunction="J3" end="180" vehsPerHour="36.11836798758425" departLane="free"/>
  <flow id="JF213044" begin="120" fromJunction="J7" toJunction="J5" end="180" vehsPerHour="28.34863724665742" departLane="free"/>
  <flow id="JF213045" begin="120" fromJunction="J7" toJunction="J6" end="180" vehsPerHour="2.523747414992464" departLane="free"/>
  <flow id="JF213046" begin="180" fromJunction="J0" toJunction="J3" end="240" vehsPerHour="45.240927514349444" departLane="free"/>
  <flow id="JF213047" begin="180" fromJunction="J0" toJunction="J4" end="240" vehsPerHour="83.5186269795213" departLane="free"/>
  <flow id="JF213048" begin="180" fromJunction="J0" toJunction="J6" end="240" vehsPerHour="86.9216701884943" departLane="free"/>
  <flow id="JF213049" begin="180" fromJunction="J0" toJunction="J7" end="240" vehsPerHour="55.22783800168102" departLane="free"/>
  <flow id="JF213050" begin="180" fromJunction="J3" toJunction="J0" end="240" vehsPerHour="0.8636042962447803" departLane="free"/>
  <flow id="JF213051" begin="180" fromJunction="J3" toJunction="J4" end="240" vehsPerHour="19.10940665227271" departLane="free"/>
  <flow id="JF213052" begin="180" fromJunction="J3" toJunction="J5" end="240" vehsPerHour="26.749697375377878" departLane="free"/>
  <flow id="JF213053" begin="180" fromJunction="J3" toJunction="J6" end="240" vehsPerHour="73.9874426217796" departLane="free"/>
  <flow id="JF213054" begin="180" fromJunction="J3" toJunction="J7" end="240" vehsPerHour="55.79902997348302" departLane="free"/>
  <flow id="JF213055" begin="180" fromJunction="J4" toJunction="J0" end="240" vehsPerHour="7.837032283794372" departLane="free"/>
  <flow id="JF213056" begin="180" fromJunction="J4" toJunction="J3" end="240" vehsPerHour="28.47463454584669" departLane="free"/>
  <flow id="JF213057" begin="180" fromJunction="J4" toJunction="J5" end="240" vehsPerHour="30.674941100836733" departLane="free"/>
  <flow id="JF213058" begin="180" fromJunction="J4" toJunction="J6" end="240" vehsPerHour="50.822897094343986" departLane="free"/>
  <flow id="JF213059" begin="180" fromJunction="J5" toJunction="J0" end="240" vehsPerHour="44.173337578212994" departLane="free"/>
  <flow id="JF213060" begin="180" fromJunction="J5" toJunction="J3" end="240" vehsPerHour="17.824610586725033" departLane="free"/>
  <flow id="JF213061" begin="180" fromJunction="J5" toJunction="J4" end="240" vehsPerHour="62.16503338173092" departLane="free"/>
  <flow id="JF213062" begin="180" fromJunction="J5" toJunction="J7" end="240" vehsPerHour="6.357946455490752" departLane="free"/>
  <flow id="JF213063" begin="180" fromJunction="J6" toJunction="J0" end="240" vehsPerHour="29.661425475328624" departLane="free"/>
  <flow id="JF213064" begin="180" fromJunction="J6" toJunction="J3" end="240" vehsPerHour="21.735998015035452" departLane="free"/>
  <flow id="JF213065" begin="180" fromJunction="J6" toJunction="J5" end="240" vehsPerHour="68.15927616789924" departLane="free"/>
  <flow id="JF213066" begin="180" fromJunction="J6" toJunction="J7" end="240" vehsPerHour="57.267499781708146" departLane="free"/>
  <flow id="JF213067" begin="180" fromJunction="J7" toJunction="J0" end="240" vehsPerHour="9.506007803779704" departLane="free"/>
  <flow id="JF213068" begin="180" fromJunction="J7" toJunction="J4" end="240" vehsPerHour="64.58873862262986" departLane="free"/>
  <flow id="JF213069" begin="180" fromJunction="J7" toJunction="J5" end="240" vehsPerHour="30.686620013545777" departLane="free"/>
  <flow id="JF213070" begin="240" fromJunction="J0" toJunction="J4" end="300" vehsPerHour="103.03145836059096" departLane="free"/>
  <flow id="JF213071" begin="240" fromJunction="J0" toJunction="J7" end="300" vehsPerHour="38.01493355406742" departLane="free"/>
  <flow id="JF213072" begin="240" fromJunction="J3" toJunction="J5" end="300" vehsPerHour="102.67960276251934" departLane="free"/>
  <flow id="JF213073" begin="240" fromJunction="J3" toJunction="J6" end="300" vehsPerHour="118.54424887245013" departLane="free"/>
  <flow id="JF213074" begin="240" fromJunction="J4" toJunction="J0" end="300" vehsPerHour="50.595114267304915" departLane="free"/>
  <flow id="JF213075" begin="240" fromJunction="J4" toJunction="J6" end="300" vehsPerHour="26.1335296444267" departLane="free"/>
  <flow id="JF213076" begin="240" fromJunction="J4" toJunction="J7" end="300" vehsPerHour="22.595035614859512" departLane="free"/>
  <flow id="JF213077" begin="240" fromJunction="J5" toJunction="J0" end="300" vehsPerHour="8.479918764250057" departLane="free"/>
  <flow id="JF213078" begin="240" fromJunction="J5" toJunction="J4" end="300" vehsPerHour="42.24876889926675" departLane="free"/>
  <flow id="JF213079" begin="240" fromJunction="J5" toJunction="J6" end="300" vehsPerHour="15.341580428042539" departLane="free"/>
  <flow id="JF213080" begin="240" fromJunction="J5" toJunction="J7" end="300" vehsPerHour="22.20123203847356" departLane="free"/>
  <flow id="JF213081" begin="240" fromJunction="J6" toJunction="J0" end="300" vehsPerHour="8.406018564820359" departLane="free"/>
  <flow id="JF213082" begin="240" fromJunction="J6" toJunction="J3" end="300" vehsPerHour="66.94808454349737" departLane="free"/>
  <flow id="JF213083" begin="240" fromJunction="J6" toJunction="J4" end="300" vehsPerHour="12.622232618515447" departLane="free"/>
  <flow id="JF213084" begin="240" fromJunction="J6" toJunction="J5" end="300" vehsPerHour="62.176952996236395" departLane="free"/>
  <flow id="JF213085" begin="240" fromJunction="J6" toJunction="J7" end="300" vehsPerHour="18.745947421632962" departLane="free"/>
  <flow id="JF213086" begin="240" fromJunction="J7" toJunction="J4" end="300" vehsPerHour="31.62512222421209" departLane="free"/>
  <flow id="JF213087" begin="240" fromJunction="J7" toJunction="J5" end="300" vehsPerHour="28.490276621085656" departLane="free"/>
  <flow id="JF213088" begin="300" fromJunction="J0" toJunction="J3" end="360" vehsPerHour="90.4072680762444" departLane="free"/>
  <flow id="JF213089" begin="300" fromJunction="J0" toJunction="J4" end="360" vehsPerHour="137.37458802714443" departLane="free"/>
  <flow id="JF213090" begin="300" fromJunction="J0" toJunction="J6" end="360" vehsPerHour="64.743466803366" departLane="free"/>
  <flow id="JF213091" begin="300" fromJunction="J0" toJunction="J7" end="360" vehsPerHour="124.30762987554482" departLane="free"/>
  <flow id="JF213092" begin="300" fromJunction="J3" toJunction="J0" end="360" vehsPerHour="64.46678896190863" departLane="free"/>
  <flow id="JF213093" begin="300" fromJunction="J3" toJunction="J5" end="360" vehsPerHour="26.660034148032114" departLane="free"/>
  <flow id="JF213094" begin="300" fromJunction="J3" toJunction="J6" end="360" vehsPerHour="135.52821427982008" departLane="free"/>
  <flow id="JF213095" begin="300" fromJunction="J3" toJunction="J7" end="360" vehsPerHour="119.22735499798551" departLane="free"/>
  <flow id="JF213096" begin="300" fromJunction="J4" toJunction="J3" end="360" vehsPerHour="8.1637659838981" departLane="free"/>
  <flow id="JF213097" begin="300" fromJunction="J4" toJunction="J5" end="360" vehsPerHour="3.158978953793695" departLane="free"/>
  <flow id="JF213098" begin="300" fromJunction="J4" toJunction="J7" end="360" vehsPerHour="62.81204175893898" departLane="free"/>
  <flow id="JF213099" begin="300" fromJunction="J5" toJunction="J3" end="360" vehsPerHour="15.376837816273609" departLane="free"/>
  <flow id="JF213100" begin="300" fromJunction="J5" toJunction="J4" end="360" vehsPerHour="67.17766756560675" departLane="free"/>
  <flow id="JF213101" begin="300" fromJunction="J6" toJunction="J0" end="360" vehsPerHour="8.826455355822018" departLane="free"/>
  <flow id="JF213102" begin="300" fromJunction="J6" toJunction="J4" end="360" vehsPerHour="11.550152817137239" departLane="free"/>
  <flow id="JF213103" begin="300" fromJunction="J6" toJunction="J5" end="360" vehsPerHour="19.724554117828287" departLane="free"/>
  <flow id="JF213104" begin="300" fromJunction="J6" toJunction="J7" end="360" vehsPerHour="12.336991907469113" departLane="free"/>
  <flow id="JF213105" begin="300" fromJunction="J7" toJunction="J0" end="360" vehsPerHour="50.03701260048158" departLane="free"/>
  <flow id="JF213106" begin="300" fromJunction="J7" toJunction="J4" end="360" vehsPerHour="66.01926497036082" departLane="free"/>
  <flow id="JF213107" begin="300" fromJunction="J7" toJunction="J5" end="360" vehsPerHour="50.30166045268649" departLane="free"/>
  <flow id="JF213108" begin="300" fromJunction="J7" toJunction="J6" end="360" vehsPerHour="24.71492139762451" departLane="free"/>
  <flow id="JF213109" begin="360" fromJunction="J0" toJunction="J4" end="420" vehsPerHour="34.39305994010334" departLane="free"/>
  <flow id="JF213110" begin="360" fromJunction="J0" toJunction="J5" end="420" vehsPerHour="42.61991832060539" departLane="free"/>
  <flow id="JF213111" begin="360" fromJunction="J0" toJunction="J6" end="420" vehsPerHour="96.42712012402879" departLane="free"/>
  <flow id="JF213112" begin="360" fromJunction="J0" toJunction="J7" end="420" vehsPerHour="22.66892005986684" departLane="free"/>
  <flow id="JF213113" begin="360" fromJunction="J3" toJunction="J5" end="420" vehsPerHour="56.888347737804466" departLane="free"/>
  <flow id="JF213114" begin="360" fromJunction="J3" toJunction="J6" end="420" vehsPerHour="70.44633551110243" departLane="free"/>
  <flow id="JF213115" begin="360" fromJunction="J3" toJunction="J7" end="420" vehsPerHour="47.11606331663208" departLane="free"/>
  <flow id="JF213116" begin="360" fromJunction="J4" toJunction="J0" end="420" vehsPerHour="18.855587606777064" departLane="free"/>
  <flow id="JF213117" begin="360" fromJunction="J4" toJunction="J3" end="420" vehsPerHour="55.869973061566604" departLane="free"/>
  <flow id="JF213118" begin="360" fromJunction="J5" toJunction="J3" end="420" vehsPerHour="60.93648202414168" departLane="free"/>
  <flow id="JF213119" begin="360" fromJunction="J5" toJunction="J4" end="420" vehsPerHour="52.921434149054534" departLane="free"/>
  <flow id="JF213120" begin="360" fromJunction="J5" toJunction="J6" end="420" vehsPerHour="38.90897751722915" departLane="free"/>
  <flow id="JF213121" begin="360" fromJunction="J5" toJunction="J7" end="420" vehsPerHour="60.3089595588819" departLane="free"/>
  <flow id="JF213122" begin="360" fromJunction="J6" toJunction="J0" end="420" vehsPerHour="44.10171890997412" departLane="free"/>
  <flow id="JF213123" begin="360" fromJunction="J6" toJunction="J3" end="420" vehsPerHour="25.905317970012817" departLane="free"/>
  <flow id="JF213124" begin="360" fromJunction="J6" toJunction="J5" end="420" vehsPerHour="1.4359059698976904" departLane="free"/>
  <flow id="JF213125" begin="360" fromJunction="J6" toJunction="J7" end="420" vehsPerHour="56.58648467786694" departLane="free"/>
  <flow id="JF213126" begin="360" fromJunction="J7" toJunction="J0" end="420" vehsPerHour="4.870793707926388" departLane="free"/>
  <flow id="JF213127" begin="360" fromJunction="J7" toJunction="J3" end="420" vehsPerHour="15.962269118745823" departLane="free"/>
  <flow id="JF213128" begin="360" fromJunction="J7" toJunction="J5" end="420" vehsPerHour="19.691524697456487" departLane="free"/>
  <flow id="JF213129" begin="360" fromJunction="J7" toJunction="J6" end="420" vehsPerHour="30.930982628413805" departLane="free"/>
  <flow id="JF213130" begin="420" fromJunction="J0" toJunction="J3" end="480" vehsPerHour="40.624406155611254" departLane="free"/>
  <flow id="JF213131" begin="420" fromJunction="J0" toJunction="J5" end="480" vehsPerHour="7.603651634354855" departLane="free"/>
  <flow id="JF213132" begin="420" fromJunction="J0" toJunction="J6" end="480" vehsPerHour="62.29867522549427" departLane="free"/>
  <flow id="JF213133" begin="420" fromJunction="J0" toJunction="J7" end="480" vehsPerHour="46.327449848834846" departLane="free"/>
  <flow id="JF213134" begin="420" fromJunction="J3" toJunction="J0" end="480" vehsPerHour="8.056086002863394" departLane="free"/>
  <flow id="JF213135" begin="420" fromJunction="J3" toJunction="J4" end="480" vehsPerHour="72.13426418729154" departLane="free"/>
  <flow id="JF213136" begin="420" fromJunction="J3" toJunction="J5" end="480" vehsPerHour="127.15046486698722" departLane="free"/>
  <flow id="JF213137" begin="420" fromJunction="J3" toJunction="J6" end="480" vehsPerHour="66.48845103047957" departLane="free"/>
  <flow id="JF213138" begin="420" fromJunction="J3" toJunction="J7" end="480" vehsPerHour="132.53860774954006" departLane="free"/>
  <flow id="JF213139" begin="420" fromJunction="J4" toJunction="J3" end="480" vehsPerHour="6.762681572042216" departLane="free"/>
  <flow id="JF213140" begin="420" fromJunction="J4" toJunction="J6" end="480" vehsPerHour="4.631784892036857" departLane="free"/>
  <flow id="JF213141" begin="420" fromJunction="J5" toJunction="J0" end="480" vehsPerHour="0.3582759775810149" departLane="free"/>
  <flow id="JF213142" begin="420" fromJunction="J5" toJunction="J3" end="480" vehsPerHour="39.346835676524314" departLane="free"/>
  <flow id="JF213143" begin="420" fromJunction="J5" toJunction="J4" end="480" vehsPerHour="18.909306823925974" departLane="free"/>
  <flow id="JF213144" begin="420" fromJunction="J5" toJunction="J6" end="480" vehsPerHour="51.73179488351454" departLane="free"/>
  <flow id="JF213145" begin="420" fromJunction="J5" toJunction="J7" end="480" vehsPerHour="30.572586179321956" departLane="free"/>
  <flow id="JF213146" begin="420" fromJunction="J6" toJunction="J0" end="480" vehsPerHour="61.7914844012786" departLane="free"/>
  <flow id="JF213147" begin="420" fromJunction="J6" toJunction="J3" end="480" vehsPerHour="31.45678793927532" departLane="free"/>
  <flow id="JF213148" begin="420" fromJunction="J6" toJunction="J4" end="480" vehsPerHour="16.619289339713518" departLane="free"/>
  <flow id="JF213149" begin="420" fromJunction="J6" toJunction="J5" end="480" vehsPerHour="65.70595246007167" departLane="free"/>
  <flow id="JF213150" begin="420" fromJunction="J6" toJunction="J7" end="480" vehsPerHour="60.197445808595106" departLane="free"/>
  <flow id="JF213151" begin="420" fromJunction="J7" toJunction="J0" end="480" vehsPerHour="60.02894996717015" departLane="free"/>
  <flow id="JF213152" begin="420" fromJunction="J7" toJunction="J3" end="480" vehsPerHour="51.93409661935053" departLane="free"/>
  <flow id="JF213153" begin="420" fromJunction="J7" toJunction="J4" end="480" vehsPerHour="13.591298230916065" departLane="free"/>
  <flow id="JF213154" begin="420" fromJunction="J7" toJunction="J5" end="480" vehsPerHour="15.03635085150555" departLane="free"/>
  <flow id="JF213155" begin="420" fromJunction="J7" toJunction="J6" end="480" vehsPerHour="0.9112611176941464" departLane="free"/>
  <flow id="JF213156" begin="480" fromJunction="J0" toJunction="J3" end="540" vehsPerHour="49.645313396632716" departLane="free"/>
  <flow id="JF213157" begin="480" fromJunction="J0" toJunction="J4" end="540" vehsPerHour="126.79616925291703" departLane="free"/>
  <flow id="JF213158" begin="480" fromJunction="J0" toJunction="J6" end="540" vehsPerHour="133.76876534846772" departLane="free"/>
  <flow id="JF213159" begin="480" fromJunction="J3" toJunction="J4" end="540" vehsPerHour="128.59538124831326" departLane="free"/>
  <flow id="JF213160" begin="480" fromJunction="J3" toJunction="J6" end="540" vehsPerHour="79.09324399752536" departLane="free"/>
  <flow id="JF213161" begin="480" fromJunction="J4" toJunction="J0" end="540" vehsPerHour="68.32067188032866" departLane="free"/>
  <flow id="JF213162" begin="480" fromJunction="J4" toJunction="J3" end="540" vehsPerHour="54.74916530858786" departLane="free"/>
  <flow id="JF213163" begin="480" fromJunction="J4" toJunction="J5" end="540" vehsPerHour="45.48645095331659" departLane="free"/>
  <flow id="JF213164" begin="480" fromJunction="J5" toJunction="J0" end="540" vehsPerHour="32.71700972105638" departLane="free"/>
  <flow id="JF213165" begin="480" fromJunction="J5" toJunction="J3" end="540" vehsPerHour="23.70280573740886" departLane="free"/>
  <flow id="JF213166" begin="480" fromJunction="J5" toJunction="J4" end="540" vehsPerHour="30.1562706194525" departLane="free"/>
  <flow id="JF213167" begin="480" fromJunction="J5" toJunction="J6" end="540" vehsPerHour="10.069250262587618" departLane="free"/>
  <flow id="JF213168" begin="480" fromJunction="J5" toJunction="J7" end="540" vehsPerHour="9.627628372229157" departLane="free"/>
  <flow id="JF213169" begin="480" fromJunction="J6" toJunction="J0" end="540" vehsPerHour="12.811829937439462" departLane="free"/>
  <flow id="JF213170" begin="480" fromJunction="J6" toJunction="J4" end="540" vehsPerHour="54.99897215842257" departLane="free"/>
  <flow id="JF213171" begin="480" fromJunction="J6" toJunction="J5" end="540" vehsPerHour="27.806026849783745" departLane="free"/>
  <flow id="JF213172" begin="480" fromJunction="J7" toJunction="J0" end="540" vehsPerHour="22.22274207404514" departLane="free"/>
  <flow id="JF213173" begin="480" fromJunction="J7" toJunction="J3" end="540" vehsPerHour="43.717475507858175" departLane="free"/>
  <flow id="JF213174" begin="480" fromJunction="J7" toJunction="J4" end="540" vehsPerHour="16.8898520992686" departLane="free"/>
  <flow id="JF213175" begin="480" fromJunction="J7" toJunction="J5" end="540" vehsPerHour="22.6151550314883" departLane="free"/>
  <flow id="JF213176" begin="480" fromJunction="J7" toJunction="J6" end="540" vehsPerHour="54.143857787675174" departLane="free"/>
  <flow id="JF213177" begin="540" fromJunction="J0" toJunction="J4" end="600" vehsPerHour="98.79374587443104" departLane="free"/>
  <flow id="JF213178" begin="540" fromJunction="J0" toJunction="J5" end="600" vehsPerHour="80.96899295871567" departLane="free"/>
  <flow id="JF213179" begin="540" fromJunction="J3" toJunction="J0" end="600" vehsPerHour="69.16172493729432" departLane="free"/>
  <flow id="JF213180" begin="540" fromJunction="J3" toJunction="J4" end="600" vehsPerHour="44.20352503792001" departLane="free"/>
  <flow id="JF213181" begin="540" fromJunction="J3" toJunction="J5" end="600" vehsPerHour="69.3259259027377" departLane="free"/>
  <flow id="JF213182" begin="540" fromJunction="J4" toJunction="J0" end="600" vehsPerHour="55.156140789874996" departLane="free"/>
  <flow id="JF213183" begin="540" fromJunction="J4" toJunction="J3" end="600" vehsPerHour="65.94627621133478" departLane="free"/>
  <flow id="JF213184" begin="540" fromJunction="J4" toJunction="J6" end="600" vehsPerHour="62.29383735730486" departLane="free"/>
  <flow id="JF213185" begin="540" fromJunction="J4" toJunction="J7" end="600" vehsPerHour="11.242337191483967" departLane="free"/>
  <flow id="JF213186" begin="540" fromJunction="J5" toJunction="J0" end="600" vehsPerHour="58.128446429684146" departLane="free"/>
  <flow id="JF213187" begin="540" fromJunction="J5" toJunction="J3" end="600" vehsPerHour="24.139040064700797" departLane="free"/>
  <flow id="JF213188" begin="540" fromJunction="J5" toJunction="J4" end="600" vehsPerHour="21.639691218821255" departLane="free"/>
  <flow id="JF213189" begin="540" fromJunction="J5" toJunction="J6" end="600" vehsPerHour="5.8083691834500515" departLane="free"/>
  <flow id="JF213190" begin="540" fromJunction="J6" toJunction="J0" end="600" vehsPerHour="60.148995596318784" departLane="free"/>
  <flow id="JF213191" begin="540" fromJunction="J6" toJunction="J3" end="600" vehsPerHour="35.47157525694046" departLane="free"/>
  <flow id="JF213192" begin="540" fromJunction="J6" toJunction="J7" end="600" vehsPerHour="49.83650550662974" departLane="free"/>
  <flow id="JF213193" begin="540" fromJunction="J7" toJunction="J0" end="600" vehsPerHour="12.724742074147024" departLane="free"/>
  <flow id="JF213194" begin="540" fromJunction="J7" toJunction="J3" end="600" vehsPerHour="51.0970384174032" departLane="free"/>
  <flow id="JF213195" begin="540" fromJunction="J7" toJunction="J4" end="600" vehsPerHour="67.2391096518009" departLane="free"/>
  <flow id="JF213196" begin="540" fromJunction="J7" toJunction="J5" end="600" vehsPerHour="52.3838983841411" departLane="free"/>
  <flow id="JF213197" begin="540" fromJunction="J7" toJunction="J6" end="600" vehsPerHour="23.503597759745297" departLane="free"/>
  <flow id="JF213198" begin="600" fromJunction="J0" toJunction="J4" end="660" vehsPerHour="123.9366669597389" departLane="free"/>
  <flow id="JF213199" begin="600" fromJunction="J0" toJunction="J6" end="660" vehsPerHour="123.65053564343091" departLane="free"/>
  <flow id="JF213200" begin="600" fromJunction="J0" toJunction="J7" end="660" vehsPerHour="101.75441030242175" departLane="free"/>
  <flow id="JF213201" begin="600" fromJunction="J3" toJunction="J0" end="660" vehsPerHour="136.96282143577739" departLane="free"/>
  <flow id="JF213202" begin="600" fromJunction="J3" toJunction="J5" end="660" vehsPerHour="31.041244657564793" departLane="free"/>
  <flow id="JF213203" begin="600" fromJunction="J3" toJunction="J6" end="660" vehsPerHour="111.11651135858837" departLane="free"/>
  <flow id="JF213204" begin="600" fromJunction="J4" toJunction="J0" end="660" vehsPerHour="40.615215621060685" departLane="free"/>
  <flow id="JF213205" begin="600" fromJunction="J4" toJunction="J3" end="660" vehsPerHour="52.586518915364515" departLane="free"/>
  <flow id="JF213206" begin="600" fromJunction="J4" toJunction="J6" end="660" vehsPerHour="22.344529686989123" departLane="free"/>
  <flow id="JF213207" begin="600" fromJunction="J4" toJunction="J7" end="660" vehsPerHour="44.18784080121269" departLane="free"/>
  <flow id="JF213208" begin="600" fromJunction="J5" toJunction="J3" end="660" vehsPerHour="50.488217434788154" departLane="free"/>
  <flow id="JF213209" begin="600" fromJunction="J5" toJunction="J4" end="660" vehsPerHour="44.9678280079499" departLane="free"/>
  <flow id="JF213210" begin="600" fromJunction="J5" toJunction="J6" end="660" vehsPerHour="25.428398682264508" departLane="free"/>
  <flow id="JF213211" begin="600" fromJunction="J5" toJunction="J7" end="660" vehsPerHour="57.28405009371215" departLane="free"/>
  <flow id="JF213212" begin="600" fromJunction="J6" toJunction="J3" end="660" vehsPerHour="40.273151298374835" departLane="free"/>
  <flow id="JF213213" begin="600" fromJunction="J6" toJunction="J4" end="660" vehsPerHour="48.278099227091175" departLane="free"/>
  <flow id="JF213214" begin="600" fromJunction="J6" toJunction="J5" end="660" vehsPerHour="67.87472349883656" departLane="free"/>
  <flow id="JF213215" begin="600" fromJunction="J7" toJunction="J0" end="660" vehsPerHour="65.49742932672757" departLane="free"/>
  <flow id="JF213216" begin="600" fromJunction="J7" toJunction="J3" end="660" vehsPerHour="11.95430195686575" departLane="free"/>
  <flow id="JF213217" begin="600" fromJunction="J7" toJunction="J4" end="660" vehsPerHour="15.954138948122266" departLane="free"/>
  <flow id="JF213218" begin="600" fromJunction="J7" toJunction="J5" end="660" vehsPerHour="59.99382212533145" departLane="free"/>
  <flow id="JF213219" begin="600" fromJunction="J7" toJunction="J6" end="660" vehsPerHour="48.077276064056704" departLane="free"/>
  <flow id="JF213220" begin="660" fromJunction="J0" toJunction="J4" end="720" vehsPerHour="24.98267732807371" departLane="free"/>