<?xml version="1.0" encoding="UTF-8"?>
<routes xmlns:xsi="http://www.w3.org/2001/XMLSchema-instance" xsi:noNamespaceSchemaLocation="http://sumo.dlr.de/xsd/routes_file.xsd">
  <flow id="JF9761" begin="0" fromJunction="J0" toJunction="J4" end="360" vehsPerHour="62.16772959434673" departLane="free"/>
  <flow id="JF9762" begin="0" fromJunction="J0" toJunction="J5" end="360" vehsPerHour="45.199858355331344" departLane="free"/>
  <flow id="JF9763" begin="0" fromJunction="J0" toJunction="J6" end="360" vehsPerHour="69.5581991661132" departLane="free"/>
  <flow id="JF9764" begin="0" fromJunction="J0" toJunction="J7" end="360" vehsPerHour="105.53286715271602" departLane="free"/>
  <flow id="JF9765" begin="0" fromJunction="J3" toJunction="J0" end="360" vehsPerHour="71.34786603167075" departLane="free"/>
  <flow id="JF9766" begin="0" fromJunction="J3" toJunction="J7" end="360" vehsPerHour="135.11172535878177" departLane="free"/>
  <flow id="JF9767" begin="0" fromJunction="J4" toJunction="J3" end="360" vehsPerHour="56.83425705349693" departLane="free"/>
  <flow id="JF9768" begin="0" fromJunction="J4" toJunction="J5" end="360" vehsPerHour="46.46912680007622" departLane="free"/>
  <flow id="JF9769" begin="0" fromJunction="J4" toJunction="J6" end="360" vehsPerHour="23.93765744601382" departLane="free"/>
  <flow id="JF9770" begin="0" fromJunction="J5" toJunction="J0" end="360" vehsPerHour="41.627558903563695" departLane="free"/>
  <flow id="JF9771" begin="0" fromJunction="J5" toJunction="J3" end="360" vehsPerHour="52.2498236480332" departLane="free"/>
  <flow id="JF9772" begin="0" fromJunction="J5" toJunction="J4" end="360" vehsPerHour="51.61859800654073" departLane="free"/>
  <flow id="JF9773" begin="0" fromJunction="J5" toJunction="J6" end="360" vehsPerHour="27.93624219235355" departLane="free"/>
  <flow id="JF9774" begin="0" fromJunction="J6" toJunction="J3" end="360" vehsPerHour="38.85208645538847" departLane="free"/>
  <flow id="JF9775" begin="0" fromJunction="J6" toJunction="J5" end="360" vehsPerHour="33.711920441144215" departLane="free"/>
  <flow id="JF9776" begin="0" fromJunction="J6" toJunction="J7" end="360" vehsPerHour="16.067528969504025" departLane="free"/>
  <flow id="JF9777" begin="0" fromJunction="J7" toJunction="J3" end="360" vehsPerHour="5.840624961433235" departLane="free"/>
  <flow id="JF9778" begin="0" fromJunction="J7" toJunction="J4" end="360" vehsPerHour="39.90274880560825" departLane="free"/>
  <flow id="JF9779" begin="0" fromJunction="J7" toJunction="J6" end="360" vehsPerHour="48.700886859436224" departLane="free"/>
  <flow id="JF9780" begin="360" fromJunction="J0" toJunction="J3" end="720" vehsPerHour="12.480566520717941" departLane="free"/>
  <flow id="JF9781" begin="360" fromJunction="J0" toJunction="J4" end="720" vehsPerHour="29.861286468877864" departLane="free"/>
  <flow id="JF9782" begin="360" fromJunction="J0" toJunction="J6" end="720" vehsPerHour="64.34626519125685" departLane="free"/>
  <flow id="JF9783" begin="360" fromJunction="J0" toJunction="J7" end="720" vehsPerHour="13.584559484254445" departLane="free"/>
  <flow id="JF9784" begin="360" fromJunction="J3" toJunction="J0" end="720" vehsPerHour="125.40307022844375" departLane="free"/>
  <flow id="JF9785" begin="360" fromJunction="J3" toJunction="J4" end="720" vehsPerHour="109.46204034464598" departLane="free"/>
  <flow id="JF9786" begin="360" fromJunction="J3" toJunction="J5" end="720" vehsPerHour="53.8255868536166" departLane="free"/>
  <flow id="JF9787" begin="360" fromJunction="J3" toJunction="J7" end="720" vehsPerHour="20.04086090864078" departLane="free"/>
  <flow id="JF9788" begin="360" fromJunction="J4" toJunction="J3" end="720" vehsPerHour="19.56457605058457" departLane="free"/>
  <flow id="JF9789" begin="360" fromJunction="J4" toJunction="J5" end="720" vehsPerHour="20.09825264244665" departLane="free"/>
  <flow id="JF9790" begin="360" fromJunction="J4" toJunction="J6" end="720" vehsPerHour="42.117405767356686" departLane="free"/>
  <flow id="JF9791" begin="360" fromJunction="J4" toJunction="J7" end="720" vehsPerHour="68.69259264113525" departLane="free"/>
  <flow id="JF9792" begin="360" fromJunction="J5" toJunction="J3" end="720" vehsPerHour="10.332653199732679" departLane="free"/>
  <flow id="JF9793" begin="360" fromJunction="J5" toJunction="J4" end="720" vehsPerHour="34.82145520798417" departLane="free"/>
  <flow id="JF9794" begin="360" fromJunction="J5" toJunction="J6" end="720" vehsPerHour="29.332429309800855" departLane="free"/>
  <flow id="JF9795" begin="360" fromJunction="J5" toJunction="J7" end="720" vehsPerHour="68.54669862413833" departLane="free"/>
  <flow id="JF9796" begin="360" fromJunction="J6" toJunction="J0" end="720" vehsPerHour="46.906898307503255" departLane="free"/>
  <flow id="JF9797" begin="360" fromJunction="J6" toJunction="J3" end="720" vehsPerHour="10.09954750406225" departLane="free"/>
  <flow id="JF9798" begin="360" fromJunction="J6" toJunction="J5" end="720" vehsPerHour="24.03303925487153" departLane="free"/>
  <flow id="JF9799" begin="360" fromJunction="J6" toJunction="J7" end="720" vehsPerHour="47.940714467399445" departLane="free"/>
  <flow id="JF9800" begin="360" fromJunction="J7" toJunction="J3" end="720" vehsPerHour="59.67552460835546" departLane="free"/>
  <flow id="JF9801" begin="360" fromJunction="J7" toJunction="J4" end="720" vehsPerHour="38.471142667349" departLane="free"/>
  <flow id="JF9802" begin="360" fromJunction="J7" toJunction="J5" end="720" vehsPerHour="60.494013244408556" departLane="free"/>
  <flow id="JF9803" begin="360" fromJunction="J7" toJunction="J6" end="720" vehsPerHour="30.06309681283012" departLane="free"/>
  <flow id="JF9804" begin="720" fromJunction="J0" toJunction="J5" end="1080" vehsPerHour="124.27726694003546" departLane="free"/>
  <flow id="JF9805" begin="720" fromJunction="J0" toJunction="J7" end="1080" vehsPerHour="6.10092298026497" departLane="free"/>
  <flow id="JF9806" begin="720" fromJunction="J3" toJunction="J0" end="1080" vehsPerHour="4.942091475812185" departLane="free"/>
  <flow id="JF9807" begin="720" fromJunction="J3" toJunction="J6" end="1080" vehsPerHour="10.033221509773352" departLane="free"/>
  <flow id="JF9808" begin="720" fromJunction="J4" toJunction="J0" end="1080" vehsPerHour="43.8576014520911" departLane="free"/>
  <flow id="JF9809" begin="720" fromJunction="J4" toJunction="J3" end="1080" vehsPerHour="41.257810478366345" departLane="free"/>
  <flow id="JF9810" begin="720" fromJunction="J4" toJunction="J5" end="1080" vehsPerHour="44.717031417037674" departLane="free"/>
  <flow id="JF9811" begin="720" fromJunction="J4" toJunction="J7" end="1080" vehsPerHour="8.843769998146906" departLane="free"/>
  <flow id="JF9812" begin="720" fromJunction="J5" toJunction="J0" end="1080" vehsPerHour="31.55836130246595" departLane="free"/>
  <flow id="JF9813" begin="720" fromJunction="J5" toJunction="J4" end="1080" vehsPerHour="19.909651597032678" departLane="free"/>
  <flow id="JF9814" begin="720" fromJunction="J5" toJunction="J7" end="1080" vehsPerHour="26.98795872588037" departLane="free"/>
  <flow id="JF9815" begin="720" fromJunction="J6" toJunction="J3" end="1080" vehsPerHour="54.921448201921905" departLane="free"/>
  <flow id="JF9816" begin="720" fromJunction="J6" toJunction="J7" end="1080" vehsPerHour="43.66920536038923" departLane="free"/>
  <flow id="JF9817" begin="720" fromJunction="J7" toJunction="J3" end="1080" vehsPerHour="37.251533920218876" departLane="free"/>
  <flow id="JF9818" begin="720" fromJunction="J7" toJunction="J4" end="1080" vehsPerHour="67.80158719621824" departLane="free"/>
  <flow id="JF9819" begin="1080" fromJunction="J0" toJunction="J3" end="1440" vehsPerHour="16.63412097706598" departLane="free"/>
  <flow id="JF9820" begin="1080" fromJunction="J0" toJunction="J6" end="1440" vehsPerHour="129.32352177016412" departLane="free"/>
  <flow id="JF9821" begin="1080" fromJunction="J0" toJunction="J7" end="1440" vehsPerHour="87.06015824027706" departLane="free"/>
  <flow id="JF9822" begin="1080" fromJunction="J3" toJunction="J4" end="1440" vehsPerHour="86.3768588749628" departLane="free"/>
  <flow id="JF9823" begin="1080" fromJunction="J4" toJunction="J0" end="1440" vehsPerHour="14.367220510753992" departLane="free"/>
  <flow id="JF9824" begin="1080" fromJunction="J4" toJunction="J3" end="1440" vehsPerHour="67.75723615398411" departLane="free"/>
  <flow id="JF9825" begin="1080" fromJunction="J4" toJunction="J5" end="1440" vehsPerHour="13.78977577288121" departLane="free"/>
  <flow id="JF9826" begin="1080" fromJunction="J5" toJunction="J0" end="1440" vehsPerHour="1.5679818673246553" departLane="free"/>
  <flow id="JF9827" begin="1080" fromJunction="J5" toJunction="J3" end="1440" vehsPerHour="59.13401992908914" departLane="free"/>
  <flow id="JF9828" begin="1080" fromJunction="J5" toJunction="J4" end="1440" vehsPerHour="44.814264577484984" departLane="free"/>
  <flow id="JF9829" begin="1080" fromJunction="J5" toJunction="J6" end="1440" vehsPerHour="34.99408717357533" departLane="free"/>
  <flow id="JF9830" begin="1080" fromJunction="J5" toJunction="J7" end="1440" vehsPerHour="9.573643976945318" departLane="free"/>
  <flow id="JF9831" begin="1080" fromJunction="J6" toJunction="J0" end="1440" vehsPerHour="59.46858276594178" departLane="free"/>
  <flow id="JF9832" begin="1080" fromJunction="J6" toJunction="J4" end="1440" vehsPerHour="2.5812220650783315" departLane="free"/>
  <flow id="JF9833" begin="1080" fromJunction="J6" toJunction="J5" end="1440" vehsPerHour="38.11548389191117" departLane="free"/>
  <flow id="JF9834" begin="1080" fromJunction="J7" toJunction="J0" end="1440" vehsPerHour="0.23245101201528046" departLane="free"/>
  <flow id="JF9835" begin="1080" fromJunction="J7" toJunction="J3" end="1440" vehsPerHour="59.72811107990126" departLane="free"/>
  <flow id="JF9836" begin="1080" fromJunction="J7" toJunction="J5" end="1440" vehsPerHour="46.81812189278033" departLane="free"/>
  <flow id="JF9837" begin="1080" fromJunction="J7" toJunction="J6" end="1440" vehsPerHour="22.075663556440297" departLane="free"/>
  <flow id="JF9838" begin="1440" fromJunction="J0" toJunction="J3" end="1800" vehsPerHour="91.0390185066432" departLane="free"/>
  <flow id="JF9839" begin="1440" fromJunction="J0" toJunction="J4" end="1800" vehsPerHour="79.42968970283809" departLane="free"/>
  <flow id="JF9840" begin="1440" fromJunction="J0" toJunction="J5" end="1800" vehsPerHour="29.154201763273598" departLane="free"/>
  <flow id="JF9841" begin="1440" fromJunction="J0" toJunction="J7" end="1800" vehsPerHour="38.342064249940634" departLane="free"/>
  <flow id="JF9842" begin="1440" fromJunction="J3" toJunction="J0" end="1800" vehsPerHour="28.726132830680935" departLane="free"/>
  <flow id="JF9843" begin="1440" fromJunction="J3" toJunction="J5" end="1800" vehsPerHour="105.83499032474677" departLane="free"/>
  <flow id="JF9844" begin="1440" fromJunction="J3" toJunction="J6" end="1800" vehsPerHour="49.5222166047908" departLane="free"/>
  <flow id="JF9845" begin="1440" fromJunction="J3" toJunction="J7" end="1800" vehsPerHour="84.56840457226404" departLane="free"/>
  <flow id="JF9846" begin="1440" fromJunction="J4" toJunction="J0" end="1800" vehsPerHour="35.77395150377908" departLane="free"/>
  <flow id="JF9847" begin="1440" fromJunction="J4" toJunction="J3" end="1800" vehsPerHour="9.168718147251168" departLane="free"/>
  <flow id="JF9848" begin="1440" fromJunction="J4" toJunction="J7" end="1800" vehsPerHour="39.9905794316049" departLane="free"/>
  <flow id="JF9849" begin="1440" fromJunction="J5" toJunction="J0" end="1800" vehsPerHour="39.572228576954124" departLane="free"/>
  <flow id="JF9850" begin="1440" fromJunction="J5" toJunction="J3" end="1800" vehsPerHour="24.62787725128958" departLane="free"/>
  <flow id="JF9851" begin="1440" fromJunction="J5" toJunction="J4" end="1800" vehsPerHour="44.53444443525759" departLane="free"/>
  <flow id="JF9852" begin="1440" fromJunction="J5" toJunction="J6" end="1800" vehsPerHour="29.087236646315056" departLane="free"/>
  <flow id="JF9853" begin="1440" fromJunction="J5" toJunction="J7" end="1800" vehsPerHour="40.213762712506444" departLane="free"/>
  <flow id="JF9854" begin="1440" fromJunction="J6" toJunction="J0" end="1800" vehsPerHour="43.74842590104177" departLane="free"/>
  <flow id="JF9855" begin="1440" fromJunction="J6" toJunction="J3" end="1800" vehsPerHour="22.285460184818852" departLane="free"/>
  <flow id="JF9856" begin="1440" fromJunction="J6" toJunction="J4" end="1800" vehsPerHour="62.679207802635894" departLane="free"/>
  <flow id="JF9857" begin="1440" fromJunction="J6" toJunction="J5" end="1800" vehsPerHour="35.36741013850797" departLane="free"/>
  <flow id="JF9858" begin="1440" fromJunction="J6" toJunction="J7" end="1800" vehsPerHour="15.441865504057914" departLane="free"/>
  <flow id="JF9859" begin="1440" fromJunction="J7" toJunction="J0" end="1800" vehsPerHour="43.551875058552" departLane="free"/>
  <flow id="JF9860" begin="1440" fromJunction="J7" toJunction="J3" end="1800" vehsPerHour="31.766098510057333" departLane="free"/>
  <flow id="JF9861" begin="1440" fromJunction="J7" toJunction="J4" end="1800" vehsPerHour="10.837853776642236" departLane="free"/>
  <flow id="JF9862" begin="1800" fromJunction="J0" toJunction="J3" end="2160" vehsPerHour="62.80838088030138" departLane="free"/>
  <flow id="JF9863" begin="1800" fromJunction="J0" toJunction="J4" end="2160" vehsPerHour="47.09819074473823" departLane="free"/>
  <flow id="JF9864" begin="1800" fromJunction="J0" toJunction="J5" end="2160" vehsPerHour="63.48594965202922" departLane="free"/>
  <flow id="JF9865" begin="1800" fromJunction="J0" toJunction="J6" end="2160" vehsPerHour="65.05361040246926" departLane="free"/>
  <flow id="JF9866" begin="1800" fromJunction="J3" toJunction="J0" end="2160" vehsPerHour="45.83909652323414" departLane="free"/>
  <flow id="JF9867" begin="1800" fromJunction="J3" toJunction="J4" end="2160" vehsPerHour="117.98416004530813" departLane="free"/>
  <flow id="JF9868" begin="1800" fromJunction="J3" toJunction="J5" end="2160" vehsPerHour="18.21438942775068" departLane="free"/>
  <flow id="JF9869" begin="1800" fromJunction="J3" toJunction="J7" end="2160" vehsPerHour="92.22827937886402" departLane="free"/>
  <flow id="JF9870" begin="1800" fromJunction="J4" toJunction="J0" end="2160" vehsPerHour="30.24543429308965" departLane="free"/>
  <flow id="JF9871" begin="1800" fromJunction="J4" toJunction="J3" end="2160" vehsPerHour="4.719188618588342" departLane="free"/>
  <flow id="JF9872" begin="1800" fromJunction="J4" toJunction="J7" end="2160" vehsPerHour="45.64712517092206" departLane="free"/>
  <flow id="JF9873" begin="1800" fromJunction="J5" toJunction="J0" end="2160" vehsPerHour="46.55257232164963" departLane="free"/>
  <flow id="JF9874" begin="1800" fromJunction="J5" toJunction="J4" end="2160" vehsPerHour="15.313274647498986" departLane="free"/>
  <flow id="JF9875" begin="1800" fromJunction="J5" toJunction="J6" end="2160" vehsPerHour="6.481674332471712" departLane="free"/>
  <flow id="JF9876" begin="1800" fromJunction="J5" toJunction="J7" end="2160" vehsPerHour="6.307592952538869" departLane="free"/>
  <flow id="JF9877" begin="1800" fromJunction="J6" toJunction="J3" end="2160" vehsPerHour="58.90825348206971" departLane="free"/>
  <flow id="JF9878" begin="1800" fromJunction="J6" toJunction="J5" end="2160" vehsPerHour="28.945690094797115" departLane="free"/>
  <flow id="JF9879" begin="1800" fromJunction="J6" toJunction="J7" end="2160" vehsPerHour="5.704616664862826" departLane="free"/>
  <flow id="JF9880" begin="1800" fromJunction="J7" toJunction="J3" end="2160" vehsPerHour="4.619362072554844" departLane="free"/>
  <flow id="JF9881" begin="1800" fromJunction="J7" toJunction="J4" end="2160" vehsPerHour="62.46657184684141" departLane="free"/>
  <flow id="JF9882" begin="1800" fromJunction="J7" toJunction="J5" end="2160" vehsPerHour="2.680974664225151" departLane="free"/>
  <flow id="JF9883" begin="1800" fromJunction="J7" toJunction="J6" end="2160" vehsPerHour="60.20507128017288" departLane="free"/>
  <flow id="JF9884" begin="2160" fromJunction="J0" toJunction="J5" end="2520" vehsPerHour="45.88474831955906" departLane="free"/>
  <flow id="JF9885" begin="2160" fromJunction="J0" toJunction="J6" end="2520" vehsPerHour="101.51255747775888" departLane="free"/>
  <flow id="JF9886" begin="2160" fromJunction="J0" toJunction="J7" end="2520" vehsPerHour="92.34416554221984" departLane="free"/>
  <flow id="JF9887" begin="2160" fromJunction="J3" toJunction="J0" end="2520" vehsPerHour="5.9817035270791825" departLane="free"/>
  <flow id="JF9888" begin="2160" fromJunction="J3" toJunction="J4" end="2520" vehsPerHour="29.029361961881868" departLane="free"/>
  <flow id="JF9889" begin="2160" fromJunction="J3" toJunction="J5" end="2520" vehsPerHour="101.84481931846483" departLane="free"/>
  <flow id="JF9890" begin="2160" fromJunction="J3" toJunction="J6" end="2520" vehsPerHour="27.853435358746268" departLane="free"/>
  <flow id="JF9891" begin="2160" fromJunction="J4" toJunction="J3" end="2520" vehsPerHour="44.21026073241816" departLane="free"/>
  <flow id="JF9892" begin="2160" fromJunction="J4" toJunction="J5" end="2520" vehsPerHour="54.9579190988117" departLane="free"/>
  <flow id="JF9893" begin="2160" fromJunction="J4" toJunction="J7" end="2520" vehsPerHour="1.923016867289074" departLane="free"/>
  <flow id="JF9894" begin="2160" fromJunction="J5" toJunction="J0" end="2520" vehsPerHour="68.52887647398671" departLane="free"/>
  <flow id="JF9895" begin="2160" fromJunction="J5" toJunction="J3" end="2520" vehsPerHour="42.328685284512765" departLane="free"/>
  <flow id="JF9896" begin="2160" fromJunction="J5" toJunction="J4" end="2520" vehsPerHour="57.6754194203264" departLane="free"/>
  <flow id="JF9897" begin="2160" fromJunction="J6" toJunction="J3" end="2520" vehsPerHour="25.32390525359422" departLane="free"/>
  <flow id="JF9898" begin="2160" fromJunction="J6" toJunction="J4" end="2520" vehsPerHour="50.60675211184535" departLane="free"/>
  <flow id="JF9899" begin="2160" fromJunction="J6" toJunction="J5" end="2520" vehsPerHour="41.37032134354319" departLane="free"/>
  <flow id="JF9900" begin="2160" fromJunction="J6" toJunction="J7" end="2520" vehsPerHour="4.501476785526956" departLane="free"/>
  <flow id="JF9901" begin="2160" fromJunction="J7" toJunction="J0" end="2520" vehsPerHour="6.300508565532498" departLane="free"/>
  <flow id="JF9902" begin="2160" fromJunction="J7" toJunction="J4" end="2520" vehsPerHour="8.25717884661237" departLane="free"/>
  <flow id="JF9903" begin="2160" fromJunction="J7" toJunction="J6" end="2520" vehsPerHour="48.44110618194945" departLane="free"/>
  <flow id="JF9904" begin="2520" fromJunction="J0" toJunction="J6" end="2880" vehsPerHour="0.9748499880396129" departLane="free"/>
  <flow id="JF9905" begin="2520" fromJunction="J0" toJunction="J7" end="2880" vehsPerHour="111.74193664502252" departLane="free"/>
  <flow id="JF9906" begin="2520" fromJunction="J3" toJunction="J5" end="2880" vehsPerHour="10.836105083007524" departLane="free"/>
  <flow id="JF9907" begin="2520" fromJunction="J3" toJunction="J6" end="2880" vehsPerHour="121.63285606493632" departLane="free"/>
  <flow id="JF9908" begin="2520" fromJunction="J4" toJunction="J0" end="2880" vehsPerHour="39.85383386593436" departLane="free"/>
  <flow id="JF9909" begin="2520" fromJunction="J4" toJunction="J3" end="2880" vehsPerHour="24.550367642849324" departLane="free"/>
  <flow id="JF9910" begin="2520" fromJunction="J4" toJunction="J5" end="2880" vehsPerHour="15.0123686424373" departLane="free"/>
  <flow id="JF9911" begin="2520" fromJunction="J4" toJunction="J6" end="2880" vehsPerHour="28.074412127388232" departLane="free"/>
  <flow id="JF9912" begin="2520" fromJunction="J4" toJunction="J7" end="2880" vehsPerHour="21.090801842546878" departLane="free"/>
  <flow id="JF9913" begin="2520" fromJunction="J5" toJunction="J0" end="2880" vehsPerHour="66.37788612510084" departLane="free"/>
  <flow id="JF9914" begin="2520" fromJunction="J5" toJunction="J4" end="2880" vehsPerHour="39.140732648090854" departLane="free"/>
  <flow id="JF9915" begin="2520" fromJunction="J5" toJunction="J6" end="2880" vehsPerHour="56.94026529634337" departLane="free"/>
  <flow id="JF9916" begin="2520" fromJunction="J6" toJunction="J0" end="2880" vehsPerHour="50.51529095350881" departLane="free"/>
  <flow id="JF9917" begin="2520" fromJunction="J6" toJunction="J3" end="2880" vehsPerHour="7.651226425611369" departLane="free"/>
  <flow id="JF9918" begin="2520" fromJunction="J6" toJunction="J4" end="2880" vehsPerHour="17.58347146230696" departLane="free"/>
  <flow id="JF9919" begin="2520" fromJunction="J6" toJunction="J5" end="2880" vehsPerHour="13.111478926174275" departLane="free"/>
  <flow id="JF9920" begin="2520" fromJunction="J6" toJunction="J7" end="2880" vehsPerHour="41.802991120247675" departLane="free"/>
  <flow id="JF9921" begin="2520" fromJunction="J7" toJunction="J0" end="2880" vehsPerHour="64.54759488638386" departLane="free"/>
  <flow id="JF9922" begin="2520" fromJunction="J7" toJunction="J5" end="2880" vehsPerHour="56.10539113934025" departLane="free"/>
  <flow id="JF9923" begin="2880" fromJunction="J0" toJunction="J4" end="3240" vehsPerHour="101.21531286705975" departLane="free"/>
  <flow id="JF9924" begin="2880" fromJunction="J0" toJunction="J5" end="3240" vehsPerHour="57.725410822137064" departLane="free"/>
  <flow id="JF9925" begin="2880" fromJunction="J0" toJunction="J7" end="3240" vehsPerHour="73.56711568449334" departLane="free"/>
  <flow id="JF9926" begin="2880" fromJunction="J3" toJunction="J4" end="3240" vehsPerHour="20.489213351632323" departLane="free"/>
  <flow id="JF9927" begin="2880" fromJunction="J3" toJunction="J5" end="3240" vehsPerHour="104.80864484273138" departLane="free"/>
  <flow id="JF9928" begin="2880" fromJunction="J3" toJunction="J6" end="3240" vehsPerHour="120.39963110643203" departLane="free"/>
  <flow id="JF9929" begin="2880" fromJunction="J3" toJunction="J7" end="3240" vehsPerHour="39.185569181996776" departLane="free"/>
  <flow id="JF9930" begin="2880" fromJunction="J4" toJunction="J0" end="3240" vehsPerHour="53.43366429963131" departLane="free"/>
  <flow id="JF9931" begin="2880" fromJunction="J4" toJunction="J3" end="3240" vehsPerHour="29.355086167993825" departLane="free"/>
  <flow id="JF9932" begin="2880" fromJunction="J4" toJunction="J6" end="3240" vehsPerHour="49.74820930430025" departLane="free"/>
  <flow id="JF9933" begin="2880" fromJunction="J5" toJunction="J0" end="3240" vehsPerHour="25.056831496746547" departLane="free"/>
  <flow id="JF9934" begin="2880" fromJunction="J5" toJunction="J3" end="3240" vehsPerHour="58.87415423735968" departLane="free"/>
  <flow id="JF9935" begin="2880" fromJunction="J5" toJunction="J7" end="3240" vehsPerHour="62.76760248626911" departLane="free"/>
  <flow id="JF9936" begin="2880" fromJunction="J6" toJunction="J0" end="3240" vehsPerHour="58.19088295467519" departLane="free"/>
  <flow id="JF9937" begin="2880" fromJunction="J6" toJunction="J7" end="3240" vehsPerHour="50.534310037437656" departLane="free"/>
  <flow id="JF9938" begin="2880" fromJunction="J7" toJunction="J0" end="3240" vehsPerHour="1.2957036598122789" departLane="free"/>
  <flow id="JF9939" begin="2880" fromJunction="J7" toJunction="J3" end="3240" vehsPerHour="27.56555812303979" departLane="free"/>
  <flow id="JF9940" begin="2880" fromJunction="J7" toJunction="J4" end="3240" vehsPerHour="27.672695269747106" departLane="free"/>
  <flow id="JF9941" begin="2880" fromJunction="J7" toJunction="J5" end="3240" vehsPerHour="13.861870420167243" departLane="free"/>
  <flow id="JF9942" begin="2880" fromJunction="J7" toJunction="J6" end="3240" vehsPerHour="49.34420762072936" departLane="free"/>
  <flow id="JF9943" begin="3240" fromJunction="J0" toJunction="J3" end="3600" vehsPerHour="96.39857888538648" departLane="free"/>
  <flow id="JF9944" begin="3240" fromJunction="J0" toJunction="J5" end="3600" vehsPerHour="64.98650465000888" departLane="free"/>
  <flow id="JF9945" begin="3240" fromJunction="J0" toJunction="J6" end="3600" vehsPerHour="79.29228977412644" departLane="free"/>
  <flow id="JF9946" begin="3240" fromJunction="J0" toJunction="J7" end="3600" vehsPerHour="6.720554896242934" departLane="free"/>
  <flow id="JF9947" begin="3240" fromJunction="J3" toJunction="J0" end="3600" vehsPerHour="109.93059228843636" departLane="free"/>
  <flow id="JF9948" begin="3240" fromJunction="J3" toJunction="J4" end="3600" vehsPerHour="136.05145015066" departLane="free"/>
  <flow id="JF9949" begin="3240" fromJunction="J3" toJunction="J5" end="3600" vehsPerHour="17.874933640174895" departLane="free"/>
  <flow id="JF9950" begin="3240" fromJunction="J3" toJunction="J7" end="3600" vehsPerHour="52.18693421863774" departLane="free"/>
  <flow id="JF9951" begin="3240" fromJunction="J4" toJunction="J0" end="3600" vehsPerHour="39.44343727760796" departLane="free"/>
  <flow id="JF9952" begin="3240" fromJunction="J4" toJunction="J3" end="3600" vehsPerHour="55.40409893965752" departLane="free"/>
  <flow id="JF9953" begin="3240" fromJunction="J4" toJunction="J5" end="3600" vehsPerHour="58.31808885806789" departLane="free"/>
  <flow id="JF9954" begin="3240" fromJunction="J4" toJunction="J6" end="3600" vehsPerHour="0.13011476131290076" departLane="free"/>
  <flow id="JF9955" begin="3240" fromJunction="J5" toJunction="J0" end="3600" vehsPerHour="44.01384859499758" departLane="free"/>
  <flow id="JF9956" begin="3240" fromJunction="J5" toJunction="J3" end="3600" vehsPerHour="64.30546296015288" departLane="free"/>
  <flow id="JF9957" begin="3240" fromJunction="J5" toJunction="J4" end="3600" vehsPerHour="63.80216705651049" departLane="free"/>
  <flow id="JF9958" begin="3240" fromJunction="J5" toJunction="J6" end="3600" vehsPerHour="45.41231468579117" departLane="free"/>
  <flow id="JF9959" begin="3240" fromJunction="J5" toJunction="J7" end="3600" vehsPerHour="22.622907800358956" departLane="free"/>
  <flow id="JF9960" begin="3240" fromJunction="J6" toJunction="J0" end="3600" vehsPerHour="10.393857653314548" departLane="free"/>
  <flow id="JF9961" begin="3240" fromJunction="J6" toJunction="J4" end="3600" vehsPerHour="60.38157076154586" departLane="free"/>
  <flow id="JF9962" begin="3240" fromJunction="J6" toJunction="J7" end="3600" vehsPerHour="42.7394838284689" departLane="free"/>
  <flow id="JF9963" begin="3240" fromJunction="J7" toJunction="J0" end="3600" vehsPerHour="40.87088738337674" departLane="free"/>
  <flow id="JF9964" begin="3240" fromJunction="J7" toJunction="J3" end="3600" vehsPerHour="53.25720054590438" departLane="free"/>
  <flow id="JF9965" begin="3240" fromJunction="J7" toJunction="J4" end="3600" vehsPerHour="33.06467771269074" departLane="free"/>
  <flow id="JF9966" begin="3240" fromJunction="J7" toJunction="J5" end="3600" vehsPerHour="31.318779379530675" departLane="free"/>
  <flow id="JF9967" begin="3600" fromJunction="J0" toJunction="J3" end="3960" vehsPerHour="97.13575646805327" departLane="free"/>
  <flow id="JF9968" begin="3600" fromJunction="J0" toJunction="J4" end="3960" vehsPerHour="94.86408427124503" departLane="free"/>
  <flow id="JF9969" begin="3600" fromJunction="J0" toJunction="J5" end="3960" vehsPerHour="11.951269724564975" departLane="free"/>
  <flow id="JF9970" begin="3600" fromJunction="J0" toJunction="J6" end="3960" vehsPerHour="109.17275074441321" departLane="free"/>
  <flow id="JF9971" begin="3600" fromJunction="J0" toJunction="J7" end="3960" vehsPerHour="60.196457203442414" departLane="free"/>
  <flow id="JF9972" begin="3600" fromJunction="J3" toJunction="J0" end="3960" vehsPerHour="57.08307768257507" departLane="free"/>
  <flow id="JF9973" begin="3600" fromJunction="J3" toJunction="J4" end="3960" vehsPerHour="83.92733714564088" departLane="free"/>
  <flow id="JF9974" begin="3600" fromJunction="J3" toJunction="J6" end="3960" vehsPerHour="32.77574495794284" departLane="free"/>
  <flow id="JF9975" begin="3600" fromJunction="J3" toJunction="J7" end="3960" vehsPerHour="5.926388326147304" departLane="free"/>
  <flow id="JF9976" begin="3600" fromJunction="J4" toJunction="J0" end="3960" vehsPerHour="45.27271786998284" departLane="free"/>
  <flow id="JF9977" begin="3600" fromJunction="J4" toJunction="J3" end="3960" vehsPerHour="36.39186609161944" departLane="free"/>
  <flow id="JF9978" begin="3600" fromJunction="J4" toJunction="J5" end="3960" vehsPerHour="55.61747613429803" departLane="free"/>
  <flow id="JF9979" begin="3600" fromJunction="J4" toJunction="J6" end="3960" vehsPerHour="60.06041006696948" departLane="free"/>
  <flow id="JF9980" begin="3600" fromJunction="J4" toJunction="J7" end="3960" vehsPerHour="33.43949945222915" departLane="free"/>
  <flow id="JF9981" begin="3600" fromJunction="J5" toJunction="J0" end="3960" vehsPerHour="54.61399713206241" departLane="free"/>
  <flow id="JF9982" begin="3600" fromJunction="J5" toJunction="J3" end="3960" vehsPerHour="25.805046150527506" departLane="free"/>
  <flow id="JF9983" begin="3600" fromJunction="J5" toJunction="J4" end="3960" vehsPerHour="55.643522447374636" departLane="free"/>
  <flow id="JF9984" begin="3600" fromJunction="J5" toJunction="J6" end="3960" vehsPerHour="48.590581338627985" departLane="free"/>
  <flow id="JF9985" begin="3600" fromJunction="J6" toJunction="J4" end="3960" vehsPerHour="31.500045094510277" departLane="free"/>
  <flow id="JF9986" begin="3600" fromJunction="J6" toJunction="J5" end="3960" vehsPerHour="57.25877705889993" departLane="free"/>
  <flow id="JF9987" begin="3600" fromJunction="J6" toJunction="J7" end="3960" vehsPerHour="59.601847526477464" departLane="free"/>
  <flow id="JF9988" begin="3600" fromJunction="J7" toJunction="J0" end="3960" vehsPerHour="0.8113142328182342" departLane="free"/>
  <flow id="JF9989" begin="3600" fromJunction="J7" toJunction="J4" end="3960" vehsPerHour="19.914230310482335" departLane="free"/>