<?xml version="1.0" encoding="UTF-8"?>
<routes xmlns:xsi="http://www.w3.org/2001/XMLSchema-instance" xsi:noNamespaceSchemaLocation="http://sumo.dlr.de/xsd/routes_file.xsd">
  <flow id="JF41135" begin="0" fromJunction="J0" toJunction="J12" end="360" vehsPerHour="39.9755446787213" departLane="free" arrivalSpeed="0.0"/>
  <flow id="JF41136" begin="0" fromJunction="J0" toJunction="J13" end="360" vehsPerHour="35.32022443306416" departLane="free" arrivalSpeed="0.0"/>
  <flow id="JF41137" begin="0" fromJunction="J0" toJunction="J14" end="360" vehsPerHour="24.97658406705828" departLane="free" arrivalSpeed="0.0"/>
  <flow id="JF41138" begin="0" fromJunction="J0" toJunction="J16" end="360" vehsPerHour="24.530298616560014" departLane="free" arrivalSpeed="0.0"/>
  <flow id="JF41139" begin="0" fromJunction="J0" toJunction="J2" end="360" vehsPerHour="47.08737448937547" departLane="free" arrivalSpeed="0.0"/>
  <flow id="JF41140" begin="0" fromJunction="J0" toJunction="J3" end="360" vehsPerHour="64.4981987151366" departLane="free" arrivalSpeed="0.0"/>
  <flow id="JF41141" begin="0" fromJunction="J0" toJunction="J6" end="360" vehsPerHour="21.90267827979745" departLane="free" arrivalSpeed="0.0"/>
  <flow id="JF41142" begin="0" fromJunction="J0" toJunction="J8" end="360" vehsPerHour="2.765724707812461" departLane="free" arrivalSpeed="0.0"/>
  <flow id="JF41143" begin="0" fromJunction="J0" toJunction="J9" end="360" vehsPerHour="7.348952172371751" departLane="free" arrivalSpeed="0.0"/>
  <flow id="JF41144" begin="0" fromJunction="J12" toJunction="J0" end="360" vehsPerHour="40.27913621061492" departLane="free" arrivalSpeed="0.0"/>
  <flow id="JF41145" begin="0" fromJunction="J12" toJunction="J13" end="360" vehsPerHour="32.48360999173534" departLane="free" arrivalSpeed="0.0"/>
  <flow id="JF41146" begin="0" fromJunction="J12" toJunction="J15" end="360" vehsPerHour="23.444225380142033" departLane="free" arrivalSpeed="0.0"/>
  <flow id="JF41147" begin="0" fromJunction="J12" toJunction="J2" end="360" vehsPerHour="17.425802027935674" departLane="free" arrivalSpeed="0.0"/>
  <flow id="JF41148" begin="0" fromJunction="J12" toJunction="J3" end="360" vehsPerHour="16.16954063831864" departLane="free" arrivalSpeed="0.0"/>
  <flow id="JF41149" begin="0" fromJunction="J12" toJunction="J7" end="360" vehsPerHour="0.9553198954371127" departLane="free" arrivalSpeed="0.0"/>
  <flow id="JF41150" begin="0" fromJunction="J12" toJunction="J8" end="360" vehsPerHour="46.994230103582794" departLane="free" arrivalSpeed="0.0"/>
  <flow id="JF41151" begin="0" fromJunction="J12" toJunction="J9" end="360" vehsPerHour="8.144852323285512" departLane="free" arrivalSpeed="0.0"/>
  <flow id="JF41152" begin="0" fromJunction="J13" toJunction="J0" end="360" vehsPerHour="38.214983281558744" departLane="free" arrivalSpeed="0.0"/>
  <flow id="JF41153" begin="0" fromJunction="J13" toJunction="J12" end="360" vehsPerHour="50.048182807218524" departLane="free" arrivalSpeed="0.0"/>
  <flow id="JF41154" begin="0" fromJunction="J13" toJunction="J14" end="360" vehsPerHour="42.20601414670857" departLane="free" arrivalSpeed="0.0"/>
  <flow id="JF41155" begin="0" fromJunction="J13" toJunction="J2" end="360" vehsPerHour="44.13845067485066" departLane="free" arrivalSpeed="0.0"/>
  <flow id="JF41156" begin="0" fromJunction="J13" toJunction="J3" end="360" vehsPerHour="3.1535929330039343" departLane="free" arrivalSpeed="0.0"/>
  <flow id="JF41157" begin="0" fromJunction="J13" toJunction="J6" end="360" vehsPerHour="45.43583070637171" departLane="free" arrivalSpeed="0.0"/>
  <flow id="JF41158" begin="0" fromJunction="J13" toJunction="J7" end="360" vehsPerHour="62.31753750052863" departLane="free" arrivalSpeed="0.0"/>
  <flow id="JF41159" begin="0" fromJunction="J13" toJunction="J8" end="360" vehsPerHour="18.00193945679965" departLane="free" arrivalSpeed="0.0"/>
  <flow id="JF41160" begin="0" fromJunction="J13" toJunction="J9" end="360" vehsPerHour="53.260169481565036" departLane="free" arrivalSpeed="0.0"/>
  <flow id="JF41161" begin="0" fromJunction="J14" toJunction="J12" end="360" vehsPerHour="49.260485163703464" departLane="free" arrivalSpeed="0.0"/>
  <flow id="JF41162" begin="0" fromJunction="J14" toJunction="J13" end="360" vehsPerHour="5.211827299243145" departLane="free" arrivalSpeed="0.0"/>
  <flow id="JF41163" begin="0" fromJunction="J14" toJunction="J15" end="360" vehsPerHour="52.10739474205544" departLane="free" arrivalSpeed="0.0"/>
  <flow id="JF41164" begin="0" fromJunction="J14" toJunction="J2" end="360" vehsPerHour="7.973062290197067" departLane="free" arrivalSpeed="0.0"/>
  <flow id="JF41165" begin="0" fromJunction="J14" toJunction="J6" end="360" vehsPerHour="9.428943949956432" departLane="free" arrivalSpeed="0.0"/>
  <flow id="JF41166" begin="0" fromJunction="J14" toJunction="J7" end="360" vehsPerHour="0.6090969488154288" departLane="free" arrivalSpeed="0.0"/>
  <flow id="JF41167" begin="0" fromJunction="J14" toJunction="J8" end="360" vehsPerHour="39.83312206376748" departLane="free" arrivalSpeed="0.0"/>
  <flow id="JF41168" begin="0" fromJunction="J14" toJunction="J9" end="360" vehsPerHour="34.18741276678418" departLane="free" arrivalSpeed="0.0"/>
  <flow id="JF41169" begin="0" fromJunction="J15" toJunction="J14" end="360" vehsPerHour="61.61362320864075" departLane="free" arrivalSpeed="0.0"/>
  <flow id="JF41170" begin="0" fromJunction="J15" toJunction="J16" end="360" vehsPerHour="63.85927662193574" departLane="free" arrivalSpeed="0.0"/>
  <flow id="JF41171" begin="0" fromJunction="J15" toJunction="J2" end="360" vehsPerHour="37.275451398413395" departLane="free" arrivalSpeed="0.0"/>
  <flow id="JF41172" begin="0" fromJunction="J15" toJunction="J3" end="360" vehsPerHour="9.637431225745026" departLane="free" arrivalSpeed="0.0"/>
  <flow id="JF41173" begin="0" fromJunction="J15" toJunction="J6" end="360" vehsPerHour="24.85677875162277" departLane="free" arrivalSpeed="0.0"/>
  <flow id="JF41174" begin="0" fromJunction="J15" toJunction="J8" end="360" vehsPerHour="37.36458633549029" departLane="free" arrivalSpeed="0.0"/>
  <flow id="JF41175" begin="0" fromJunction="J15" toJunction="J9" end="360" vehsPerHour="43.113020155343236" departLane="free" arrivalSpeed="0.0"/>
  <flow id="JF41176" begin="0" fromJunction="J16" toJunction="J0" end="360" vehsPerHour="132.29207295959657" departLane="free" arrivalSpeed="0.0"/>
  <flow id="JF41177" begin="0" fromJunction="J16" toJunction="J12" end="360" vehsPerHour="42.93215795740762" departLane="free" arrivalSpeed="0.0"/>
  <flow id="JF41178" begin="0" fromJunction="J16" toJunction="J13" end="360" vehsPerHour="30.161300222322083" departLane="free" arrivalSpeed="0.0"/>
  <flow id="JF41179" begin="0" fromJunction="J16" toJunction="J15" end="360" vehsPerHour="22.875957925175268" departLane="free" arrivalSpeed="0.0"/>
  <flow id="JF41180" begin="0" fromJunction="J16" toJunction="J3" end="360" vehsPerHour="13.544421647987226" departLane="free" arrivalSpeed="0.0"/>
  <flow id="JF41181" begin="0" fromJunction="J16" toJunction="J6" end="360" vehsPerHour="53.94196839429547" departLane="free" arrivalSpeed="0.0"/>
  <flow id="JF41182" begin="0" fromJunction="J16" toJunction="J7" end="360" vehsPerHour="114.75114537555375" departLane="free" arrivalSpeed="0.0"/>
  <flow id="JF41183" begin="0" fromJunction="J16" toJunction="J8" end="360" vehsPerHour="74.4890151422706" departLane="free" arrivalSpeed="0.0"/>
  <flow id="JF41184" begin="0" fromJunction="J16" toJunction="J9" end="360" vehsPerHour="107.74611226434227" departLane="free" arrivalSpeed="0.0"/>
  <flow id="JF41185" begin="0" fromJunction="J2" toJunction="J0" end="360" vehsPerHour="127.91984046012064" departLane="free" arrivalSpeed="0.0"/>
  <flow id="JF41186" begin="0" fromJunction="J2" toJunction="J12" end="360" vehsPerHour="7.931737177846973" departLane="free" arrivalSpeed="0.0"/>
  <flow id="JF41187" begin="0" fromJunction="J2" toJunction="J14" end="360" vehsPerHour="119.12744681843114" departLane="free" arrivalSpeed="0.0"/>
  <flow id="JF41188" begin="0" fromJunction="J2" toJunction="J15" end="360" vehsPerHour="62.81237693103019" departLane="free" arrivalSpeed="0.0"/>
  <flow id="JF41189" begin="0" fromJunction="J2" toJunction="J16" end="360" vehsPerHour="129.9875849233891" departLane="free" arrivalSpeed="0.0"/>
  <flow id="JF41190" begin="0" fromJunction="J2" toJunction="J3" end="360" vehsPerHour="62.19959305079561" departLane="free" arrivalSpeed="0.0"/>
  <flow id="JF41191" begin="0" fromJunction="J2" toJunction="J6" end="360" vehsPerHour="0.9942667995510632" departLane="free" arrivalSpeed="0.0"/>
  <flow id="JF41192" begin="0" fromJunction="J2" toJunction="J7" end="360" vehsPerHour="104.35730521762959" departLane="free" arrivalSpeed="0.0"/>
  <flow id="JF41193" begin="0" fromJunction="J2" toJunction="J8" end="360" vehsPerHour="100.89414500987739" departLane="free" arrivalSpeed="0.0"/>
  <flow id="JF41194" begin="0" fromJunction="J2" toJunction="J9" end="360" vehsPerHour="125.046353713426" departLane="free" arrivalSpeed="0.0"/>
  <flow id="JF41195" begin="0" fromJunction="J3" toJunction="J0" end="360" vehsPerHour="53.74657967001189" departLane="free" arrivalSpeed="0.0"/>
  <flow id="JF41196" begin="0" fromJunction="J3" toJunction="J12" end="360" vehsPerHour="28.947970391366628" departLane="free" arrivalSpeed="0.0"/>
  <flow id="JF41197" begin="0" fromJunction="J3" toJunction="J14" end="360" vehsPerHour="50.61775873630409" departLane="free" arrivalSpeed="0.0"/>
  <flow id="JF41198" begin="0" fromJunction="J3" toJunction="J15" end="360" vehsPerHour="57.816348235333294" departLane="free" arrivalSpeed="0.0"/>
  <flow id="JF41199" begin="0" fromJunction="J3" toJunction="J16" end="360" vehsPerHour="27.676017915703063" departLane="free" arrivalSpeed="0.0"/>
  <flow id="JF41200" begin="0" fromJunction="J3" toJunction="J2" end="360" vehsPerHour="17.827907748478264" departLane="free" arrivalSpeed="0.0"/>
  <flow id="JF41201" begin="0" fromJunction="J3" toJunction="J7" end="360" vehsPerHour="48.244253017570415" departLane="free" arrivalSpeed="0.0"/>
  <flow id="JF41202" begin="0" fromJunction="J3" toJunction="J8" end="360" vehsPerHour="33.94933734644547" departLane="free" arrivalSpeed="0.0"/>
  <flow id="JF41203" begin="0" fromJunction="J6" toJunction="J0" end="360" vehsPerHour="41.05478050108924" departLane="free" arrivalSpeed="0.0"/>
  <flow id="JF41204" begin="0" fromJunction="J6" toJunction="J12" end="360" vehsPerHour="65.26015742180664" departLane="free" arrivalSpeed="0.0"/>
  <flow id="JF41205" begin="0" fromJunction="J6" toJunction="J13" end="360" vehsPerHour="14.62681386573259" departLane="free" arrivalSpeed="0.0"/>
  <flow id="JF41206" begin="0" fromJunction="J6" toJunction="J15" end="360" vehsPerHour="38.7937728346504" departLane="free" arrivalSpeed="0.0"/>
  <flow id="JF41207" begin="0" fromJunction="J6" toJunction="J2" end="360" vehsPerHour="21.13651631058267" departLane="free" arrivalSpeed="0.0"/>
  <flow id="JF41208" begin="0" fromJunction="J6" toJunction="J7" end="360" vehsPerHour="51.9096307195424" departLane="free" arrivalSpeed="0.0"/>
  <flow id="JF41209" begin="0" fromJunction="J6" toJunction="J8" end="360" vehsPerHour="31.01377432340115" departLane="free" arrivalSpeed="0.0"/>
  <flow id="JF41210" begin="0" fromJunction="J6" toJunction="J9" end="360" vehsPerHour="38.14986547620386" departLane="free" arrivalSpeed="0.0"/>
  <flow id="JF41211" begin="0" fromJunction="J7" toJunction="J0" end="360" vehsPerHour="17.121466922714195" departLane="free" arrivalSpeed="0.0"/>
  <flow id="JF41212" begin="0" fromJunction="J7" toJunction="J12" end="360" vehsPerHour="68.55935707102516" departLane="free" arrivalSpeed="0.0"/>
  <flow id="JF41213" begin="0" fromJunction="J7" toJunction="J13" end="360" vehsPerHour="1.7331157400295625" departLane="free" arrivalSpeed="0.0"/>
  <flow id="JF41214" begin="0" fromJunction="J7" toJunction="J14" end="360" vehsPerHour="59.972169008433205" departLane="free" arrivalSpeed="0.0"/>
  <flow id="JF41215" begin="0" fromJunction="J7" toJunction="J15" end="360" vehsPerHour="22.033809050164972" departLane="free" arrivalSpeed="0.0"/>
  <flow id="JF41216" begin="0" fromJunction="J7" toJunction="J16" end="360" vehsPerHour="0.5543379842412207" departLane="free" arrivalSpeed="0.0"/>
  <flow id="JF41217" begin="0" fromJunction="J7" toJunction="J2" end="360" vehsPerHour="35.901762517389045" departLane="free" arrivalSpeed="0.0"/>
  <flow id="JF41218" begin="0" fromJunction="J7" toJunction="J3" end="360" vehsPerHour="58.810510639890865" departLane="free" arrivalSpeed="0.0"/>
  <flow id="JF41219" begin="0" fromJunction="J7" toJunction="J6" end="360" vehsPerHour="16.080658155950267" departLane="free" arrivalSpeed="0.0"/>
  <flow id="JF41220" begin="0" fromJunction="J7" toJunction="J8" end="360" vehsPerHour="43.22584754215991" departLane="free" arrivalSpeed="0.0"/>
  <flow id="JF41221" begin="0" fromJunction="J7" toJunction="J9" end="360" vehsPerHour="20.93313020151214" departLane="free" arrivalSpeed="0.0"/>
  <flow id="JF41222" begin="0" fromJunction="J8" toJunction="J0" end="360" vehsPerHour="64.18662182345035" departLane="free" arrivalSpeed="0.0"/>
  <flow id="JF41223" begin="0" fromJunction="J8" toJunction="J13" end="360" vehsPerHour="3.1578850617315135" departLane="free" arrivalSpeed="0.0"/>
  <flow id="JF41224" begin="0" fromJunction="J8" toJunction="J16" end="360" vehsPerHour="55.37384522497458" departLane="free" arrivalSpeed="0.0"/>
  <flow id="JF41225" begin="0" fromJunction="J8" toJunction="J2" end="360" vehsPerHour="1.8141787776540885" departLane="free" arrivalSpeed="0.0"/>
  <flow id="JF41226" begin="0" fromJunction="J8" toJunction="J3" end="360" vehsPerHour="14.457866509922335" departLane="free" arrivalSpeed="0.0"/>
  <flow id="JF41227" begin="0" fromJunction="J8" toJunction="J6" end="360" vehsPerHour="33.461630116290735" departLane="free" arrivalSpeed="0.0"/>
  <flow id="JF41228" begin="0" fromJunction="J9" toJunction="J0" end="360" vehsPerHour="51.417982352931794" departLane="free" arrivalSpeed="0.0"/>
  <flow id="JF41229" begin="0" fromJunction="J9" toJunction="J15" end="360" vehsPerHour="14.793842480020103" departLane="free" arrivalSpeed="0.0"/>
  <flow id="JF41230" begin="0" fromJunction="J9" toJunction="J16" end="360" vehsPerHour="32.52546961223559" departLane="free" arrivalSpeed="0.0"/>
  <flow id="JF41231" begin="0" fromJunction="J9" toJunction="J3" end="360" vehsPerHour="17.252558063059006" departLane="free" arrivalSpeed="0.0"/>
  <flow id="JF41232" begin="0" fromJunction="J9" toJunction="J6" end="360" vehsPerHour="60.613035051795926" departLane="free" arrivalSpeed="0.0"/>
  <flow id="JF41233" begin="0" fromJunction="J9" toJunction="J8" end="360" vehsPerHour="24.06342442544417" departLane="free" arrivalSpeed="0.0"/>
  <flow id="JF41234" begin="360" fromJunction="J0" toJunction="J13" end="720" vehsPerHour="9.461067045085153" departLane="free" arrivalSpeed="0.0"/>
  <flow id="JF41235" begin="360" fromJunction="J0" toJunction="J14" end="720" vehsPerHour="32.538273415117196" departLane="free" arrivalSpeed="0.0"/>
  <flow id="JF41236" begin="360" fromJunction="J0" toJunction="J15" end="720" vehsPerHour="33.47684643695912" departLane="free" arrivalSpeed="0.0"/>
  <flow id="JF41237" begin="360" fromJunction="J0" toJunction="J16" end="720" vehsPerHour="55.62953763649551" departLane="free" arrivalSpeed="0.0"/>
  <flow id="JF41238" begin="360" fromJunction="J0" toJunction="J2" end="720" vehsPerHour="50.52405034774348" departLane="free" arrivalSpeed="0.0"/>
  <flow id="JF41239" begin="360" fromJunction="J0" toJunction="J3" end="720" vehsPerHour="19.90502771270681" departLane="free" arrivalSpeed="0.0"/>
  <flow id="JF41240" begin="360" fromJunction="J0" toJunction="J7" end="720" vehsPerHour="64.60005150713343" departLane="free" arrivalSpeed="0.0"/>
  <flow id="JF41241" begin="360" fromJunction="J12" toJunction="J13" end="720" vehsPerHour="60.12116431337555" departLane="free" arrivalSpeed="0.0"/>
  <flow id="JF41242" begin="360" fromJunction="J12" toJunction="J14" end="720" vehsPerHour="41.42694664059289" departLane="free" arrivalSpeed="0.0"/>
  <flow id="JF41243" begin="360" fromJunction="J12" toJunction="J15" end="720" vehsPerHour="59.405638754399014" departLane="free" arrivalSpeed="0.0"/>
  <flow id="JF41244" begin="360" fromJunction="J12" toJunction="J16" end="720" vehsPerHour="16.485640404016863" departLane="free" arrivalSpeed="0.0"/>
  <flow id="JF41245" begin="360" fromJunction="J12" toJunction="J2" end="720" vehsPerHour="66.00479597095415" departLane="free" arrivalSpeed="0.0"/>
  <flow id="JF41246" begin="360" fromJunction="J12" toJunction="J3" end="720" vehsPerHour="34.76313130489104" departLane="free" arrivalSpeed="0.0"/>
  <flow id="JF41247" begin="360" fromJunction="J12" toJunction="J6" end="720" vehsPerHour="13.718482275100822" departLane="free" arrivalSpeed="0.0"/>
  <flow id="JF41248" begin="360" fromJunction="J12" toJunction="J7" end="720" vehsPerHour="53.56902250562388" departLane="free" arrivalSpeed="0.0"/>
  <flow id="JF41249" begin="360" fromJunction="J12" toJunction="J8" end="720" vehsPerHour="4.857604123837806" departLane="free" arrivalSpeed="0.0"/>
  <flow id="JF41250" begin="360" fromJunction="J12" toJunction="J9" end="720" vehsPerHour="48.05811879776018" departLane="free" arrivalSpeed="0.0"/>
  <flow id="JF41251" begin="360" fromJunction="J13" toJunction="J12" end="720" vehsPerHour="64.8558804092428" departLane="free" arrivalSpeed="0.0"/>
  <flow id="JF41252" begin="360" fromJunction="J13" toJunction="J15" end="720" vehsPerHour="5.737575277940218" departLane="free" arrivalSpeed="0.0"/>
  <flow id="JF41253" begin="360" fromJunction="J13" toJunction="J3" end="720" vehsPerHour="52.288249074035896" departLane="free" arrivalSpeed="0.0"/>
  <flow id="JF41254" begin="360" fromJunction="J13" toJunction="J6" end="720" vehsPerHour="3.0818186413191553" departLane="free" arrivalSpeed="0.0"/>
  <flow id="JF41255" begin="360" fromJunction="J13" toJunction="J7" end="720" vehsPerHour="24.67708066699963" departLane="free" arrivalSpeed="0.0"/>
  <flow id="JF41256" begin="360" fromJunction="J13" toJunction="J8" end="720" vehsPerHour="16.959758132184" departLane="free" arrivalSpeed="0.0"/>
  <flow id="JF41257" begin="360" fromJunction="J14" toJunction="J12" end="720" vehsPerHour="30.603067012183473" departLane="free" arrivalSpeed="0.0"/>
  <flow id="JF41258" begin="360" fromJunction="J14" toJunction="J13" end="720" vehsPerHour="56.09318390335561" departLane="free" arrivalSpeed="0.0"/>
  <flow id="JF41259" begin="360" fromJunction="J14" toJunction="J15" end="720" vehsPerHour="39.8697331536231" departLane="free" arrivalSpeed="0.0"/>
  <flow id="JF41260" begin="360" fromJunction="J14" toJunction="J16" end="720" vehsPerHour="13.080213321910472" departLane="free" arrivalSpeed="0.0"/>
  <flow id="JF41261" begin="360" fromJunction="J14" toJunction="J6" end="720" vehsPerHour="65.01934777178529" departLane="free" arrivalSpeed="0.0"/>
  <flow id="JF41262" begin="360" fromJunction="J14" toJunction="J7" end="720" vehsPerHour="27.952325063055454" departLane="free" arrivalSpeed="0.0"/>
  <flow id="JF41263" begin="360" fromJunction="J14" toJunction="J8" end="720" vehsPerHour="33.58058266581124" departLane="free" arrivalSpeed="0.0"/>
  <flow id="JF41264" begin="360" fromJunction="J14" toJunction="J9" end="720" vehsPerHour="47.67989972248375" departLane="free" arrivalSpeed="0.0"/>
  <flow id="JF41265" begin="360" fromJunction="J15" toJunction="J0" end="720" vehsPerHour="35.78448096570961" departLane="free" arrivalSpeed="0.0"/>
  <flow id="JF41266" begin="360" fromJunction="J15" toJunction="J12" end="720" vehsPerHour="38.29734713643161" departLane="free" arrivalSpeed="0.0"/>
  <flow id="JF41267" begin="360" fromJunction="J15" toJunction="J13" end="720" vehsPerHour="43.01487292376935" departLane="free" arrivalSpeed="0.0"/>
  <flow id="JF41268" begin="360" fromJunction="J15" toJunction="J16" end="720" vehsPerHour="19.182874622366782" departLane="free" arrivalSpeed="0.0"/>
  <flow id="JF41269" begin="360" fromJunction="J15" toJunction="J2" end="720" vehsPerHour="20.98429212992063" departLane="free" arrivalSpeed="0.0"/>
  <flow id="JF41270" begin="360" fromJunction="J15" toJunction="J3" end="720" vehsPerHour="12.282296469664807" departLane="free" arrivalSpeed="0.0"/>
  <flow id="JF41271" begin="360" fromJunction="J15" toJunction="J6" end="720" vehsPerHour="43.46972417001791" departLane="free" arrivalSpeed="0.0"/>
  <flow id="JF41272" begin="360" fromJunction="J15" toJunction="J8" end="720" vehsPerHour="64.08201321383433" departLane="free" arrivalSpeed="0.0"/>
  <flow id="JF41273" begin="360" fromJunction="J15" toJunction="J9" end="720" vehsPerHour="52.50317846436054" departLane="free" arrivalSpeed="0.0"/>
  <flow id="JF41274" begin="360" fromJunction="J16" toJunction="J0" end="720" vehsPerHour="127.51371950530098" departLane="free" arrivalSpeed="0.0"/>
  <flow id="JF41275" begin="360" fromJunction="J16" toJunction="J14" end="720" vehsPerHour="112.33784448892864" departLane="free" arrivalSpeed="0.0"/>
  <flow id="JF41276" begin="360" fromJunction="J16" toJunction="J2" end="720" vehsPerHour="85.97384566868426" departLane="free" arrivalSpeed="0.0"/>
  <flow id="JF41277" begin="360" fromJunction="J16" toJunction="J3" end="720" vehsPerHour="15.54046783529819" departLane="free" arrivalSpeed="0.0"/>
  <flow id="JF41278" begin="360" fromJunction="J16" toJunction="J6" end="720" vehsPerHour="36.945872850901964" departLane="free" arrivalSpeed="0.0"/>
  <flow id="JF41279" begin="360" fromJunction="J16" toJunction="J8" end="720" vehsPerHour="96.98840293530705" departLane="free" arrivalSpeed="0.0"/>
  <flow id="JF41280" begin="360" fromJunction="J2" toJunction="J0" end="720" vehsPerHour="21.05221170458936" departLane="free" arrivalSpeed="0.0"/>
  <flow id="JF41281" begin="360" fromJunction="J2" toJunction="J12" end="720" vehsPerHour="134.40382408689675" departLane="free" arrivalSpeed="0.0"/>
  <flow id="JF41282" begin="360" fromJunction="J2" toJunction="J14" end="720" vehsPerHour="23.64545289189237" departLane="free" arrivalSpeed="0.0"/>
  <flow id="JF41283" begin="360" fromJunction="J2" toJunction="J16" end="720" vehsPerHour="16.700442499800737" departLane="free" arrivalSpeed="0.0"/>
  <flow id="JF41284" begin="360" fromJunction="J2" toJunction="J3" end="720" vehsPerHour="34.1153180790188" departLane="free" arrivalSpeed="0.0"/>
  <flow id="JF41285" begin="360" fromJunction="J2" toJunction="J6" end="720" vehsPerHour="70.39414641008415" departLane="free" arrivalSpeed="0.0"/>
  <flow id="JF41286" begin="360" fromJunction="J2" toJunction="J7" end="720" vehsPerHour="29.256075465726976" departLane="free" arrivalSpeed="0.0"/>
  <flow id="JF41287" begin="360" fromJunction="J2" toJunction="J8" end="720" vehsPerHour="48.38072033459321" departLane="free" arrivalSpeed="0.0"/>
  <flow id="JF41288" begin="360" fromJunction="J2" toJunction="J9" end="720" vehsPerHour="44.64236937127954" departLane="free" arrivalSpeed="0.0"/>
  <flow id="JF41289" begin="360" fromJunction="J3" toJunction="J13" end="720" vehsPerHour="20.249504120641713" departLane="free" arrivalSpeed="0.0"/>
  <flow id="JF41290" begin="360" fromJunction="J3" toJunction="J14" end="720" vehsPerHour="54.70161364260612" departLane="free" arrivalSpeed="0.0"/>
  <flow id="JF41291" begin="360" fromJunction="J3" toJunction="J15" end="720" vehsPerHour="59.45892554129181" departLane="free" arrivalSpeed="0.0"/>
  <flow id="JF41292" begin="360" fromJunction="J3" toJunction="J16" end="720" vehsPerHour="50.6410746133768" departLane="free" arrivalSpeed="0.0"/>
  <flow id="JF41293" begin="360" fromJunction="J3" toJunction="J2" end="720" vehsPerHour="5.076876299130874" departLane="free" arrivalSpeed="0.0"/>
  <flow id="JF41294" begin="360" fromJunction="J3" toJunction="J6" end="720" vehsPerHour="65.27690681497837" departLane="free" arrivalSpeed="0.0"/>
  <flow id="JF41295" begin="360" fromJunction="J3" toJunction="J8" end="720" vehsPerHour="63.81628232923793" departLane="free" arrivalSpeed="0.0"/>
  <flow id="JF41296" begin="360" fromJunction="J3" toJunction="J9" end="720" vehsPerHour="58.48619467397218" departLane="free" arrivalSpeed="0.0"/>
  <flow id="JF41297" begin="360" fromJunction="J6" toJunction="J12" end="720" vehsPerHour="41.51750496392496" departLane="free" arrivalSpeed="0.0"/>
  <flow id="JF41298" begin="360" fromJunction="J6" toJunction="J14" end="720" vehsPerHour="53.61347906611813" departLane="free" arrivalSpeed="0.0"/>
  <flow id="JF41299" begin="360" fromJunction="J6" toJunction="J15" end="720" vehsPerHour="26.169225249787697" departLane="free" arrivalSpeed="0.0"/>
  <flow id="JF41300" begin="360" fromJunction="J6" toJunction="J16" end="720" vehsPerHour="9.095660259696222" departLane="free" arrivalSpeed="0.0"/>
  <flow id="JF41301" begin="360" fromJunction="J6" toJunction="J2" end="720" vehsPerHour="3.9842791461628195" departLane="free" arrivalSpeed="0.0"/>
  <flow id="JF41302" begin="360" fromJunction="J7" toJunction="J0" end="720" vehsPerHour="56.364244409117376" departLane="free" arrivalSpeed="0.0"/>
  <flow id="JF41303" begin="360" fromJunction="J7" toJunction="J12" end="720" vehsPerHour="2.7585226028149537" departLane="free" arrivalSpeed="0.0"/>
  <flow id="JF41304" begin="360" fromJunction="J7" toJunction="J13" end="720" vehsPerHour="3.4652914604749876" departLane="free" arrivalSpeed="0.0"/>
  <flow id="JF41305" begin="360" fromJunction="J7" toJunction="J16" end="720" vehsPerHour="27.4788805636373" departLane="free" arrivalSpeed="0.0"/>
  <flow id="JF41306" begin="360" fromJunction="J7" toJunction="J2" end="720" vehsPerHour="25.77451200550047" departLane="free" arrivalSpeed="0.0"/>
  <flow id="JF41307" begin="360" fromJunction="J7" toJunction="J3" end="720" vehsPerHour="66.90252319432085" departLane="free" arrivalSpeed="0.0"/>
  <flow id="JF41308" begin="360" fromJunction="J7" toJunction="J6" end="720" vehsPerHour="14.580818157076028" departLane="free" arrivalSpeed="0.0"/>
  <flow id="JF41309" begin="360" fromJunction="J7" toJunction="J8" end="720" vehsPerHour="42.03302886343397" departLane="free" arrivalSpeed="0.0"/>
  <flow id="JF41310" begin="360" fromJunction="J8" toJunction="J14" end="720" vehsPerHour="67.04620684789468" departLane="free" arrivalSpeed="0.0"/>
  <flow id="JF41311" begin="360" fromJunction="J8" toJunction="J15" end="720" vehsPerHour="33.467456184223515" departLane="free" arrivalSpeed="0.0"/>
  <flow id="JF41312" begin="360" fromJunction="J8" toJunction="J16" end="720" vehsPerHour="2.987764083821831" departLane="free" arrivalSpeed="0.0"/>
  <flow id="JF41313" begin="360" fromJunction="J8" toJunction="J2" end="720" vehsPerHour="51.134674827213814" departLane="free" arrivalSpeed="0.0"/>
  <flow id="JF41314" begin="360" fromJunction="J8" toJunction="J3" end="720" vehsPerHour="36.32888798091353" departLane="free" arrivalSpeed="0.0"/>
  <flow id="JF41315" begin="360" fromJunction="J8" toJunction="J6" end="720" vehsPerHour="23.669575278365222" departLane="free" arrivalSpeed="0.0"/>
  <flow id="JF41316" begin="360" fromJunction="J8" toJunction="J7" end="720" vehsPerHour="19.27769162712188" departLane="free" arrivalSpeed="0.0"/>
  <flow id="JF41317" begin="360" fromJunction="J9" toJunction="J0" end="720" vehsPerHour="45.55492924083544" departLane="free" arrivalSpeed="0.0"/>
  <flow id="JF41318" begin="360" fromJunction="J9" toJunction="J13" end="720" vehsPerHour="6.180442313442574" departLane="free" arrivalSpeed="0.0"/>
  <flow id="JF41319" begin="360" fromJunction="J9" toJunction="J14" end="720" vehsPerHour="54.54670814966885" departLane="free" arrivalSpeed="0.0"/>
  <flow id="JF41320" begin="360" fromJunction="J9" toJunction="J15" end="720" vehsPerHour="12.739070424384305" departLane="free" arrivalSpeed="0.0"/>
  <flow id="JF41321" begin="360" fromJunction="J9" toJunction="J16" end="720" vehsPerHour="26.465422859487987" departLane="free" arrivalSpeed="0.0"/>
  <flow id="JF41322" begin="360" fromJunction="J9" toJunction="J8" end="720" vehsPerHour="45.86546490275801" departLane="free" arrivalSpeed="0.0"/>
  <flow id="JF41323" begin="720" fromJunction="J0" toJunction="J12" end="1080" vehsPerHour="20.264380118738703" departLane="free" arrivalSpeed="0.0"/>
  <flow id="JF41324" begin="720" fromJunction="J0" toJunction="J13" end="1080" vehsPerHour="12.78543779206796" departLane="free" arrivalSpeed="0.0"/>
  <flow id="JF41325" begin="720" fromJunction="J0" toJunction="J14" end="1080" vehsPerHour="37.93097582405439" departLane="free" arrivalSpeed="0.0"/>
  <flow id="JF41326" begin="720" fromJunction="J0" toJunction="J2" end="1080" vehsPerHour="57.01554324655695" departLane="free" arrivalSpeed="0.0"/>
  <flow id="JF41327" begin="720" fromJunction="J0" toJunction="J6" end="1080" vehsPerHour="29.364191664132534" departLane="free" arrivalSpeed="0.0"/>
  <flow id="JF41328" begin="720" fromJunction="J0" toJunction="J7" end="1080" vehsPerHour="43.626713093195946" departLane="free" arrivalSpeed="0.0"/>
  <flow id="JF41329" begin="720" fromJunction="J0" toJunction="J8" end="1080" vehsPerHour="44.690394761607834" departLane="free" arrivalSpeed="0.0"/>
  <flow id="JF41330" begin="720" fromJunction="J12" toJunction="J0" end="1080" vehsPerHour="0.9747909910203505" departLane="free" arrivalSpeed="0.0"/>
  <flow id="JF41331" begin="720" fromJunction="J12" toJunction="J13" end="1080" vehsPerHour="41.80456752929246" departLane="free" arrivalSpeed="0.0"/>
  <flow id="JF41332" begin="720" fromJunction="J12" toJunction="J14" end="1080" vehsPerHour="11.560005071903323" departLane="free" arrivalSpeed="0.0"/>
  <flow id="JF41333" begin="720" fromJunction="J12" toJunction="J16" end="1080" vehsPerHour="61.97469112881099" departLane="free" arrivalSpeed="0.0"/>
  <flow id="JF41334" begin="720" fromJunction="J12" toJunction="J2" end="1080" vehsPerHour="30.25797881482423" departLane="free" arrivalSpeed="0.0"/>
  <flow id="JF41335" begin="720" fromJunction="J12" toJunction="J3" end="1080" vehsPerHour="47.522314881283904" departLane="free" arrivalSpeed="0.0"/>