<?xml version="1.0" encoding="UTF-8"?>
<routes xmlns:xsi="http://www.w3.org/2001/XMLSchema-instance" xsi:noNamespaceSchemaLocation="http://sumo.dlr.de/xsd/routes_file.xsd">
  <flow id="JF254300" begin="0" fromJunction="J0" toJunction="J3" end="5000" vehsPerHour="464.1313346707637" departLane="free"/>
  <flow id="JF254301" begin="0" fromJunction="J3" toJunction="J0" end="5000" vehsPerHour="365.38251995274885" departLane="free"/>
  <flow id="JF254302" begin="0" fromJunction="J0" toJunction="J7" end="5000" vehsPerHour="83.28788587818785" departLane="free"/>
  <flow id="JF254303" begin="0" fromJunction="J0" toJunction="J4" end="5000" vehsPerHour="113.40659454279778" departLane="free"/>
  <flow id="JF254304" begin="0" fromJunction="J0" toJunction="J6" end="5000" vehsPerHour="47.5235250291057" departLane="free"/>
  <flow id="JF254305" begin="0" fromJunction="J0" toJunction="J5" end="5000" vehsPerHour="55.40683619175125" departLane="free"/>
  <flow id="JF254306" begin="0" fromJunction="J3" toJunction="J7" end="5000" vehsPerHour="102.41336663969804" departLane="free"/>
  <flow id="JF254307" begin="0" fromJunction="J3" toJunction="J4" end="5000" vehsPerHour="41.18029828623734" departLane="free"/>
  <flow id="JF254308" begin="0" fromJunction="J3" toJunction="J6" end="5000" vehsPerHour="23.28140342696107" departLane="free"/>
  <flow id="JF254309" begin="0" fromJunction="J3" toJunction="J5" end="5000" vehsPerHour="8.972047412358167" departLane="free"/>
  <flow id="JF254310" begin="0" fromJunction="J7" toJunction="J4" end="5000" vehsPerHour="40.849220474368416" departLane="free"/>
  <flow id="JF254311" begin="0" fromJunction="J7" toJunction="J6" end="5000" vehsPerHour="67.30041401686654" departLane="free"/>
  <flow id="JF254312" begin="0" fromJunction="J7" toJunction="J5" end="5000" vehsPerHour="42.7539810985582" departLane="free"/>
  <flow id="JF254313" begin="0" fromJunction="J4" toJunction="J7" end="5000" vehsPerHour="67.27460549882986" departLane="free"/>
  <flow id="JF254314" begin="0" fromJunction="J4" toJunction="J6" end="5000" vehsPerHour="31.907251785775856" departLane="free"/>
  <flow id="JF254315" begin="0" fromJunction="J4" toJunction="J5" end="5000" vehsPerHour="53.992573336878124" departLane="free"/>
  <flow id="JF254316" begin="0" fromJunction="J6" toJunction="J7" end="5000" vehsPerHour="43.408573289517854" departLane="free"/>
  <flow id="JF254317" begin="0" fromJunction="J6" toJunction="J4" end="5000" vehsPerHour="48.41527746053023" departLane="free"/>
  <flow id="JF254318" begin="0" fromJunction="J6" toJunction="J5" end="5000" vehsPerHour="62.918372174403665" departLane="free"/>
  <flow id="JF254319" begin="0" fromJunction="J5" toJunction="J7" end="5000" vehsPerHour="47.61332387060381" departLane="free"/>
  <flow id="JF254320" begin="0" fromJunction="J5" toJunction="J4" end="5000" vehsPerHour="25.391297061483694" departLane="free"/>
  <flow id="JF254321" begin="0" fromJunction="J5" toJunction="J6" end="5000" vehsPerHour="45.2983372240137" departLane="free"/>
  <flow id="JF254322" begin="0" fromJunction="J7" toJunction="J0" end="5000" vehsPerHour="11.585156201667045" departLane="free"/>
  <flow id="JF254323" begin="0" fromJunction="J7" toJunction="J3" end="5000" vehsPerHour="16.541218889417596" departLane="free"/>
  <flow id="JF254324" begin="0" fromJunction="J4" toJunction="J0" end="5000" vehsPerHour="6.873669438249814" departLane="free"/>
  <flow id="JF254325" begin="0" fromJunction="J4" toJunction="J3" end="5000" vehsPerHour="30.331446887770735" departLane="free"/>
  <flow id="JF254326" begin="0" fromJunction="J6" toJunction="J0" end="5000" vehsPerHour="28.863234630355695" departLane="free"/>
  <flow id="JF254327" begin="0" fromJunction="J6" toJunction="J3" end="5000" vehsPerHour="1.429028994927378" departLane="free"/>
  <flow id="JF254328" begin="0" fromJunction="J5" toJunction="J0" end="5000" vehsPerHour="20.446041229262505" departLane="free"/>
  <flow id="JF254329" begin="0" fromJunction="J5" toJunction="J3" end="5000" vehsPerHour="65.4560315387195" departLane="free"/>
  <flow id="JF254330" begin="5000" fromJunction="J0" toJunction="J4" end="5060" vehsPerHour="105.14851995921124" departLane="free"/>
  <flow id="JF254331" begin="5000" fromJunction="J0" toJunction="J7" end="5060" vehsPerHour="21.238960947538718" departLane="free"/>
  <flow id="JF254332" begin="5000" fromJunction="J3" toJunction="J0" end="5060" vehsPerHour="9.644072514241229" departLane="free"/>
  <flow id="JF254333" begin="5000" fromJunction="J3" toJunction="J4" end="5060" vehsPerHour="19.39012544971869" departLane="free"/>
  <flow id="JF254334" begin="5000" fromJunction="J3" toJunction="J5" end="5060" vehsPerHour="22.244557592138555" departLane="free"/>
  <flow id="JF254335" begin="5000" fromJunction="J4" toJunction="J5" end="5060" vehsPerHour="44.33362700521604" departLane="free"/>
  <flow id="JF254336" begin="5000" fromJunction="J4" toJunction="J6" end="5060" vehsPerHour="68.4404142014918" departLane="free"/>
  <flow id="JF254337" begin="5000" fromJunction="J4" toJunction="J7" end="5060" vehsPerHour="17.07297859007762" departLane="free"/>
  <flow id="JF254338" begin="5000" fromJunction="J5" toJunction="J0" end="5060" vehsPerHour="9.058739206428747" departLane="free"/>
  <flow id="JF254339" begin="5000" fromJunction="J5" toJunction="J3" end="5060" vehsPerHour="47.06246866566398" departLane="free"/>
  <flow id="JF254340" begin="5000" fromJunction="J5" toJunction="J4" end="5060" vehsPerHour="54.10130505734314" departLane="free"/>
  <flow id="JF254341" begin="5000" fromJunction="J5" toJunction="J6" end="5060" vehsPerHour="36.53245045244631" departLane="free"/>
  <flow id="JF254342" begin="5000" fromJunction="J6" toJunction="J0" end="5060" vehsPerHour="65.10420871801085" departLane="free"/>
  <flow id="JF254343" begin="5000" fromJunction="J6" toJunction="J3" end="5060" vehsPerHour="48.103235545427616" departLane="free"/>
  <flow id="JF254344" begin="5000" fromJunction="J6" toJunction="J7" end="5060" vehsPerHour="55.93934569294241" departLane="free"/>
  <flow id="JF254345" begin="5000" fromJunction="J7" toJunction="J0" end="5060" vehsPerHour="16.66364052660412" departLane="free"/>
  <flow id="JF254346" begin="5000" fromJunction="J7" toJunction="J3" end="5060" vehsPerHour="51.48735949846568" departLane="free"/>
  <flow id="JF254347" begin="5000" fromJunction="J7" toJunction="J5" end="5060" vehsPerHour="34.60767004842125" departLane="free"/>
  <flow id="JF254348" begin="5060" fromJunction="J0" toJunction="J3" end="5120" vehsPerHour="60.56186975889731" departLane="free"/>
  <flow id="JF254349" begin="5060" fromJunction="J0" toJunction="J4" end="5120" vehsPerHour="24.863518522530043" departLane="free"/>
  <flow id="JF254350" begin="5060" fromJunction="J0" toJunction="J5" end="5120" vehsPerHour="12.871870508718377" departLane="free"/>
  <flow id="JF254351" begin="5060" fromJunction="J0" toJunction="J6" end="5120" vehsPerHour="71.23133753064059" departLane="free"/>
  <flow id="JF254352" begin="5060" fromJunction="J3" toJunction="J0" end="5120" vehsPerHour="19.334694291155404" departLane="free"/>
  <flow id="JF254353" begin="5060" fromJunction="J3" toJunction="J4" end="5120" vehsPerHour="11.776957229112671" departLane="free"/>
  <flow id="JF254354" begin="5060" fromJunction="J3" toJunction="J5" end="5120" vehsPerHour="90.17189723082097" departLane="free"/>
  <flow id="JF254355" begin="5060" fromJunction="J3" toJunction="J6" end="5120" vehsPerHour="26.033755025654056" departLane="free"/>
  <flow id="JF254356" begin="5060" fromJunction="J4" toJunction="J0" end="5120" vehsPerHour="24.736914524102872" departLane="free"/>
  <flow id="JF254357" begin="5060" fromJunction="J4" toJunction="J3" end="5120" vehsPerHour="50.73966511872439" departLane="free"/>
  <flow id="JF254358" begin="5060" fromJunction="J4" toJunction="J5" end="5120" vehsPerHour="2.1816344679796864" departLane="free"/>
  <flow id="JF254359" begin="5060" fromJunction="J4" toJunction="J6" end="5120" vehsPerHour="9.504112240794235" departLane="free"/>
  <flow id="JF254360" begin="5060" fromJunction="J5" toJunction="J0" end="5120" vehsPerHour="13.280435680870237" departLane="free"/>
  <flow id="JF254361" begin="5060" fromJunction="J5" toJunction="J3" end="5120" vehsPerHour="14.071786867498222" departLane="free"/>
  <flow id="JF254362" begin="5060" fromJunction="J5" toJunction="J4" end="5120" vehsPerHour="40.06284736005774" departLane="free"/>
  <flow id="JF254363" begin="5060" fromJunction="J5" toJunction="J6" end="5120" vehsPerHour="55.85805967516842" departLane="free"/>
  <flow id="JF254364" begin="5060" fromJunction="J5" toJunction="J7" end="5120" vehsPerHour="3.9328576856791577" departLane="free"/>
  <flow id="JF254365" begin="5060" fromJunction="J6" toJunction="J0" end="5120" vehsPerHour="15.321194942628248" departLane="free"/>
  <flow id="JF254366" begin="5060" fromJunction="J6" toJunction="J3" end="5120" vehsPerHour="15.897941603774836" departLane="free"/>
  <flow id="JF254367" begin="5060" fromJunction="J6" toJunction="J4" end="5120" vehsPerHour="61.90138354960116" departLane="free"/>
  <flow id="JF254368" begin="5060" fromJunction="J6" toJunction="J5" end="5120" vehsPerHour="19.837133966575163" departLane="free"/>
  <flow id="JF254369" begin="5060" fromJunction="J7" toJunction="J0" end="5120" vehsPerHour="9.64544040622911" departLane="free"/>
  <flow id="JF254370" begin="5060" fromJunction="J7" toJunction="J4" end="5120" vehsPerHour="68.52256577920588" departLane="free"/>
  <flow id="JF254371" begin="5060" fromJunction="J7" toJunction="J5" end="5120" vehsPerHour="39.69762224288407" departLane="free"/>
  <flow id="JF254372" begin="5120" fromJunction="J0" toJunction="J4" end="5180" vehsPerHour="59.97994460128679" departLane="free"/>
  <flow id="JF254373" begin="5120" fromJunction="J0" toJunction="J5" end="5180" vehsPerHour="93.64460997405943" departLane="free"/>
  <flow id="JF254374" begin="5120" fromJunction="J0" toJunction="J6" end="5180" vehsPerHour="117.7269211592613" departLane="free"/>
  <flow id="JF254375" begin="5120" fromJunction="J0" toJunction="J7" end="5180" vehsPerHour="130.4789467409372" departLane="free"/>
  <flow id="JF254376" begin="5120" fromJunction="J3" toJunction="J4" end="5180" vehsPerHour="114.960493558265" departLane="free"/>
  <flow id="JF254377" begin="5120" fromJunction="J3" toJunction="J5" end="5180" vehsPerHour="6.8291444364493765" departLane="free"/>
  <flow id="JF254378" begin="5120" fromJunction="J3" toJunction="J6" end="5180" vehsPerHour="97.95796903939247" departLane="free"/>
  <flow id="JF254379" begin="5120" fromJunction="J3" toJunction="J7" end="5180" vehsPerHour="50.631224453639234" departLane="free"/>
  <flow id="JF254380" begin="5120" fromJunction="J4" toJunction="J0" end="5180" vehsPerHour="4.983159948101591" departLane="free"/>
  <flow id="JF254381" begin="5120" fromJunction="J4" toJunction="J3" end="5180" vehsPerHour="52.488141578080516" departLane="free"/>
  <flow id="JF254382" begin="5120" fromJunction="J4" toJunction="J7" end="5180" vehsPerHour="17.97478697189206" departLane="free"/>
  <flow id="JF254383" begin="5120" fromJunction="J5" toJunction="J3" end="5180" vehsPerHour="33.06620660600088" departLane="free"/>
  <flow id="JF254384" begin="5120" fromJunction="J5" toJunction="J4" end="5180" vehsPerHour="57.037733266184404" departLane="free"/>
  <flow id="JF254385" begin="5120" fromJunction="J5" toJunction="J6" end="5180" vehsPerHour="46.96993357271195" departLane="free"/>
  <flow id="JF254386" begin="5120" fromJunction="J6" toJunction="J0" end="5180" vehsPerHour="30.092774891779456" departLane="free"/>
  <flow id="JF254387" begin="5120" fromJunction="J6" toJunction="J3" end="5180" vehsPerHour="11.967971829713504" departLane="free"/>
  <flow id="JF254388" begin="5120" fromJunction="J6" toJunction="J4" end="5180" vehsPerHour="38.40137110205881" departLane="free"/>
  <flow id="JF254389" begin="5120" fromJunction="J6" toJunction="J7" end="5180" vehsPerHour="34.87792191331446" departLane="free"/>
  <flow id="JF254390" begin="5120" fromJunction="J7" toJunction="J0" end="5180" vehsPerHour="63.33679995364596" departLane="free"/>
  <flow id="JF254391" begin="5120" fromJunction="J7" toJunction="J3" end="5180" vehsPerHour="5.655859016144159" departLane="free"/>
  <flow id="JF254392" begin="5120" fromJunction="J7" toJunction="J6" end="5180" vehsPerHour="61.32148366452159" departLane="free"/>
  <flow id="JF254393" begin="5180" fromJunction="J0" toJunction="J3" end="5240" vehsPerHour="59.268362740645614" departLane="free"/>
  <flow id="JF254394" begin="5180" fromJunction="J0" toJunction="J4" end="5240" vehsPerHour="59.087749856621485" departLane="free"/>
  <flow id="JF254395" begin="5180" fromJunction="J0" toJunction="J5" end="5240" vehsPerHour="102.08155587790517" departLane="free"/>
  <flow id="JF254396" begin="5180" fromJunction="J0" toJunction="J7" end="5240" vehsPerHour="104.67150672067999" departLane="free"/>
  <flow id="JF254397" begin="5180" fromJunction="J3" toJunction="J0" end="5240" vehsPerHour="37.993760865570174" departLane="free"/>
  <flow id="JF254398" begin="5180" fromJunction="J3" toJunction="J4" end="5240" vehsPerHour="66.74585816954735" departLane="free"/>
  <flow id="JF254399" begin="5180" fromJunction="J3" toJunction="J5" end="5240" vehsPerHour="83.11714723232964" departLane="free"/>
  <flow id="JF254400" begin="5180" fromJunction="J3" toJunction="J6" end="5240" vehsPerHour="116.96029058020875" departLane="free"/>
  <flow id="JF254401" begin="5180" fromJunction="J3" toJunction="J7" end="5240" vehsPerHour="98.31902099625945" departLane="free"/>
  <flow id="JF254402" begin="5180" fromJunction="J4" toJunction="J0" end="5240" vehsPerHour="4.547676265522511" departLane="free"/>
  <flow id="JF254403" begin="5180" fromJunction="J4" toJunction="J3" end="5240" vehsPerHour="64.1830862461752" departLane="free"/>
  <flow id="JF254404" begin="5180" fromJunction="J4" toJunction="J6" end="5240" vehsPerHour="61.55648816931967" departLane="free"/>
  <flow id="JF254405" begin="5180" fromJunction="J5" toJunction="J6" end="5240" vehsPerHour="13.04629728226556" departLane="free"/>
  <flow id="JF254406" begin="5180" fromJunction="J5" toJunction="J7" end="5240" vehsPerHour="20.91115236649563" departLane="free"/>
  <flow id="JF254407" begin="5180" fromJunction="J6" toJunction="J0" end="5240" vehsPerHour="58.420995807101946" departLane="free"/>
  <flow id="JF254408" begin="5180" fromJunction="J6" toJunction="J3" end="5240" vehsPerHour="20.805645740579045" departLane="free"/>
  <flow id="JF254409" begin="5180" fromJunction="J6" toJunction="J4" end="5240" vehsPerHour="49.03927546235003" departLane="free"/>
  <flow id="JF254410" begin="5180" fromJunction="J6" toJunction="J5" end="5240" vehsPerHour="49.495062057901045" departLane="free"/>
  <flow id="JF254411" begin="5180" fromJunction="J7" toJunction="J3" end="5240" vehsPerHour="52.550535061576845" departLane="free"/>
  <flow id="JF254412" begin="5180" fromJunction="J7" toJunction="J4" end="5240" vehsPerHour="11.267920485281792" departLane="free"/>
  <flow id="JF254413" begin="5180" fromJunction="J7" toJunction="J5" end="5240" vehsPerHour="38.5948744185953" departLane="free"/>
  <flow id="JF254414" begin="5180" fromJunction="J7" toJunction="J6" end="5240" vehsPerHour="10.267708790616922" departLane="free"/>
  <flow id="JF254415" begin="5240" fromJunction="J0" toJunction="J3" end="5300" vehsPerHour="113.0950813050673" departLane="free"/>
  <flow id="JF254416" begin="5240" fromJunction="J0" toJunction="J4" end="5300" vehsPerHour="97.37116984252734" departLane="free"/>
  <flow id="JF254417" begin="5240" fromJunction="J0" toJunction="J6" end="5300" vehsPerHour="57.963875867187475" departLane="free"/>
  <flow id="JF254418" begin="5240" fromJunction="J0" toJunction="J7" end="5300" vehsPerHour="101.53524276506559" departLane="free"/>
  <flow id="JF254419" begin="5240" fromJunction="J3" toJunction="J0" end="5300" vehsPerHour="131.40522668438192" departLane="free"/>
  <flow id="JF254420" begin="5240" fromJunction="J3" toJunction="J4" end="5300" vehsPerHour="67.9847094968088" departLane="free"/>
  <flow id="JF254421" begin="5240" fromJunction="J3" toJunction="J5" end="5300" vehsPerHour="5.89685870728489" departLane="free"/>
  <flow id="JF254422" begin="5240" fromJunction="J3" toJunction="J6" end="5300" vehsPerHour="63.215666792256506" departLane="free"/>
  <flow id="JF254423" begin="5240" fromJunction="J3" toJunction="J7" end="5300" vehsPerHour="123.34081214062233" departLane="free"/>
  <flow id="JF254424" begin="5240" fromJunction="J4" toJunction="J0" end="5300" vehsPerHour="68.19674480143021" departLane="free"/>
  <flow id="JF254425" begin="5240" fromJunction="J4" toJunction="J5" end="5300" vehsPerHour="17.473361627056125" departLane="free"/>
  <flow id="JF254426" begin="5240" fromJunction="J4" toJunction="J6" end="5300" vehsPerHour="15.766199914851047" departLane="free"/>
  <flow id="JF254427" begin="5240" fromJunction="J5" toJunction="J3" end="5300" vehsPerHour="48.7063741524471" departLane="free"/>
  <flow id="JF254428" begin="5240" fromJunction="J6" toJunction="J0" end="5300" vehsPerHour="59.011479179872076" departLane="free"/>
  <flow id="JF254429" begin="5240" fromJunction="J6" toJunction="J3" end="5300" vehsPerHour="42.055588632187394" departLane="free"/>
  <flow id="JF254430" begin="5240" fromJunction="J6" toJunction="J4" end="5300" vehsPerHour="26.543330391021083" departLane="free"/>
  <flow id="JF254431" begin="5240" fromJunction="J6" toJunction="J7" end="5300" vehsPerHour="68.45312620974853" departLane="free"/>
  <flow id="JF254432" begin="5240" fromJunction="J7" toJunction="J0" end="5300" vehsPerHour="24.358231717511554" departLane="free"/>
  <flow id="JF254433" begin="5240" fromJunction="J7" toJunction="J4" end="5300" vehsPerHour="12.0759316699058" departLane="free"/>
  <flow id="JF254434" begin="5240" fromJunction="J7" toJunction="J5" end="5300" vehsPerHour="52.71477259638018" departLane="free"/>
  <flow id="JF254435" begin="5240" fromJunction="J7" toJunction="J6" end="5300" vehsPerHour="51.11968870690771" departLane="free"/>
  <flow id="JF254436" begin="5300" fromJunction="J0" toJunction="J3" end="5360" vehsPerHour="54.084585516926666" departLane="free"/>
  <flow id="JF254437" begin="5300" fromJunction="J0" toJunction="J4" end="5360" vehsPerHour="8.668538147233164" departLane="free"/>
  <flow id="JF254438" begin="5300" fromJunction="J0" toJunction="J5" end="5360" vehsPerHour="91.21139877175884" departLane="free"/>
  <flow id="JF254439" begin="5300" fromJunction="J0" toJunction="J6" end="5360" vehsPerHour="53.01304933228278" departLane="free"/>
  <flow id="JF254440" begin="5300" fromJunction="J0" toJunction="J7" end="5360" vehsPerHour="59.67572174284331" departLane="free"/>
  <flow id="JF254441" begin="5300" fromJunction="J3" toJunction="J0" end="5360" vehsPerHour="108.85186606389958" departLane="free"/>
  <flow id="JF254442" begin="5300" fromJunction="J3" toJunction="J4" end="5360" vehsPerHour="73.01652106008177" departLane="free"/>
  <flow id="JF254443" begin="5300" fromJunction="J3" toJunction="J6" end="5360" vehsPerHour="18.857984470164112" departLane="free"/>
  <flow id="JF254444" begin="5300" fromJunction="J4" toJunction="J0" end="5360" vehsPerHour="33.32205694767673" departLane="free"/>
  <flow id="JF254445" begin="5300" fromJunction="J4" toJunction="J3" end="5360" vehsPerHour="19.597111592816976" departLane="free"/>
  <flow id="JF254446" begin="5300" fromJunction="J4" toJunction="J5" end="5360" vehsPerHour="8.854777897594406" departLane="free"/>
  <flow id="JF254447" begin="5300" fromJunction="J4" toJunction="J6" end="5360" vehsPerHour="12.508326800847138" departLane="free"/>
  <flow id="JF254448" begin="5300" fromJunction="J4" toJunction="J7" end="5360" vehsPerHour="67.11765699542063" departLane="free"/>
  <flow id="JF254449" begin="5300" fromJunction="J5" toJunction="J3" end="5360" vehsPerHour="3.4874024606310847" departLane="free"/>
  <flow id="JF254450" begin="5300" fromJunction="J5" toJunction="J6" end="5360" vehsPerHour="63.78290138835608" departLane="free"/>
  <flow id="JF254451" begin="5300" fromJunction="J5" toJunction="J7" end="5360" vehsPerHour="11.997664170513394" departLane="free"/>
  <flow id="JF254452" begin="5300" fromJunction="J6" toJunction="J4" end="5360" vehsPerHour="40.86235332473102" departLane="free"/>
  <flow id="JF254453" begin="5300" fromJunction="J6" toJunction="J7" end="5360" vehsPerHour="38.076305911742956" departLane="free"/>
  <flow id="JF254454" begin="5300" fromJunction="J7" toJunction="J0" end="5360" vehsPerHour="10.161774672360854" departLane="free"/>
  <flow id="JF254455" begin="5300" fromJunction="J7" toJunction="J3" end="5360" vehsPerHour="49.45029277225263" departLane="free"/>
  <flow id="JF254456" begin="5300" fromJunction="J7" toJunction="J5" end="5360" vehsPerHour="61.70098078896618" departLane="free"/>
  <flow id="JF254457" begin="5360" fromJunction="J0" toJunction="J3" end="5420" vehsPerHour="66.64981249065445" departLane="free"/>
  <flow id="JF254458" begin="5360" fromJunction="J0" toJunction="J4" end="5420" vehsPerHour="112.57518192832659" departLane="free"/>
  <flow id="JF254459" begin="5360" fromJunction="J0" toJunction="J5" end="5420" vehsPerHour="3.1657749923551943" departLane="free"/>
  <flow id="JF254460" begin="5360" fromJunction="J0" toJunction="J7" end="5420" vehsPerHour="66.66172345000871" departLane="free"/>
  <flow id="JF254461" begin="5360" fromJunction="J3" toJunction="J4" end="5420" vehsPerHour="108.04187100505044" departLane="free"/>
  <flow id="JF254462" begin="5360" fromJunction="J3" toJunction="J5" end="5420" vehsPerHour="45.854760811361174" departLane="free"/>
  <flow id="JF254463" begin="5360" fromJunction="J3" toJunction="J6" end="5420" vehsPerHour="63.07862857570108" departLane="free"/>
  <flow id="JF254464" begin="5360" fromJunction="J3" toJunction="J7" end="5420" vehsPerHour="63.34239765460722" departLane="free"/>
  <flow id="JF254465" begin="5360" fromJunction="J4" toJunction="J0" end="5420" vehsPerHour="17.942274139349184" departLane="free"/>
  <flow id="JF254466" begin="5360" fromJunction="J4" toJunction="J3" end="5420" vehsPerHour="61.334075627967394" departLane="free"/>
  <flow id="JF254467" begin="5360" fromJunction="J4" toJunction="J5" end="5420" vehsPerHour="25.364392250452028" departLane="free"/>
  <flow id="JF254468" begin="5360" fromJunction="J4" toJunction="J6" end="5420" vehsPerHour="66.65087077413796" departLane="free"/>
  <flow id="JF254469" begin="5360" fromJunction="J4" toJunction="J7" end="5420" vehsPerHour="56.71131189345721" departLane="free"/>
  <flow id="JF254470" begin="5360" fromJunction="J5" toJunction="J0" end="5420" vehsPerHour="37.06406704509643" departLane="free"/>
  <flow id="JF254471" begin="5360" fromJunction="J5" toJunction="J3" end="5420" vehsPerHour="36.56356877754572" departLane="free"/>
  <flow id="JF254472" begin="5360" fromJunction="J5" toJunction="J4" end="5420" vehsPerHour="23.964093177346225" departLane="free"/>
  <flow id="JF254473" begin="5360" fromJunction="J5" toJunction="J6" end="5420" vehsPerHour="59.307265744136956" departLane="free"/>
  <flow id="JF254474" begin="5360" fromJunction="J5" toJunction="J7" end="5420" vehsPerHour="17.882515504198604" departLane="free"/>
  <flow id="JF254475" begin="5360" fromJunction="J6" toJunction="J0" end="5420" vehsPerHour="34.81150426833406" departLane="free"/>
  <flow id="JF254476" begin="5360" fromJunction="J6" toJunction="J3" end="5420" vehsPerHour="20.165862094353272" departLane="free"/>
  <flow id="JF254477" begin="5360" fromJunction="J6" toJunction="J4" end="5420" vehsPerHour="63.418971880917084" departLane="free"/>
  <flow id="JF254478" begin="5360" fromJunction="J6" toJunction="J7" end="5420" vehsPerHour="63.08336091353295" departLane="free"/>
  <flow id="JF254479" begin="5360" fromJunction="J7" toJunction="J4" end="5420" vehsPerHour="67.4940884706512" departLane="free"/>
  <flow id="JF254480" begin="5360" fromJunction="J7" toJunction="J5" end="5420" vehsPerHour="43.131920137424835" departLane="free"/>
  <flow id="JF254481" begin="5360" fromJunction="J7" toJunction="J6" end="5420" vehsPerHour="34.25348716232742" departLane="free"/>
  <flow id="JF254482" begin="5420" fromJunction="J0" toJunction="J3" end="5480" vehsPerHour="52.67703498386446" departLane="free"/>
  <flow id="JF254483" begin="5420" fromJunction="J0" toJunction="J5" end="5480" vehsPerHour="40.28161085410563" departLane="free"/>
  <flow id="JF254484" begin="5420" fromJunction="J0" toJunction="J6" end="5480" vehsPerHour="86.67356176036833" departLane="free"/>
  <flow id="JF254485" begin="5420" fromJunction="J0" toJunction="J7" end="5480" vehsPerHour="90.37846534749715" departLane="free"/>
  <flow id="JF254486" begin="5420" fromJunction="J3" toJunction="J0" end="5480" vehsPerHour="46.67168846339598" departLane="free"/>
  <flow id="JF254487" begin="5420" fromJunction="J3" toJunction="J5" end="5480" vehsPerHour="131.20584611434998" departLane="free"/>
  <flow id="JF254488" begin="5420" fromJunction="J3" toJunction="J6" end="5480" vehsPerHour="67.16936576415571" departLane="free"/>
  <flow id="JF254489" begin="5420" fromJunction="J4" toJunction="J3" end="5480" vehsPerHour="33.590537245678235" departLane="free"/>
  <flow id="JF254490" begin="5420" fromJunction="J4" toJunction="J5" end="5480" vehsPerHour="5.049852763734117" departLane="free"/>
  <flow id="JF254491" begin="5420" fromJunction="J4" toJunction="J7" end="5480" vehsPerHour="27.398412223899594" departLane="free"/>
  <flow id="JF254492" begin="5420" fromJunction="J5" toJunction="J0" end="5480" vehsPerHour="39.57888936300694" departLane="free"/>
  <flow id="JF254493" begin="5420" fromJunction="J5" toJunction="J3" end="5480" vehsPerHour="51.09590023057366" departLane="free"/>
  <flow id="JF254494" begin="5420" fromJunction="J5" toJunction="J4" end="5480" vehsPerHour="47.619199820037764" departLane="free"/>
  <flow id="JF254495" begin="5420" fromJunction="J5" toJunction="J6" end="5480" vehsPerHour="37.71338751046398" departLane="free"/>
  <flow id="JF254496" begin="5420" fromJunction="J6" toJunction="J0" end="5480" vehsPerHour="6.180418136161482" departLane="free"/>
  <flow id="JF254497" begin="5420" fromJunction="J6" toJunction="J3" end="5480" vehsPerHour="35.504303059464085" departLane="free"/>
  <flow id="JF254498" begin="5420" fromJunction="J6" toJunction="J4" end="5480" vehsPerHour="38.76602843314792" departLane="free"/>
  <flow id="JF254499" begin="5420" fromJunction="J6" toJunction="J5" end="5480" vehsPerHour="58.816852706833195" departLane="free"/>
  <flow id="JF254500" begin="5420" fromJunction="J6" toJunction="J7" end="5480" vehsPerHour="31.786914514409123" departLane="free"/>
  <flow id="JF254501" begin="5420" fromJunction="J7" toJunction="J0" end="5480" vehsPerHour="58.013560434171566" departLane="free"/>
  <flow id="JF254502" begin="5420" fromJunction="J7" toJunction="J3" end="5480" vehsPerHour="37.28208269537119" departLane="free"/>
  <flow id="JF254503" begin="5420" fromJunction="J7" toJunction="J5" end="5480" vehsPerHour="23.92049250599701" departLane="free"/>
  <flow id="JF254504" begin="5420" fromJunction="J7" toJunction="J6" end="5480" vehsPerHour="59.676294126804315" departLane="free"/>
  <flow id="JF254505" begin="5480" fromJunction="J0" toJunction="J3" end="5540" vehsPerHour="5.25113464210067" departLane="free"/>
  <flow id="JF254506" begin="5480" fromJunction="J0" toJunction="J4" end="5540" vehsPerHour="79.9969465227489" departLane="free"/>
  <flow id="JF254507" begin="5480" fromJunction="J0" toJunction="J5" end="5540" vehsPerHour="52.0462181176292" departLane="free"/>
  <flow id="JF254508" begin="5480" fromJunction="J0" toJunction="J6" end="5540" vehsPerHour="26.525030613113714" departLane="free"/>
  <flow id="JF254509" begin="5480" fromJunction="J3" toJunction="J0" end="5540" vehsPerHour="108.04958306497753" departLane="free"/>
  <flow id="JF254510" begin="5480" fromJunction="J3" toJunction="J4" end="5540" vehsPerHour="67.69280311629241" departLane="free"/>
  <flow id="JF254511" begin="5480" fromJunction="J3" toJunction="J5" end="5540" vehsPerHour="21.385994923500025" departLane="free"/>
  <flow id="JF254512" begin="5480" fromJunction="J3" toJunction="J6" end="5540" vehsPerHour="95.71250845640907" departLane="free"/>
  <flow id="JF254513" begin="5480" fromJunction="J4" toJunction="J0" end="5540" vehsPerHour="16.32431318153752" departLane="free"/>
  <flow id="JF254514" begin="5480" fromJunction="J4" toJunction="J3" end="5540" vehsPerHour="14.261909915164937" departLane="free"/>
  <flow id="JF254515" begin="5480" fromJunction="J4" toJunction="J6" end="5540" vehsPerHour="10.328150946102804" departLane="free"/>
  <flow id="JF254516" begin="5480" fromJunction="J5" toJunction="J3" end="5540" vehsPerHour="53.9902724633714" departLane="free"/>
  <flow id="JF254517" begin="5480" fromJunction="J5" toJunction="J4" end="5540" vehsPerHour="17.591532106599054" departLane="free"/>
  <flow id="JF254518" begin="5480" fromJunction="J5" toJunction="J7" end="5540" vehsPerHour="2.229928994128502" departLane="free"/>
  <flow id="JF254519" begin="5480" fromJunction="J6" toJunction="J0" end="5540" vehsPerHour="50.68164595973759" departLane="free"/>
  <flow id="JF254520" begin="5480" fromJunction="J6" toJunction="J4" end="5540" vehsPerHour="49.32734336772851" departLane="free"/>
  <flow id="JF254521" begin="5480" fromJunction="J6" toJunction="J5" end="5540" vehsPerHour="10.688189021971938" departLane="free"/>
  <flow id="JF254522" begin="5480" fromJunction="J7" toJunction="J0" end="5540" vehsPerHour="17.291427213973286" departLane="free"/>
  <flow id="JF254523" begin="5480" fromJunction="J7" toJunction="J3" end="5540" vehsPerHour="55.96672061508557" departLane="free"/>
  <flow id="JF254524" begin="5480" fromJunction="J7" toJunction="J4" end="5540" vehsPerHour="27.53512391889081" departLane="free"/>
  <flow id="JF254525" begin="5480" fromJunction="J7" toJunction="J5" end="5540" vehsPerHour="12.946219489343031" departLane="free"/>