<?xml version="1.0" encoding="UTF-8"?>
<routes xmlns:xsi="http://www.w3.org/2001/XMLSchema-instance" xsi:noNamespaceSchemaLocation="http://sumo.dlr.de/xsd/routes_file.xsd">
  <flow id="JF256049" begin="0" fromJunction="J0" toJunction="J3" end="5000" vehsPerHour="168.2685215066915" departLane="free"/>
  <flow id="JF256050" begin="0" fromJunction="J3" toJunction="J0" end="5000" vehsPerHour="484.5677531610098" departLane="free"/>
  <flow id="JF256051" begin="0" fromJunction="J0" toJunction="J7" end="5000" vehsPerHour="102.87923457970845" departLane="free"/>
  <flow id="JF256052" begin="0" fromJunction="J0" toJunction="J4" end="5000" vehsPerHour="130.56435479820422" departLane="free"/>
  <flow id="JF256053" begin="0" fromJunction="J0" toJunction="J6" end="5000" vehsPerHour="7.46625359605911" departLane="free"/>
  <flow id="JF256054" begin="0" fromJunction="J0" toJunction="J5" end="5000" vehsPerHour="109.64443707326315" departLane="free"/>
  <flow id="JF256055" begin="0" fromJunction="J3" toJunction="J7" end="5000" vehsPerHour="60.51569148033279" departLane="free"/>
  <flow id="JF256056" begin="0" fromJunction="J3" toJunction="J4" end="5000" vehsPerHour="111.19653848885305" departLane="free"/>
  <flow id="JF256057" begin="0" fromJunction="J3" toJunction="J6" end="5000" vehsPerHour="119.20027834249585" departLane="free"/>
  <flow id="JF256058" begin="0" fromJunction="J3" toJunction="J5" end="5000" vehsPerHour="97.88118921197744" departLane="free"/>
  <flow id="JF256059" begin="0" fromJunction="J7" toJunction="J4" end="5000" vehsPerHour="53.37110010872055" departLane="free"/>
  <flow id="JF256060" begin="0" fromJunction="J7" toJunction="J6" end="5000" vehsPerHour="62.12300364033501" departLane="free"/>
  <flow id="JF256061" begin="0" fromJunction="J7" toJunction="J5" end="5000" vehsPerHour="40.37632903287869" departLane="free"/>
  <flow id="JF256062" begin="0" fromJunction="J4" toJunction="J7" end="5000" vehsPerHour="36.944557448898244" departLane="free"/>
  <flow id="JF256063" begin="0" fromJunction="J4" toJunction="J6" end="5000" vehsPerHour="36.09779950587165" departLane="free"/>
  <flow id="JF256064" begin="0" fromJunction="J4" toJunction="J5" end="5000" vehsPerHour="55.01224800930899" departLane="free"/>
  <flow id="JF256065" begin="0" fromJunction="J6" toJunction="J7" end="5000" vehsPerHour="15.897516531894851" departLane="free"/>
  <flow id="JF256066" begin="0" fromJunction="J6" toJunction="J4" end="5000" vehsPerHour="50.082557821025226" departLane="free"/>
  <flow id="JF256067" begin="0" fromJunction="J6" toJunction="J5" end="5000" vehsPerHour="14.823492961671871" departLane="free"/>
  <flow id="JF256068" begin="0" fromJunction="J5" toJunction="J7" end="5000" vehsPerHour="10.736225869727797" departLane="free"/>
  <flow id="JF256069" begin="0" fromJunction="J5" toJunction="J4" end="5000" vehsPerHour="9.57621661444938" departLane="free"/>
  <flow id="JF256070" begin="0" fromJunction="J5" toJunction="J6" end="5000" vehsPerHour="35.75287035975586" departLane="free"/>
  <flow id="JF256071" begin="0" fromJunction="J7" toJunction="J0" end="5000" vehsPerHour="52.09010441811791" departLane="free"/>
  <flow id="JF256072" begin="0" fromJunction="J7" toJunction="J3" end="5000" vehsPerHour="48.377970153429025" departLane="free"/>
  <flow id="JF256073" begin="0" fromJunction="J4" toJunction="J0" end="5000" vehsPerHour="22.391945861461185" departLane="free"/>
  <flow id="JF256074" begin="0" fromJunction="J4" toJunction="J3" end="5000" vehsPerHour="36.7865760833027" departLane="free"/>
  <flow id="JF256075" begin="0" fromJunction="J6" toJunction="J0" end="5000" vehsPerHour="32.98760884764946" departLane="free"/>
  <flow id="JF256076" begin="0" fromJunction="J6" toJunction="J3" end="5000" vehsPerHour="28.261769114378957" departLane="free"/>
  <flow id="JF256077" begin="0" fromJunction="J5" toJunction="J0" end="5000" vehsPerHour="35.662557042976744" departLane="free"/>
  <flow id="JF256078" begin="0" fromJunction="J5" toJunction="J3" end="5000" vehsPerHour="29.24194688592126" departLane="free"/>
  <flow id="JF256079" begin="5000" fromJunction="J0" toJunction="J3" end="5060" vehsPerHour="2.210638141533235" departLane="free"/>
  <flow id="JF256080" begin="5000" fromJunction="J0" toJunction="J4" end="5060" vehsPerHour="73.1667106627608" departLane="free"/>
  <flow id="JF256081" begin="5000" fromJunction="J0" toJunction="J6" end="5060" vehsPerHour="102.46500266674325" departLane="free"/>
  <flow id="JF256082" begin="5000" fromJunction="J3" toJunction="J0" end="5060" vehsPerHour="115.48645767771534" departLane="free"/>
  <flow id="JF256083" begin="5000" fromJunction="J3" toJunction="J4" end="5060" vehsPerHour="3.2265798752562755" departLane="free"/>
  <flow id="JF256084" begin="5000" fromJunction="J3" toJunction="J5" end="5060" vehsPerHour="104.62221620017414" departLane="free"/>
  <flow id="JF256085" begin="5000" fromJunction="J3" toJunction="J6" end="5060" vehsPerHour="104.75812452642825" departLane="free"/>
  <flow id="JF256086" begin="5000" fromJunction="J3" toJunction="J7" end="5060" vehsPerHour="74.20236260253313" departLane="free"/>
  <flow id="JF256087" begin="5000" fromJunction="J4" toJunction="J0" end="5060" vehsPerHour="27.49997107700149" departLane="free"/>
  <flow id="JF256088" begin="5000" fromJunction="J4" toJunction="J3" end="5060" vehsPerHour="14.288610990064404" departLane="free"/>
  <flow id="JF256089" begin="5000" fromJunction="J4" toJunction="J7" end="5060" vehsPerHour="8.823291375592163" departLane="free"/>
  <flow id="JF256090" begin="5000" fromJunction="J5" toJunction="J0" end="5060" vehsPerHour="44.677790545883276" departLane="free"/>
  <flow id="JF256091" begin="5000" fromJunction="J5" toJunction="J3" end="5060" vehsPerHour="64.64682580029562" departLane="free"/>
  <flow id="JF256092" begin="5000" fromJunction="J5" toJunction="J4" end="5060" vehsPerHour="62.171935939502795" departLane="free"/>
  <flow id="JF256093" begin="5000" fromJunction="J5" toJunction="J7" end="5060" vehsPerHour="2.4516014652102758" departLane="free"/>
  <flow id="JF256094" begin="5000" fromJunction="J6" toJunction="J0" end="5060" vehsPerHour="31.847396698377622" departLane="free"/>
  <flow id="JF256095" begin="5000" fromJunction="J6" toJunction="J3" end="5060" vehsPerHour="23.44614366113685" departLane="free"/>
  <flow id="JF256096" begin="5000" fromJunction="J6" toJunction="J4" end="5060" vehsPerHour="0.7100362785089666" departLane="free"/>
  <flow id="JF256097" begin="5000" fromJunction="J6" toJunction="J7" end="5060" vehsPerHour="2.9289797984770978" departLane="free"/>
  <flow id="JF256098" begin="5000" fromJunction="J7" toJunction="J0" end="5060" vehsPerHour="26.569972288099876" departLane="free"/>
  <flow id="JF256099" begin="5000" fromJunction="J7" toJunction="J4" end="5060" vehsPerHour="50.04102486574024" departLane="free"/>
  <flow id="JF256100" begin="5000" fromJunction="J7" toJunction="J5" end="5060" vehsPerHour="12.588915021053243" departLane="free"/>
  <flow id="JF256101" begin="5000" fromJunction="J7" toJunction="J6" end="5060" vehsPerHour="3.6893143223498583" departLane="free"/>
  <flow id="JF256102" begin="5060" fromJunction="J0" toJunction="J3" end="5120" vehsPerHour="50.47537287121304" departLane="free"/>
  <flow id="JF256103" begin="5060" fromJunction="J0" toJunction="J5" end="5120" vehsPerHour="18.658887256656413" departLane="free"/>
  <flow id="JF256104" begin="5060" fromJunction="J0" toJunction="J7" end="5120" vehsPerHour="1.7350417106848282" departLane="free"/>
  <flow id="JF256105" begin="5060" fromJunction="J3" toJunction="J0" end="5120" vehsPerHour="67.6154794998695" departLane="free"/>
  <flow id="JF256106" begin="5060" fromJunction="J3" toJunction="J5" end="5120" vehsPerHour="109.19981639038757" departLane="free"/>
  <flow id="JF256107" begin="5060" fromJunction="J3" toJunction="J6" end="5120" vehsPerHour="23.22060316976462" departLane="free"/>
  <flow id="JF256108" begin="5060" fromJunction="J4" toJunction="J3" end="5120" vehsPerHour="10.881922040214127" departLane="free"/>
  <flow id="JF256109" begin="5060" fromJunction="J4" toJunction="J5" end="5120" vehsPerHour="23.884993158420183" departLane="free"/>
  <flow id="JF256110" begin="5060" fromJunction="J4" toJunction="J7" end="5120" vehsPerHour="59.32620371252847" departLane="free"/>
  <flow id="JF256111" begin="5060" fromJunction="J5" toJunction="J0" end="5120" vehsPerHour="60.95631532524851" departLane="free"/>
  <flow id="JF256112" begin="5060" fromJunction="J5" toJunction="J3" end="5120" vehsPerHour="37.37481051472417" departLane="free"/>
  <flow id="JF256113" begin="5060" fromJunction="J5" toJunction="J4" end="5120" vehsPerHour="35.728453993431195" departLane="free"/>
  <flow id="JF256114" begin="5060" fromJunction="J5" toJunction="J6" end="5120" vehsPerHour="13.509419852998303" departLane="free"/>
  <flow id="JF256115" begin="5060" fromJunction="J5" toJunction="J7" end="5120" vehsPerHour="11.586799378061075" departLane="free"/>
  <flow id="JF256116" begin="5060" fromJunction="J6" toJunction="J0" end="5120" vehsPerHour="10.02596062077385" departLane="free"/>
  <flow id="JF256117" begin="5060" fromJunction="J6" toJunction="J3" end="5120" vehsPerHour="48.25647444810441" departLane="free"/>
  <flow id="JF256118" begin="5060" fromJunction="J6" toJunction="J5" end="5120" vehsPerHour="26.571928061205117" departLane="free"/>
  <flow id="JF256119" begin="5060" fromJunction="J6" toJunction="J7" end="5120" vehsPerHour="35.58112291487369" departLane="free"/>
  <flow id="JF256120" begin="5060" fromJunction="J7" toJunction="J0" end="5120" vehsPerHour="66.81819502362873" departLane="free"/>
  <flow id="JF256121" begin="5060" fromJunction="J7" toJunction="J3" end="5120" vehsPerHour="51.02621840550686" departLane="free"/>
  <flow id="JF256122" begin="5060" fromJunction="J7" toJunction="J4" end="5120" vehsPerHour="14.443633499830186" departLane="free"/>
  <flow id="JF256123" begin="5120" fromJunction="J0" toJunction="J3" end="5180" vehsPerHour="67.50574113037648" departLane="free"/>
  <flow id="JF256124" begin="5120" fromJunction="J3" toJunction="J4" end="5180" vehsPerHour="80.79580200151703" departLane="free"/>
  <flow id="JF256125" begin="5120" fromJunction="J3" toJunction="J5" end="5180" vehsPerHour="123.83201818707929" departLane="free"/>
  <flow id="JF256126" begin="5120" fromJunction="J3" toJunction="J7" end="5180" vehsPerHour="39.3960390054117" departLane="free"/>
  <flow id="JF256127" begin="5120" fromJunction="J4" toJunction="J0" end="5180" vehsPerHour="30.771691242958685" departLane="free"/>
  <flow id="JF256128" begin="5120" fromJunction="J4" toJunction="J3" end="5180" vehsPerHour="48.80111611216151" departLane="free"/>
  <flow id="JF256129" begin="5120" fromJunction="J4" toJunction="J6" end="5180" vehsPerHour="42.219299642573816" departLane="free"/>
  <flow id="JF256130" begin="5120" fromJunction="J5" toJunction="J0" end="5180" vehsPerHour="16.65708772050261" departLane="free"/>
  <flow id="JF256131" begin="5120" fromJunction="J5" toJunction="J4" end="5180" vehsPerHour="67.0799502266131" departLane="free"/>
  <flow id="JF256132" begin="5120" fromJunction="J5" toJunction="J7" end="5180" vehsPerHour="38.682951714711926" departLane="free"/>
  <flow id="JF256133" begin="5120" fromJunction="J6" toJunction="J0" end="5180" vehsPerHour="31.382863946471648" departLane="free"/>
  <flow id="JF256134" begin="5120" fromJunction="J6" toJunction="J3" end="5180" vehsPerHour="44.20868892981661" departLane="free"/>
  <flow id="JF256135" begin="5120" fromJunction="J6" toJunction="J4" end="5180" vehsPerHour="39.49439710926719" departLane="free"/>
  <flow id="JF256136" begin="5120" fromJunction="J6" toJunction="J5" end="5180" vehsPerHour="26.440139965777806" departLane="free"/>
  <flow id="JF256137" begin="5120" fromJunction="J7" toJunction="J0" end="5180" vehsPerHour="13.658280518962707" departLane="free"/>
  <flow id="JF256138" begin="5120" fromJunction="J7" toJunction="J3" end="5180" vehsPerHour="15.31686447507015" departLane="free"/>
  <flow id="JF256139" begin="5120" fromJunction="J7" toJunction="J4" end="5180" vehsPerHour="57.22089237759915" departLane="free"/>
  <flow id="JF256140" begin="5120" fromJunction="J7" toJunction="J5" end="5180" vehsPerHour="28.992040172682586" departLane="free"/>
  <flow id="JF256141" begin="5180" fromJunction="J0" toJunction="J3" end="5240" vehsPerHour="40.29472401464169" departLane="free"/>
  <flow id="JF256142" begin="5180" fromJunction="J0" toJunction="J4" end="5240" vehsPerHour="38.38921895049919" departLane="free"/>
  <flow id="JF256143" begin="5180" fromJunction="J0" toJunction="J6" end="5240" vehsPerHour="3.452392526444248" departLane="free"/>
  <flow id="JF256144" begin="5180" fromJunction="J0" toJunction="J7" end="5240" vehsPerHour="133.2091374521367" departLane="free"/>
  <flow id="JF256145" begin="5180" fromJunction="J3" toJunction="J6" end="5240" vehsPerHour="69.01659947022435" departLane="free"/>
  <flow id="JF256146" begin="5180" fromJunction="J3" toJunction="J7" end="5240" vehsPerHour="123.73173592304283" departLane="free"/>
  <flow id="JF256147" begin="5180" fromJunction="J4" toJunction="J0" end="5240" vehsPerHour="39.13890439310851" departLane="free"/>
  <flow id="JF256148" begin="5180" fromJunction="J4" toJunction="J3" end="5240" vehsPerHour="36.16674280115297" departLane="free"/>
  <flow id="JF256149" begin="5180" fromJunction="J4" toJunction="J5" end="5240" vehsPerHour="51.12388062303223" departLane="free"/>
  <flow id="JF256150" begin="5180" fromJunction="J4" toJunction="J6" end="5240" vehsPerHour="16.034125211188393" departLane="free"/>
  <flow id="JF256151" begin="5180" fromJunction="J4" toJunction="J7" end="5240" vehsPerHour="18.681828813852114" departLane="free"/>
  <flow id="JF256152" begin="5180" fromJunction="J5" toJunction="J4" end="5240" vehsPerHour="14.608192120323272" departLane="free"/>
  <flow id="JF256153" begin="5180" fromJunction="J5" toJunction="J6" end="5240" vehsPerHour="2.940686237728832" departLane="free"/>
  <flow id="JF256154" begin="5180" fromJunction="J5" toJunction="J7" end="5240" vehsPerHour="51.73139327623299" departLane="free"/>
  <flow id="JF256155" begin="5180" fromJunction="J6" toJunction="J3" end="5240" vehsPerHour="17.772678471352965" departLane="free"/>
  <flow id="JF256156" begin="5180" fromJunction="J6" toJunction="J4" end="5240" vehsPerHour="56.031239686735" departLane="free"/>
  <flow id="JF256157" begin="5180" fromJunction="J6" toJunction="J5" end="5240" vehsPerHour="59.89553207884933" departLane="free"/>
  <flow id="JF256158" begin="5180" fromJunction="J6" toJunction="J7" end="5240" vehsPerHour="61.59957490990278" departLane="free"/>
  <flow id="JF256159" begin="5180" fromJunction="J7" toJunction="J0" end="5240" vehsPerHour="50.3728043801743" departLane="free"/>
  <flow id="JF256160" begin="5180" fromJunction="J7" toJunction="J3" end="5240" vehsPerHour="10.557751288428667" departLane="free"/>
  <flow id="JF256161" begin="5180" fromJunction="J7" toJunction="J4" end="5240" vehsPerHour="0.031233592851104688" departLane="free"/>
  <flow id="JF256162" begin="5180" fromJunction="J7" toJunction="J5" end="5240" vehsPerHour="27.255700082682825" departLane="free"/>
  <flow id="JF256163" begin="5180" fromJunction="J7" toJunction="J6" end="5240" vehsPerHour="40.92696088209728" departLane="free"/>
  <flow id="JF256164" begin="5240" fromJunction="J0" toJunction="J3" end="5300" vehsPerHour="5.826892760657427" departLane="free"/>
  <flow id="JF256165" begin="5240" fromJunction="J0" toJunction="J4" end="5300" vehsPerHour="102.89487030770752" departLane="free"/>
  <flow id="JF256166" begin="5240" fromJunction="J0" toJunction="J5" end="5300" vehsPerHour="107.85391626613239" departLane="free"/>
  <flow id="JF256167" begin="5240" fromJunction="J0" toJunction="J6" end="5300" vehsPerHour="84.74031907154225" departLane="free"/>
  <flow id="JF256168" begin="5240" fromJunction="J0" toJunction="J7" end="5300" vehsPerHour="9.41550473878128" departLane="free"/>
  <flow id="JF256169" begin="5240" fromJunction="J3" toJunction="J0" end="5300" vehsPerHour="13.264649243734505" departLane="free"/>
  <flow id="JF256170" begin="5240" fromJunction="J3" toJunction="J4" end="5300" vehsPerHour="46.372449770921385" departLane="free"/>
  <flow id="JF256171" begin="5240" fromJunction="J3" toJunction="J5" end="5300" vehsPerHour="120.84753114854942" departLane="free"/>
  <flow id="JF256172" begin="5240" fromJunction="J3" toJunction="J6" end="5300" vehsPerHour="121.08144707792347" departLane="free"/>
  <flow id="JF256173" begin="5240" fromJunction="J4" toJunction="J0" end="5300" vehsPerHour="15.10951604940644" departLane="free"/>
  <flow id="JF256174" begin="5240" fromJunction="J4" toJunction="J3" end="5300" vehsPerHour="46.04227221037509" departLane="free"/>
  <flow id="JF256175" begin="5240" fromJunction="J5" toJunction="J0" end="5300" vehsPerHour="58.58837820814677" departLane="free"/>
  <flow id="JF256176" begin="5240" fromJunction="J5" toJunction="J3" end="5300" vehsPerHour="41.657596157529625" departLane="free"/>
  <flow id="JF256177" begin="5240" fromJunction="J5" toJunction="J4" end="5300" vehsPerHour="21.612160410372873" departLane="free"/>
  <flow id="JF256178" begin="5240" fromJunction="J5" toJunction="J6" end="5300" vehsPerHour="52.97015793365939" departLane="free"/>
  <flow id="JF256179" begin="5240" fromJunction="J6" toJunction="J0" end="5300" vehsPerHour="18.55064825095361" departLane="free"/>
  <flow id="JF256180" begin="5240" fromJunction="J6" toJunction="J3" end="5300" vehsPerHour="0.029243444352789662" departLane="free"/>
  <flow id="JF256181" begin="5240" fromJunction="J6" toJunction="J4" end="5300" vehsPerHour="42.94804430704762" departLane="free"/>
  <flow id="JF256182" begin="5240" fromJunction="J6" toJunction="J5" end="5300" vehsPerHour="20.05498913376828" departLane="free"/>
  <flow id="JF256183" begin="5240" fromJunction="J7" toJunction="J0" end="5300" vehsPerHour="27.453233782812923" departLane="free"/>
  <flow id="JF256184" begin="5240" fromJunction="J7" toJunction="J3" end="5300" vehsPerHour="1.70660138547982" departLane="free"/>
  <flow id="JF256185" begin="5240" fromJunction="J7" toJunction="J4" end="5300" vehsPerHour="64.30739297781402" departLane="free"/>
  <flow id="JF256186" begin="5240" fromJunction="J7" toJunction="J5" end="5300" vehsPerHour="63.88797223736608" departLane="free"/>
  <flow id="JF256187" begin="5300" fromJunction="J0" toJunction="J5" end="5360" vehsPerHour="119.75288399135286" departLane="free"/>
  <flow id="JF256188" begin="5300" fromJunction="J0" toJunction="J6" end="5360" vehsPerHour="28.58770453771732" departLane="free"/>
  <flow id="JF256189" begin="5300" fromJunction="J3" toJunction="J0" end="5360" vehsPerHour="97.82854947366705" departLane="free"/>
  <flow id="JF256190" begin="5300" fromJunction="J3" toJunction="J6" end="5360" vehsPerHour="134.92539340370294" departLane="free"/>
  <flow id="JF256191" begin="5300" fromJunction="J3" toJunction="J7" end="5360" vehsPerHour="116.86369613475574" departLane="free"/>
  <flow id="JF256192" begin="5300" fromJunction="J4" toJunction="J0" end="5360" vehsPerHour="19.3034570247415" departLane="free"/>
  <flow id="JF256193" begin="5300" fromJunction="J4" toJunction="J3" end="5360" vehsPerHour="18.842213393321614" departLane="free"/>
  <flow id="JF256194" begin="5300" fromJunction="J4" toJunction="J5" end="5360" vehsPerHour="1.0173753674788784" departLane="free"/>
  <flow id="JF256195" begin="5300" fromJunction="J4" toJunction="J6" end="5360" vehsPerHour="40.50783892909514" departLane="free"/>
  <flow id="JF256196" begin="5300" fromJunction="J4" toJunction="J7" end="5360" vehsPerHour="65.14986660135888" departLane="free"/>
  <flow id="JF256197" begin="5300" fromJunction="J5" toJunction="J0" end="5360" vehsPerHour="37.7127325625973" departLane="free"/>
  <flow id="JF256198" begin="5300" fromJunction="J5" toJunction="J4" end="5360" vehsPerHour="7.357359492433002" departLane="free"/>
  <flow id="JF256199" begin="5300" fromJunction="J5" toJunction="J6" end="5360" vehsPerHour="6.715984050879788" departLane="free"/>
  <flow id="JF256200" begin="5300" fromJunction="J5" toJunction="J7" end="5360" vehsPerHour="20.702016139522296" departLane="free"/>
  <flow id="JF256201" begin="5300" fromJunction="J6" toJunction="J3" end="5360" vehsPerHour="16.964690020564046" departLane="free"/>
  <flow id="JF256202" begin="5300" fromJunction="J6" toJunction="J7" end="5360" vehsPerHour="66.16198519959023" departLane="free"/>
  <flow id="JF256203" begin="5300" fromJunction="J7" toJunction="J3" end="5360" vehsPerHour="56.305797946870065" departLane="free"/>
  <flow id="JF256204" begin="5300" fromJunction="J7" toJunction="J5" end="5360" vehsPerHour="32.49179162633513" departLane="free"/>
  <flow id="JF256205" begin="5300" fromJunction="J7" toJunction="J6" end="5360" vehsPerHour="54.95381268485435" departLane="free"/>
  <flow id="JF256206" begin="5360" fromJunction="J0" toJunction="J3" end="5420" vehsPerHour="68.18434049175144" departLane="free"/>
  <flow id="JF256207" begin="5360" fromJunction="J0" toJunction="J5" end="5420" vehsPerHour="107.20358096844951" departLane="free"/>
  <flow id="JF256208" begin="5360" fromJunction="J0" toJunction="J6" end="5420" vehsPerHour="41.2146166854059" departLane="free"/>
  <flow id="JF256209" begin="5360" fromJunction="J0" toJunction="J7" end="5420" vehsPerHour="69.09644078014679" departLane="free"/>
  <flow id="JF256210" begin="5360" fromJunction="J3" toJunction="J0" end="5420" vehsPerHour="110.22910757039523" departLane="free"/>
  <flow id="JF256211" begin="5360" fromJunction="J3" toJunction="J4" end="5420" vehsPerHour="75.69613777633191" departLane="free"/>
  <flow id="JF256212" begin="5360" fromJunction="J3" toJunction="J5" end="5420" vehsPerHour="11.155871766574466" departLane="free"/>
  <flow id="JF256213" begin="5360" fromJunction="J3" toJunction="J6" end="5420" vehsPerHour="69.12170865941675" departLane="free"/>
  <flow id="JF256214" begin="5360" fromJunction="J3" toJunction="J7" end="5420" vehsPerHour="64.12306211587399" departLane="free"/>
  <flow id="JF256215" begin="5360" fromJunction="J4" toJunction="J6" end="5420" vehsPerHour="40.30850043636663" departLane="free"/>
  <flow id="JF256216" begin="5360" fromJunction="J4" toJunction="J7" end="5420" vehsPerHour="30.21599908605241" departLane="free"/>
  <flow id="JF256217" begin="5360" fromJunction="J5" toJunction="J0" end="5420" vehsPerHour="38.56535255087807" departLane="free"/>
  <flow id="JF256218" begin="5360" fromJunction="J5" toJunction="J3" end="5420" vehsPerHour="25.626089135761433" departLane="free"/>
  <flow id="JF256219" begin="5360" fromJunction="J5" toJunction="J6" end="5420" vehsPerHour="7.6637455888380694" departLane="free"/>
  <flow id="JF256220" begin="5360" fromJunction="J5" toJunction="J7" end="5420" vehsPerHour="58.848521151487056" departLane="free"/>
  <flow id="JF256221" begin="5360" fromJunction="J6" toJunction="J0" end="5420" vehsPerHour="32.120410080160816" departLane="free"/>
  <flow id="JF256222" begin="5360" fromJunction="J6" toJunction="J4" end="5420" vehsPerHour="20.94035835904492" departLane="free"/>
  <flow id="JF256223" begin="5360" fromJunction="J6" toJunction="J5" end="5420" vehsPerHour="1.4889463100344673" departLane="free"/>
  <flow id="JF256224" begin="5360" fromJunction="J6" toJunction="J7" end="5420" vehsPerHour="2.1291863184876227" departLane="free"/>
  <flow id="JF256225" begin="5360" fromJunction="J7" toJunction="J0" end="5420" vehsPerHour="5.5122055067748095" departLane="free"/>
  <flow id="JF256226" begin="5360" fromJunction="J7" toJunction="J3" end="5420" vehsPerHour="21.442364372707537" departLane="free"/>
  <flow id="JF256227" begin="5360" fromJunction="J7" toJunction="J4" end="5420" vehsPerHour="47.25281568467107" departLane="free"/>
  <flow id="JF256228" begin="5360" fromJunction="J7" toJunction="J5" end="5420" vehsPerHour="29.184997899985554" departLane="free"/>
  <flow id="JF256229" begin="5360" fromJunction="J7" toJunction="J6" end="5420" vehsPerHour="48.91872132061243" departLane="free"/>
  <flow id="JF256230" begin="5420" fromJunction="J0" toJunction="J4" end="5480" vehsPerHour="46.03760742037101" departLane="free"/>
  <flow id="JF256231" begin="5420" fromJunction="J0" toJunction="J6" end="5480" vehsPerHour="24.603304624089972" departLane="free"/>
  <flow id="JF256232" begin="5420" fromJunction="J0" toJunction="J7" end="5480" vehsPerHour="57.51872087080772" departLane="free"/>
  <flow id="JF256233" begin="5420" fromJunction="J3" toJunction="J4" end="5480" vehsPerHour="51.746968608111" departLane="free"/>
  <flow id="JF256234" begin="5420" fromJunction="J3" toJunction="J5" end="5480" vehsPerHour="65.95537927671502" departLane="free"/>
  <flow id="JF256235" begin="5420" fromJunction="J3" toJunction="J6" end="5480" vehsPerHour="54.83193394973511" departLane="free"/>
  <flow id="JF256236" begin="5420" fromJunction="J3" toJunction="J7" end="5480" vehsPerHour="100.82981483362046" departLane="free"/>
  <flow id="JF256237" begin="5420" fromJunction="J4" toJunction="J3" end="5480" vehsPerHour="68.35024641818883" departLane="free"/>
  <flow id="JF256238" begin="5420" fromJunction="J4" toJunction="J5" end="5480" vehsPerHour="32.13596785801295" departLane="free"/>
  <flow id="JF256239" begin="5420" fromJunction="J5" toJunction="J4" end="5480" vehsPerHour="50.725541542087335" departLane="free"/>
  <flow id="JF256240" begin="5420" fromJunction="J5" toJunction="J6" end="5480" vehsPerHour="52.85379982308296" departLane="free"/>
  <flow id="JF256241" begin="5420" fromJunction="J5" toJunction="J7" end="5480" vehsPerHour="57.92022067493842" departLane="free"/>
  <flow id="JF256242" begin="5420" fromJunction="J6" toJunction="J0" end="5480" vehsPerHour="20.186460841027223" departLane="free"/>
  <flow id="JF256243" begin="5420" fromJunction="J6" toJunction="J3" end="5480" vehsPerHour="20.451375092205787" departLane="free"/>
  <flow id="JF256244" begin="5420" fromJunction="J6" toJunction="J7" end="5480" vehsPerHour="36.438874857289974" departLane="free"/>
  <flow id="JF256245" begin="5420" fromJunction="J7" toJunction="J3" end="5480" vehsPerHour="18.9580745138331" departLane="free"/>
  <flow id="JF256246" begin="5420" fromJunction="J7" toJunction="J4" end="5480" vehsPerHour="55.601512416827795" departLane="free"/>
  <flow id="JF256247" begin="5420" fromJunction="J7" toJunction="J5" end="5480" vehsPerHour="0.28797756599660773" departLane="free"/>
  <flow id="JF256248" begin="5420" fromJunction="J7" toJunction="J6" end="5480" vehsPerHour="10.793661512765384" departLane="free"/>
  <flow id="JF256249" begin="5480" fromJunction="J0" toJunction="J4" end="5540" vehsPerHour="18.353667018896974" departLane="free"/>
  <flow id="JF256250" begin="5480" fromJunction="J0" toJunction="J5" end="5540" vehsPerHour="38.8516140428083" departLane="free"/>
  <flow id="JF256251" begin="5480" fromJunction="J0" toJunction="J7" end="5540" vehsPerHour="114.50016114791256" departLane="free"/>
  <flow id="JF256252" begin="5480" fromJunction="J3" toJunction="J0" end="5540" vehsPerHour="48.17276554819497" departLane="free"/>
  <flow id="JF256253" begin="5480" fromJunction="J3" toJunction="J4" end="5540" vehsPerHour="82.28975209508314" departLane="free"/>
  <flow id="JF256254" begin="5480" fromJunction="J3" toJunction="J5" end="5540" vehsPerHour="46.93732180513621" departLane="free"/>
  <flow id="JF256255" begin="5480" fromJunction="J3" toJunction="J6" end="5540" vehsPerHour="22.59252182462123" departLane="free"/>
  <flow id="JF256256" begin="5480" fromJunction="J3" toJunction="J7" end="5540" vehsPerHour="125.02036994567408" departLane="free"/>
  <flow id="JF256257" begin="5480" fromJunction="J4" toJunction="J0" end="5540" vehsPerHour="51.392759093727086" departLane="free"/>
  <flow id="JF256258" begin="5480" fromJunction="J4" toJunction="J3" end="5540" vehsPerHour="9.147920657677675" departLane="free"/>
  <flow id="JF256259" begin="5480" fromJunction="J4" toJunction="J6" end="5540" vehsPerHour="12.968255204533365" departLane="free"/>
  <flow id="JF256260" begin="5480" fromJunction="J4" toJunction="J7" end="5540" vehsPerHour="21.61777185411251" departLane="free"/>
  <flow id="JF256261" begin="5480" fromJunction="J5" toJunction="J0" end="5540" vehsPerHour="12.143194247196476" departLane="free"/>
  <flow id="JF256262" begin="5480" fromJunction="J5" toJunction="J3" end="5540" vehsPerHour="4.606693134553755" departLane="free"/>
  <flow id="JF256263" begin="5480" fromJunction="J5" toJunction="J4" end="5540" vehsPerHour="51.36745555182112" departLane="free"/>
  <flow id="JF256264" begin="5480" fromJunction="J5" toJunction="J6" end="5540" vehsPerHour="65.63827484898661" departLane="free"/>
  <flow id="JF256265" begin="5480" fromJunction="J5" toJunction="J7" end="5540" vehsPerHour="3.462668878053093" departLane="free"/>
  <flow id="JF256266" begin="5480" fromJunction="J6" toJunction="J0" end="5540" vehsPerHour="42.712204153768" departLane="free"/>
  <flow id="JF256267" begin="5480" fromJunction="J6" toJunction="J3" end="5540" vehsPerHour="31.738183517447705" departLane="free"/>
  <flow id="JF256268" begin="5480" fromJunction="J6" toJunction="J5" end="5540" vehsPerHour="35.279699792185845" departLane="free"/>
  <flow id="JF256269" begin="5480" fromJunction="J6" toJunction="J7" end="5540" vehsPerHour="28.210278044956578" departLane="free"/>
  <flow id="JF256270" begin="5480" fromJunction="J7" toJunction="J3" end="5540" vehsPerHour="54.39368308666454" departLane="free"/>
  <flow id="JF256271" begin="5480" fromJunction="J7" toJunction="J4" end="5540" vehsPerHour="16.044016291095353" departLane="free"/>
  <flow id="JF256272" begin="5480" fromJunction="J7" toJunction="J5" end="5540" vehsPerHour="66.19357433712668" departLane="free"/>
  <flow id="JF256273" begin="5540" fromJunction="J0" toJunction="J3" end="5600" vehsPerHour="11.175059517753379" departLane="free"/>