<?xml version="1.0" encoding="UTF-8"?>
<routes xmlns:xsi="http://www.w3.org/2001/XMLSchema-instance" xsi:noNamespaceSchemaLocation="http://sumo.dlr.de/xsd/routes_file.xsd">
  <flow id="JF259596" begin="0" fromJunction="J0" toJunction="J3" end="5000" vehsPerHour="432.94525097399327" departLane="free"/>
  <flow id="JF259597" begin="0" fromJunction="J3" toJunction="J0" end="5000" vehsPerHour="496.2689964571143" departLane="free"/>
  <flow id="JF259598" begin="0" fromJunction="J0" toJunction="J7" end="5000" vehsPerHour="128.27455019798458" departLane="free"/>
  <flow id="JF259599" begin="0" fromJunction="J0" toJunction="J4" end="5000" vehsPerHour="80.008783013829" departLane="free"/>
  <flow id="JF259600" begin="0" fromJunction="J0" toJunction="J6" end="5000" vehsPerHour="110.03266402290485" departLane="free"/>
  <flow id="JF259601" begin="0" fromJunction="J0" toJunction="J5" end="5000" vehsPerHour="90.18661732891363" departLane="free"/>
  <flow id="JF259602" begin="0" fromJunction="J3" toJunction="J7" end="5000" vehsPerHour="19.01764796859271" departLane="free"/>
  <flow id="JF259603" begin="0" fromJunction="J3" toJunction="J4" end="5000" vehsPerHour="46.804510994608485" departLane="free"/>
  <flow id="JF259604" begin="0" fromJunction="J3" toJunction="J6" end="5000" vehsPerHour="121.36344521978322" departLane="free"/>
  <flow id="JF259605" begin="0" fromJunction="J3" toJunction="J5" end="5000" vehsPerHour="129.93623432352098" departLane="free"/>
  <flow id="JF259606" begin="0" fromJunction="J7" toJunction="J4" end="5000" vehsPerHour="33.52926914720331" departLane="free"/>
  <flow id="JF259607" begin="0" fromJunction="J7" toJunction="J6" end="5000" vehsPerHour="47.35871644357886" departLane="free"/>
  <flow id="JF259608" begin="0" fromJunction="J7" toJunction="J5" end="5000" vehsPerHour="58.211884664422044" departLane="free"/>
  <flow id="JF259609" begin="0" fromJunction="J4" toJunction="J7" end="5000" vehsPerHour="26.04959569724632" departLane="free"/>
  <flow id="JF259610" begin="0" fromJunction="J4" toJunction="J6" end="5000" vehsPerHour="18.334090339431405" departLane="free"/>
  <flow id="JF259611" begin="0" fromJunction="J4" toJunction="J5" end="5000" vehsPerHour="57.37771116224104" departLane="free"/>
  <flow id="JF259612" begin="0" fromJunction="J6" toJunction="J7" end="5000" vehsPerHour="41.99116614714326" departLane="free"/>
  <flow id="JF259613" begin="0" fromJunction="J6" toJunction="J4" end="5000" vehsPerHour="60.003164982954885" departLane="free"/>
  <flow id="JF259614" begin="0" fromJunction="J6" toJunction="J5" end="5000" vehsPerHour="43.89621799065155" departLane="free"/>
  <flow id="JF259615" begin="0" fromJunction="J5" toJunction="J7" end="5000" vehsPerHour="19.468078796685234" departLane="free"/>
  <flow id="JF259616" begin="0" fromJunction="J5" toJunction="J4" end="5000" vehsPerHour="32.63345807661826" departLane="free"/>
  <flow id="JF259617" begin="0" fromJunction="J5" toJunction="J6" end="5000" vehsPerHour="2.0947045656536716" departLane="free"/>
  <flow id="JF259618" begin="0" fromJunction="J7" toJunction="J0" end="5000" vehsPerHour="36.199120887730906" departLane="free"/>
  <flow id="JF259619" begin="0" fromJunction="J7" toJunction="J3" end="5000" vehsPerHour="58.01630482681448" departLane="free"/>
  <flow id="JF259620" begin="0" fromJunction="J4" toJunction="J0" end="5000" vehsPerHour="24.995643874780438" departLane="free"/>
  <flow id="JF259621" begin="0" fromJunction="J4" toJunction="J3" end="5000" vehsPerHour="31.40174534297143" departLane="free"/>
  <flow id="JF259622" begin="0" fromJunction="J6" toJunction="J0" end="5000" vehsPerHour="68.14591637063249" departLane="free"/>
  <flow id="JF259623" begin="0" fromJunction="J6" toJunction="J3" end="5000" vehsPerHour="22.367298308675696" departLane="free"/>
  <flow id="JF259624" begin="0" fromJunction="J5" toJunction="J0" end="5000" vehsPerHour="54.1327099896966" departLane="free"/>
  <flow id="JF259625" begin="0" fromJunction="J5" toJunction="J3" end="5000" vehsPerHour="33.960496617245205" departLane="free"/>
  <flow id="JF259626" begin="5000" fromJunction="J0" toJunction="J3" end="5060" vehsPerHour="98.75561438615931" departLane="free"/>
  <flow id="JF259627" begin="5000" fromJunction="J0" toJunction="J4" end="5060" vehsPerHour="0.591014639226878" departLane="free"/>
  <flow id="JF259628" begin="5000" fromJunction="J0" toJunction="J6" end="5060" vehsPerHour="49.85084913731862" departLane="free"/>
  <flow id="JF259629" begin="5000" fromJunction="J0" toJunction="J7" end="5060" vehsPerHour="35.85422777576113" departLane="free"/>
  <flow id="JF259630" begin="5000" fromJunction="J3" toJunction="J0" end="5060" vehsPerHour="64.03157359372338" departLane="free"/>
  <flow id="JF259631" begin="5000" fromJunction="J3" toJunction="J4" end="5060" vehsPerHour="95.35523257069072" departLane="free"/>
  <flow id="JF259632" begin="5000" fromJunction="J3" toJunction="J5" end="5060" vehsPerHour="118.635899421769" departLane="free"/>
  <flow id="JF259633" begin="5000" fromJunction="J4" toJunction="J3" end="5060" vehsPerHour="31.394895887071453" departLane="free"/>
  <flow id="JF259634" begin="5000" fromJunction="J4" toJunction="J5" end="5060" vehsPerHour="48.52819589774247" departLane="free"/>
  <flow id="JF259635" begin="5000" fromJunction="J5" toJunction="J3" end="5060" vehsPerHour="26.49298398135888" departLane="free"/>
  <flow id="JF259636" begin="5000" fromJunction="J5" toJunction="J7" end="5060" vehsPerHour="57.99684462979963" departLane="free"/>
  <flow id="JF259637" begin="5000" fromJunction="J6" toJunction="J0" end="5060" vehsPerHour="26.707020101118225" departLane="free"/>
  <flow id="JF259638" begin="5000" fromJunction="J6" toJunction="J3" end="5060" vehsPerHour="47.343435579586185" departLane="free"/>
  <flow id="JF259639" begin="5000" fromJunction="J6" toJunction="J7" end="5060" vehsPerHour="60.848833136303256" departLane="free"/>
  <flow id="JF259640" begin="5000" fromJunction="J7" toJunction="J0" end="5060" vehsPerHour="51.15637721072589" departLane="free"/>
  <flow id="JF259641" begin="5000" fromJunction="J7" toJunction="J3" end="5060" vehsPerHour="18.40295940150535" departLane="free"/>
  <flow id="JF259642" begin="5000" fromJunction="J7" toJunction="J5" end="5060" vehsPerHour="66.53555787897845" departLane="free"/>
  <flow id="JF259643" begin="5000" fromJunction="J7" toJunction="J6" end="5060" vehsPerHour="42.05800129748729" departLane="free"/>
  <flow id="JF259644" begin="5060" fromJunction="J0" toJunction="J4" end="5120" vehsPerHour="74.20513496128827" departLane="free"/>
  <flow id="JF259645" begin="5060" fromJunction="J0" toJunction="J5" end="5120" vehsPerHour="21.684336371244527" departLane="free"/>
  <flow id="JF259646" begin="5060" fromJunction="J0" toJunction="J6" end="5120" vehsPerHour="14.293765788637476" departLane="free"/>
  <flow id="JF259647" begin="5060" fromJunction="J0" toJunction="J7" end="5120" vehsPerHour="101.67642979468053" departLane="free"/>
  <flow id="JF259648" begin="5060" fromJunction="J3" toJunction="J5" end="5120" vehsPerHour="62.65566246388927" departLane="free"/>
  <flow id="JF259649" begin="5060" fromJunction="J3" toJunction="J6" end="5120" vehsPerHour="23.734426691979397" departLane="free"/>
  <flow id="JF259650" begin="5060" fromJunction="J4" toJunction="J0" end="5120" vehsPerHour="59.17860338963053" departLane="free"/>
  <flow id="JF259651" begin="5060" fromJunction="J4" toJunction="J5" end="5120" vehsPerHour="50.331401629645214" departLane="free"/>
  <flow id="JF259652" begin="5060" fromJunction="J5" toJunction="J0" end="5120" vehsPerHour="25.41334291382277" departLane="free"/>
  <flow id="JF259653" begin="5060" fromJunction="J5" toJunction="J4" end="5120" vehsPerHour="39.257221425640175" departLane="free"/>
  <flow id="JF259654" begin="5060" fromJunction="J5" toJunction="J6" end="5120" vehsPerHour="42.90147425269063" departLane="free"/>
  <flow id="JF259655" begin="5060" fromJunction="J5" toJunction="J7" end="5120" vehsPerHour="25.332862913937305" departLane="free"/>
  <flow id="JF259656" begin="5060" fromJunction="J6" toJunction="J0" end="5120" vehsPerHour="4.63944129852569" departLane="free"/>
  <flow id="JF259657" begin="5060" fromJunction="J6" toJunction="J4" end="5120" vehsPerHour="32.2034672902135" departLane="free"/>
  <flow id="JF259658" begin="5060" fromJunction="J7" toJunction="J3" end="5120" vehsPerHour="20.42533223044431" departLane="free"/>
  <flow id="JF259659" begin="5060" fromJunction="J7" toJunction="J4" end="5120" vehsPerHour="9.680455514443809" departLane="free"/>
  <flow id="JF259660" begin="5060" fromJunction="J7" toJunction="J5" end="5120" vehsPerHour="50.171911204807316" departLane="free"/>
  <flow id="JF259661" begin="5060" fromJunction="J7" toJunction="J6" end="5120" vehsPerHour="12.512871296591682" departLane="free"/>
  <flow id="JF259662" begin="5120" fromJunction="J0" toJunction="J3" end="5180" vehsPerHour="131.1168451208336" departLane="free"/>
  <flow id="JF259663" begin="5120" fromJunction="J0" toJunction="J5" end="5180" vehsPerHour="39.185010119240054" departLane="free"/>
  <flow id="JF259664" begin="5120" fromJunction="J0" toJunction="J6" end="5180" vehsPerHour="7.171989615623569" departLane="free"/>
  <flow id="JF259665" begin="5120" fromJunction="J0" toJunction="J7" end="5180" vehsPerHour="70.31549809955328" departLane="free"/>
  <flow id="JF259666" begin="5120" fromJunction="J3" toJunction="J0" end="5180" vehsPerHour="42.59079814687101" departLane="free"/>
  <flow id="JF259667" begin="5120" fromJunction="J3" toJunction="J4" end="5180" vehsPerHour="8.430946775549964" departLane="free"/>
  <flow id="JF259668" begin="5120" fromJunction="J3" toJunction="J5" end="5180" vehsPerHour="95.74006043680346" departLane="free"/>
  <flow id="JF259669" begin="5120" fromJunction="J3" toJunction="J6" end="5180" vehsPerHour="21.50455999453969" departLane="free"/>
  <flow id="JF259670" begin="5120" fromJunction="J3" toJunction="J7" end="5180" vehsPerHour="135.23157495125255" departLane="free"/>
  <flow id="JF259671" begin="5120" fromJunction="J4" toJunction="J5" end="5180" vehsPerHour="66.85014759789586" departLane="free"/>
  <flow id="JF259672" begin="5120" fromJunction="J4" toJunction="J6" end="5180" vehsPerHour="39.83676960640387" departLane="free"/>
  <flow id="JF259673" begin="5120" fromJunction="J5" toJunction="J0" end="5180" vehsPerHour="33.73204248273846" departLane="free"/>
  <flow id="JF259674" begin="5120" fromJunction="J5" toJunction="J3" end="5180" vehsPerHour="60.849742967984604" departLane="free"/>
  <flow id="JF259675" begin="5120" fromJunction="J5" toJunction="J4" end="5180" vehsPerHour="45.54570467443647" departLane="free"/>
  <flow id="JF259676" begin="5120" fromJunction="J5" toJunction="J6" end="5180" vehsPerHour="42.87869781001973" departLane="free"/>
  <flow id="JF259677" begin="5120" fromJunction="J6" toJunction="J0" end="5180" vehsPerHour="8.198690366068996" departLane="free"/>
  <flow id="JF259678" begin="5120" fromJunction="J6" toJunction="J5" end="5180" vehsPerHour="34.308574686902624" departLane="free"/>
  <flow id="JF259679" begin="5120" fromJunction="J6" toJunction="J7" end="5180" vehsPerHour="12.913637066266856" departLane="free"/>
  <flow id="JF259680" begin="5120" fromJunction="J7" toJunction="J0" end="5180" vehsPerHour="58.02635811964038" departLane="free"/>
  <flow id="JF259681" begin="5120" fromJunction="J7" toJunction="J4" end="5180" vehsPerHour="59.844429159176435" departLane="free"/>
  <flow id="JF259682" begin="5120" fromJunction="J7" toJunction="J6" end="5180" vehsPerHour="4.316344528963369" departLane="free"/>
  <flow id="JF259683" begin="5180" fromJunction="J0" toJunction="J3" end="5240" vehsPerHour="60.16655300414076" departLane="free"/>
  <flow id="JF259684" begin="5180" fromJunction="J0" toJunction="J4" end="5240" vehsPerHour="60.54493153003422" departLane="free"/>
  <flow id="JF259685" begin="5180" fromJunction="J0" toJunction="J6" end="5240" vehsPerHour="8.52769322646729" departLane="free"/>
  <flow id="JF259686" begin="5180" fromJunction="J0" toJunction="J7" end="5240" vehsPerHour="40.81717789087416" departLane="free"/>
  <flow id="JF259687" begin="5180" fromJunction="J3" toJunction="J0" end="5240" vehsPerHour="10.205492956823385" departLane="free"/>
  <flow id="JF259688" begin="5180" fromJunction="J3" toJunction="J4" end="5240" vehsPerHour="124.18375200663101" departLane="free"/>
  <flow id="JF259689" begin="5180" fromJunction="J4" toJunction="J0" end="5240" vehsPerHour="39.85716914316091" departLane="free"/>
  <flow id="JF259690" begin="5180" fromJunction="J4" toJunction="J3" end="5240" vehsPerHour="67.06862798036848" departLane="free"/>
  <flow id="JF259691" begin="5180" fromJunction="J4" toJunction="J6" end="5240" vehsPerHour="55.0681377116715" departLane="free"/>
  <flow id="JF259692" begin="5180" fromJunction="J4" toJunction="J7" end="5240" vehsPerHour="42.80413786846592" departLane="free"/>
  <flow id="JF259693" begin="5180" fromJunction="J5" toJunction="J0" end="5240" vehsPerHour="1.9864706047829663" departLane="free"/>
  <flow id="JF259694" begin="5180" fromJunction="J5" toJunction="J3" end="5240" vehsPerHour="57.466296982240074" departLane="free"/>
  <flow id="JF259695" begin="5180" fromJunction="J5" toJunction="J7" end="5240" vehsPerHour="34.216201477191795" departLane="free"/>
  <flow id="JF259696" begin="5180" fromJunction="J6" toJunction="J0" end="5240" vehsPerHour="50.08649665743219" departLane="free"/>
  <flow id="JF259697" begin="5180" fromJunction="J6" toJunction="J3" end="5240" vehsPerHour="33.86081613887566" departLane="free"/>
  <flow id="JF259698" begin="5180" fromJunction="J6" toJunction="J4" end="5240" vehsPerHour="32.90412106979013" departLane="free"/>
  <flow id="JF259699" begin="5180" fromJunction="J6" toJunction="J5" end="5240" vehsPerHour="24.317587748626472" departLane="free"/>
  <flow id="JF259700" begin="5180" fromJunction="J6" toJunction="J7" end="5240" vehsPerHour="24.029275643799426" departLane="free"/>
  <flow id="JF259701" begin="5180" fromJunction="J7" toJunction="J0" end="5240" vehsPerHour="29.13307219090665" departLane="free"/>
  <flow id="JF259702" begin="5180" fromJunction="J7" toJunction="J3" end="5240" vehsPerHour="46.69883269012924" departLane="free"/>
  <flow id="JF259703" begin="5180" fromJunction="J7" toJunction="J5" end="5240" vehsPerHour="22.776139216663307" departLane="free"/>
  <flow id="JF259704" begin="5180" fromJunction="J7" toJunction="J6" end="5240" vehsPerHour="37.01140113002456" departLane="free"/>
  <flow id="JF259705" begin="5240" fromJunction="J0" toJunction="J4" end="5300" vehsPerHour="107.13340303377463" departLane="free"/>
  <flow id="JF259706" begin="5240" fromJunction="J0" toJunction="J5" end="5300" vehsPerHour="83.77583491545708" departLane="free"/>
  <flow id="JF259707" begin="5240" fromJunction="J0" toJunction="J6" end="5300" vehsPerHour="64.39763598074833" departLane="free"/>
  <flow id="JF259708" begin="5240" fromJunction="J0" toJunction="J7" end="5300" vehsPerHour="85.70547553017524" departLane="free"/>
  <flow id="JF259709" begin="5240" fromJunction="J3" toJunction="J0" end="5300" vehsPerHour="62.5486065208794" departLane="free"/>
  <flow id="JF259710" begin="5240" fromJunction="J3" toJunction="J4" end="5300" vehsPerHour="20.191431897001557" departLane="free"/>
  <flow id="JF259711" begin="5240" fromJunction="J3" toJunction="J5" end="5300" vehsPerHour="106.30677799443569" departLane="free"/>
  <flow id="JF259712" begin="5240" fromJunction="J3" toJunction="J6" end="5300" vehsPerHour="114.47563313308302" departLane="free"/>
  <flow id="JF259713" begin="5240" fromJunction="J3" toJunction="J7" end="5300" vehsPerHour="96.95509094461124" departLane="free"/>
  <flow id="JF259714" begin="5240" fromJunction="J4" toJunction="J0" end="5300" vehsPerHour="10.600966513621305" departLane="free"/>
  <flow id="JF259715" begin="5240" fromJunction="J4" toJunction="J6" end="5300" vehsPerHour="49.66001506091248" departLane="free"/>
  <flow id="JF259716" begin="5240" fromJunction="J4" toJunction="J7" end="5300" vehsPerHour="30.029561608630175" departLane="free"/>
  <flow id="JF259717" begin="5240" fromJunction="J5" toJunction="J0" end="5300" vehsPerHour="26.79033949920275" departLane="free"/>
  <flow id="JF259718" begin="5240" fromJunction="J5" toJunction="J3" end="5300" vehsPerHour="19.726556756478338" departLane="free"/>
  <flow id="JF259719" begin="5240" fromJunction="J5" toJunction="J4" end="5300" vehsPerHour="18.035260963433792" departLane="free"/>
  <flow id="JF259720" begin="5240" fromJunction="J6" toJunction="J4" end="5300" vehsPerHour="17.3117079044692" departLane="free"/>
  <flow id="JF259721" begin="5240" fromJunction="J6" toJunction="J7" end="5300" vehsPerHour="61.53713080977635" departLane="free"/>
  <flow id="JF259722" begin="5240" fromJunction="J7" toJunction="J0" end="5300" vehsPerHour="34.953531295995504" departLane="free"/>
  <flow id="JF259723" begin="5240" fromJunction="J7" toJunction="J3" end="5300" vehsPerHour="54.02667125728698" departLane="free"/>
  <flow id="JF259724" begin="5240" fromJunction="J7" toJunction="J4" end="5300" vehsPerHour="31.46244682347248" departLane="free"/>
  <flow id="JF259725" begin="5300" fromJunction="J0" toJunction="J3" end="5360" vehsPerHour="124.03338600990448" departLane="free"/>
  <flow id="JF259726" begin="5300" fromJunction="J0" toJunction="J4" end="5360" vehsPerHour="20.246169512284368" departLane="free"/>
  <flow id="JF259727" begin="5300" fromJunction="J0" toJunction="J5" end="5360" vehsPerHour="15.490061700455074" departLane="free"/>
  <flow id="JF259728" begin="5300" fromJunction="J0" toJunction="J6" end="5360" vehsPerHour="64.07698633436249" departLane="free"/>
  <flow id="JF259729" begin="5300" fromJunction="J0" toJunction="J7" end="5360" vehsPerHour="2.7531706126327755" departLane="free"/>
  <flow id="JF259730" begin="5300" fromJunction="J3" toJunction="J0" end="5360" vehsPerHour="66.7308918629982" departLane="free"/>
  <flow id="JF259731" begin="5300" fromJunction="J3" toJunction="J4" end="5360" vehsPerHour="78.1314991527301" departLane="free"/>
  <flow id="JF259732" begin="5300" fromJunction="J3" toJunction="J5" end="5360" vehsPerHour="78.82382731787467" departLane="free"/>
  <flow id="JF259733" begin="5300" fromJunction="J3" toJunction="J6" end="5360" vehsPerHour="96.43465228416612" departLane="free"/>
  <flow id="JF259734" begin="5300" fromJunction="J3" toJunction="J7" end="5360" vehsPerHour="83.71878623208256" departLane="free"/>
  <flow id="JF259735" begin="5300" fromJunction="J4" toJunction="J0" end="5360" vehsPerHour="17.15716468484896" departLane="free"/>
  <flow id="JF259736" begin="5300" fromJunction="J4" toJunction="J3" end="5360" vehsPerHour="1.8412296253173248" departLane="free"/>
  <flow id="JF259737" begin="5300" fromJunction="J4" toJunction="J6" end="5360" vehsPerHour="53.52131156379171" departLane="free"/>
  <flow id="JF259738" begin="5300" fromJunction="J4" toJunction="J7" end="5360" vehsPerHour="15.631008739984859" departLane="free"/>
  <flow id="JF259739" begin="5300" fromJunction="J5" toJunction="J0" end="5360" vehsPerHour="48.63614490553596" departLane="free"/>
  <flow id="JF259740" begin="5300" fromJunction="J5" toJunction="J3" end="5360" vehsPerHour="43.0549500731483" departLane="free"/>
  <flow id="JF259741" begin="5300" fromJunction="J5" toJunction="J6" end="5360" vehsPerHour="16.934583634940495" departLane="free"/>
  <flow id="JF259742" begin="5300" fromJunction="J5" toJunction="J7" end="5360" vehsPerHour="3.0971996470356573" departLane="free"/>
  <flow id="JF259743" begin="5300" fromJunction="J6" toJunction="J3" end="5360" vehsPerHour="40.65897937857903" departLane="free"/>
  <flow id="JF259744" begin="5300" fromJunction="J6" toJunction="J4" end="5360" vehsPerHour="25.431754832569407" departLane="free"/>
  <flow id="JF259745" begin="5300" fromJunction="J6" toJunction="J5" end="5360" vehsPerHour="27.233794202628" departLane="free"/>
  <flow id="JF259746" begin="5300" fromJunction="J6" toJunction="J7" end="5360" vehsPerHour="60.68754423838735" departLane="free"/>
  <flow id="JF259747" begin="5300" fromJunction="J7" toJunction="J3" end="5360" vehsPerHour="26.986424210285435" departLane="free"/>
  <flow id="JF259748" begin="5300" fromJunction="J7" toJunction="J6" end="5360" vehsPerHour="54.934367014372285" departLane="free"/>
  <flow id="JF259749" begin="5360" fromJunction="J0" toJunction="J5" end="5420" vehsPerHour="2.0156226726341635" departLane="free"/>
  <flow id="JF259750" begin="5360" fromJunction="J0" toJunction="J6" end="5420" vehsPerHour="82.8043375801657" departLane="free"/>
  <flow id="JF259751" begin="5360" fromJunction="J0" toJunction="J7" end="5420" vehsPerHour="60.884561107675914" departLane="free"/>
  <flow id="JF259752" begin="5360" fromJunction="J3" toJunction="J0" end="5420" vehsPerHour="73.60717455439696" departLane="free"/>
  <flow id="JF259753" begin="5360" fromJunction="J3" toJunction="J5" end="5420" vehsPerHour="60.26760183708288" departLane="free"/>
  <flow id="JF259754" begin="5360" fromJunction="J3" toJunction="J6" end="5420" vehsPerHour="57.46149761923457" departLane="free"/>
  <flow id="JF259755" begin="5360" fromJunction="J4" toJunction="J0" end="5420" vehsPerHour="35.60663138348628" departLane="free"/>
  <flow id="JF259756" begin="5360" fromJunction="J4" toJunction="J6" end="5420" vehsPerHour="32.46185958396623" departLane="free"/>
  <flow id="JF259757" begin="5360" fromJunction="J4" toJunction="J7" end="5420" vehsPerHour="14.727341544086036" departLane="free"/>
  <flow id="JF259758" begin="5360" fromJunction="J5" toJunction="J0" end="5420" vehsPerHour="22.555196589407945" departLane="free"/>
  <flow id="JF259759" begin="5360" fromJunction="J5" toJunction="J3" end="5420" vehsPerHour="52.66256799142906" departLane="free"/>
  <flow id="JF259760" begin="5360" fromJunction="J5" toJunction="J4" end="5420" vehsPerHour="24.701528715332554" departLane="free"/>
  <flow id="JF259761" begin="5360" fromJunction="J5" toJunction="J6" end="5420" vehsPerHour="23.970409480896866" departLane="free"/>
  <flow id="JF259762" begin="5360" fromJunction="J5" toJunction="J7" end="5420" vehsPerHour="22.19107288720795" departLane="free"/>
  <flow id="JF259763" begin="5360" fromJunction="J6" toJunction="J0" end="5420" vehsPerHour="64.15782944786916" departLane="free"/>
  <flow id="JF259764" begin="5360" fromJunction="J6" toJunction="J4" end="5420" vehsPerHour="8.17888066739381" departLane="free"/>
  <flow id="JF259765" begin="5360" fromJunction="J6" toJunction="J7" end="5420" vehsPerHour="56.241739897686855" departLane="free"/>
  <flow id="JF259766" begin="5360" fromJunction="J7" toJunction="J3" end="5420" vehsPerHour="53.12273476497829" departLane="free"/>
  <flow id="JF259767" begin="5420" fromJunction="J0" toJunction="J3" end="5480" vehsPerHour="16.402274529434184" departLane="free"/>
  <flow id="JF259768" begin="5420" fromJunction="J0" toJunction="J4" end="5480" vehsPerHour="92.29001512136757" departLane="free"/>
  <flow id="JF259769" begin="5420" fromJunction="J0" toJunction="J6" end="5480" vehsPerHour="107.64417881392838" departLane="free"/>
  <flow id="JF259770" begin="5420" fromJunction="J3" toJunction="J0" end="5480" vehsPerHour="87.16010476101029" departLane="free"/>
  <flow id="JF259771" begin="5420" fromJunction="J3" toJunction="J4" end="5480" vehsPerHour="37.01645932847193" departLane="free"/>
  <flow id="JF259772" begin="5420" fromJunction="J3" toJunction="J5" end="5480" vehsPerHour="133.5966302038112" departLane="free"/>
  <flow id="JF259773" begin="5420" fromJunction="J3" toJunction="J6" end="5480" vehsPerHour="84.80809184325659" departLane="free"/>
  <flow id="JF259774" begin="5420" fromJunction="J4" toJunction="J0" end="5480" vehsPerHour="34.702796072083295" departLane="free"/>
  <flow id="JF259775" begin="5420" fromJunction="J4" toJunction="J3" end="5480" vehsPerHour="58.115746618000536" departLane="free"/>
  <flow id="JF259776" begin="5420" fromJunction="J4" toJunction="J5" end="5480" vehsPerHour="35.538127536675354" departLane="free"/>
  <flow id="JF259777" begin="5420" fromJunction="J4" toJunction="J6" end="5480" vehsPerHour="15.418647296387318" departLane="free"/>
  <flow id="JF259778" begin="5420" fromJunction="J4" toJunction="J7" end="5480" vehsPerHour="12.339835317874993" departLane="free"/>
  <flow id="JF259779" begin="5420" fromJunction="J5" toJunction="J3" end="5480" vehsPerHour="67.23120497069417" departLane="free"/>
  <flow id="JF259780" begin="5420" fromJunction="J5" toJunction="J6" end="5480" vehsPerHour="31.015182019113727" departLane="free"/>
  <flow id="JF259781" begin="5420" fromJunction="J5" toJunction="J7" end="5480" vehsPerHour="30.862579662576625" departLane="free"/>
  <flow id="JF259782" begin="5420" fromJunction="J6" toJunction="J3" end="5480" vehsPerHour="7.991867997643153" departLane="free"/>
  <flow id="JF259783" begin="5420" fromJunction="J6" toJunction="J4" end="5480" vehsPerHour="50.37632688820373" departLane="free"/>
  <flow id="JF259784" begin="5420" fromJunction="J6" toJunction="J5" end="5480" vehsPerHour="22.691600834036695" departLane="free"/>
  <flow id="JF259785" begin="5420" fromJunction="J7" toJunction="J0" end="5480" vehsPerHour="40.853910254223706" departLane="free"/>
  <flow id="JF259786" begin="5420" fromJunction="J7" toJunction="J3" end="5480" vehsPerHour="36.08102642366964" departLane="free"/>
  <flow id="JF259787" begin="5420" fromJunction="J7" toJunction="J4" end="5480" vehsPerHour="65.39483732335306" departLane="free"/>
  <flow id="JF259788" begin="5420" fromJunction="J7" toJunction="J6" end="5480" vehsPerHour="22.50296693377504" departLane="free"/>
  <flow id="JF259789" begin="5480" fromJunction="J0" toJunction="J3" end="5540" vehsPerHour="72.30986435699306" departLane="free"/>
  <flow id="JF259790" begin="5480" fromJunction="J0" toJunction="J4" end="5540" vehsPerHour="40.32666571829519" departLane="free"/>
  <flow id="JF259791" begin="5480" fromJunction="J0" toJunction="J5" end="5540" vehsPerHour="48.52021831447847" departLane="free"/>
  <flow id="JF259792" begin="5480" fromJunction="J0" toJunction="J6" end="5540" vehsPerHour="90.14356007546446" departLane="free"/>
  <flow id="JF259793" begin="5480" fromJunction="J0" toJunction="J7" end="5540" vehsPerHour="103.43543849408694" departLane="free"/>
  <flow id="JF259794" begin="5480" fromJunction="J3" toJunction="J0" end="5540" vehsPerHour="92.00251908520065" departLane="free"/>
  <flow id="JF259795" begin="5480" fromJunction="J3" toJunction="J4" end="5540" vehsPerHour="95.66718521373689" departLane="free"/>
  <flow id="JF259796" begin="5480" fromJunction="J3" toJunction="J5" end="5540" vehsPerHour="29.838668727383276" departLane="free"/>
  <flow id="JF259797" begin="5480" fromJunction="J3" toJunction="J6" end="5540" vehsPerHour="120.29809887096933" departLane="free"/>
  <flow id="JF259798" begin="5480" fromJunction="J3" toJunction="J7" end="5540" vehsPerHour="46.92496554809268" departLane="free"/>
  <flow id="JF259799" begin="5480" fromJunction="J4" toJunction="J0" end="5540" vehsPerHour="32.34724995037171" departLane="free"/>
  <flow id="JF259800" begin="5480" fromJunction="J4" toJunction="J3" end="5540" vehsPerHour="28.22281246964463" departLane="free"/>
  <flow id="JF259801" begin="5480" fromJunction="J4" toJunction="J5" end="5540" vehsPerHour="29.34000950415648" departLane="free"/>
  <flow id="JF259802" begin="5480" fromJunction="J4" toJunction="J6" end="5540" vehsPerHour="9.538652340162102" departLane="free"/>
  <flow id="JF259803" begin="5480" fromJunction="J4" toJunction="J7" end="5540" vehsPerHour="29.440308813158335" departLane="free"/>
  <flow id="JF259804" begin="5480" fromJunction="J5" toJunction="J0" end="5540" vehsPerHour="4.2689504042004325" departLane="free"/>
  <flow id="JF259805" begin="5480" fromJunction="J5" toJunction="J6" end="5540" vehsPerHour="20.67473769112606" departLane="free"/>
  <flow id="JF259806" begin="5480" fromJunction="J5" toJunction="J7" end="5540" vehsPerHour="28.142396304519316" departLane="free"/>
  <flow id="JF259807" begin="5480" fromJunction="J6" toJunction="J0" end="5540" vehsPerHour="52.20374587925108" departLane="free"/>
  <flow id="JF259808" begin="5480" fromJunction="J6" toJunction="J3" end="5540" vehsPerHour="62.483621240240886" departLane="free"/>
  <flow id="JF259809" begin="5480" fromJunction="J6" toJunction="J4" end="5540" vehsPerHour="10.377045008173422" departLane="free"/>
  <flow id="JF259810" begin="5480" fromJunction="J6" toJunction="J5" end="5540" vehsPerHour="55.820682160257384" departLane="free"/>
  <flow id="JF259811" begin="5480" fromJunction="J6" toJunction="J7" end="5540" vehsPerHour="11.263426852338966" departLane="free"/>
  <flow id="JF259812" begin="5480" fromJunction="J7" toJunction="J0" end="5540" vehsPerHour="47.81183099292387" departLane="free"/>
  <flow id="JF259813" begin="5480" fromJunction="J7" toJunction="J3" end="5540" vehsPerHour="59.88511131476836" departLane="free"/>
  <flow id="JF259814" begin="5480" fromJunction="J7" toJunction="J5" end="5540" vehsPerHour="49.63622955141549" departLane="free"/>
  <flow id="JF259815" begin="5540" fromJunction="J0" toJunction="J3" end="5600" vehsPerHour="82.660769922682" departLane="free"/>
  <flow id="JF259816" begin="5540" fromJunction="J0" toJunction="J6" end="5600" vehsPerHour="19.671639001574142" departLane="free"/>
  <flow id="JF259817" begin="5540" fromJunction="J0" toJunction="J7" end="5600" vehsPerHour="39.48965739859928" departLane="free"/>
  <flow id="JF259818" begin="5540" fromJunction="J3" toJunction="J4" end="5600" vehsPerHour="86.62876717976523" departLane="free"/>
  <flow id="JF259819" begin="5540" fromJunction="J3" toJunction="J5" end="5600" vehsPerHour="83.83567272647431" departLane="free"/>
  <flow id="JF259820" begin="5540" fromJunction="J3" toJunction="J6" end="5600" vehsPerHour="70.70975126950438" departLane="free"/>
  <flow id="JF259821" begin="5540" fromJunction="J3" toJunction="J7" end="5600" vehsPerHour="48.2236734591469" departLane="free"/>