<?xml version="1.0" encoding="UTF-8"?>
<routes xmlns:xsi="http://www.w3.org/2001/XMLSchema-instance" xsi:noNamespaceSchemaLocation="http://sumo.dlr.de/xsd/routes_file.xsd">
  <flow id="JF252559" begin="0" fromJunction="J0" toJunction="J3" end="5000" vehsPerHour="479.60162515165956" departLane="free"/>
  <flow id="JF252560" begin="0" fromJunction="J3" toJunction="J0" end="5000" vehsPerHour="381.15337400936147" departLane="free"/>
  <flow id="JF252561" begin="0" fromJunction="J0" toJunction="J7" end="5000" vehsPerHour="78.26144840654024" departLane="free"/>
  <flow id="JF252562" begin="0" fromJunction="J0" toJunction="J4" end="5000" vehsPerHour="41.26171947083329" departLane="free"/>
  <flow id="JF252563" begin="0" fromJunction="J0" toJunction="J6" end="5000" vehsPerHour="17.91348907398259" departLane="free"/>
  <flow id="JF252564" begin="0" fromJunction="J0" toJunction="J5" end="5000" vehsPerHour="61.44187194936554" departLane="free"/>
  <flow id="JF252565" begin="0" fromJunction="J3" toJunction="J7" end="5000" vehsPerHour="21.436118265102458" departLane="free"/>
  <flow id="JF252566" begin="0" fromJunction="J3" toJunction="J4" end="5000" vehsPerHour="85.27899726091876" departLane="free"/>
  <flow id="JF252567" begin="0" fromJunction="J3" toJunction="J6" end="5000" vehsPerHour="41.79633277202018" departLane="free"/>
  <flow id="JF252568" begin="0" fromJunction="J3" toJunction="J5" end="5000" vehsPerHour="127.1667063938989" departLane="free"/>
  <flow id="JF252569" begin="0" fromJunction="J7" toJunction="J4" end="5000" vehsPerHour="30.983462355541672" departLane="free"/>
  <flow id="JF252570" begin="0" fromJunction="J7" toJunction="J6" end="5000" vehsPerHour="39.06748752014229" departLane="free"/>
  <flow id="JF252571" begin="0" fromJunction="J7" toJunction="J5" end="5000" vehsPerHour="47.450160561869495" departLane="free"/>
  <flow id="JF252572" begin="0" fromJunction="J4" toJunction="J7" end="5000" vehsPerHour="33.76740539925041" departLane="free"/>
  <flow id="JF252573" begin="0" fromJunction="J4" toJunction="J6" end="5000" vehsPerHour="9.91484566929684" departLane="free"/>
  <flow id="JF252574" begin="0" fromJunction="J4" toJunction="J5" end="5000" vehsPerHour="31.019757896261943" departLane="free"/>
  <flow id="JF252575" begin="0" fromJunction="J6" toJunction="J7" end="5000" vehsPerHour="5.476190732329025" departLane="free"/>
  <flow id="JF252576" begin="0" fromJunction="J6" toJunction="J4" end="5000" vehsPerHour="46.57121286429328" departLane="free"/>
  <flow id="JF252577" begin="0" fromJunction="J6" toJunction="J5" end="5000" vehsPerHour="28.740321470217836" departLane="free"/>
  <flow id="JF252578" begin="0" fromJunction="J5" toJunction="J7" end="5000" vehsPerHour="1.6885377867687332" departLane="free"/>
  <flow id="JF252579" begin="0" fromJunction="J5" toJunction="J4" end="5000" vehsPerHour="3.825569982016242" departLane="free"/>
  <flow id="JF252580" begin="0" fromJunction="J5" toJunction="J6" end="5000" vehsPerHour="48.412168572265735" departLane="free"/>
  <flow id="JF252581" begin="0" fromJunction="J7" toJunction="J0" end="5000" vehsPerHour="54.196541527012165" departLane="free"/>
  <flow id="JF252582" begin="0" fromJunction="J7" toJunction="J3" end="5000" vehsPerHour="24.95935887169421" departLane="free"/>
  <flow id="JF252583" begin="0" fromJunction="J4" toJunction="J0" end="5000" vehsPerHour="34.43323246446848" departLane="free"/>
  <flow id="JF252584" begin="0" fromJunction="J4" toJunction="J3" end="5000" vehsPerHour="51.61335282483499" departLane="free"/>
  <flow id="JF252585" begin="0" fromJunction="J6" toJunction="J0" end="5000" vehsPerHour="43.753666315391875" departLane="free"/>
  <flow id="JF252586" begin="0" fromJunction="J6" toJunction="J3" end="5000" vehsPerHour="13.359169237510503" departLane="free"/>
  <flow id="JF252587" begin="0" fromJunction="J5" toJunction="J0" end="5000" vehsPerHour="21.81018255450089" departLane="free"/>
  <flow id="JF252588" begin="0" fromJunction="J5" toJunction="J3" end="5000" vehsPerHour="62.284662407248156" departLane="free"/>
  <flow id="JF252589" begin="5000" fromJunction="J0" toJunction="J3" end="5060" vehsPerHour="71.19673530521777" departLane="free"/>
  <flow id="JF252590" begin="5000" fromJunction="J0" toJunction="J4" end="5060" vehsPerHour="8.434612144170325" departLane="free"/>
  <flow id="JF252591" begin="5000" fromJunction="J0" toJunction="J6" end="5060" vehsPerHour="98.38379905475225" departLane="free"/>
  <flow id="JF252592" begin="5000" fromJunction="J3" toJunction="J0" end="5060" vehsPerHour="128.99507649883958" departLane="free"/>
  <flow id="JF252593" begin="5000" fromJunction="J3" toJunction="J5" end="5060" vehsPerHour="22.548895764854205" departLane="free"/>
  <flow id="JF252594" begin="5000" fromJunction="J3" toJunction="J7" end="5060" vehsPerHour="90.51045773007958" departLane="free"/>
  <flow id="JF252595" begin="5000" fromJunction="J4" toJunction="J5" end="5060" vehsPerHour="17.177204619227197" departLane="free"/>
  <flow id="JF252596" begin="5000" fromJunction="J5" toJunction="J0" end="5060" vehsPerHour="9.077936116535946" departLane="free"/>
  <flow id="JF252597" begin="5000" fromJunction="J5" toJunction="J3" end="5060" vehsPerHour="19.845028579503875" departLane="free"/>
  <flow id="JF252598" begin="5000" fromJunction="J5" toJunction="J4" end="5060" vehsPerHour="6.2472420918382445" departLane="free"/>
  <flow id="JF252599" begin="5000" fromJunction="J5" toJunction="J7" end="5060" vehsPerHour="42.39786334785078" departLane="free"/>
  <flow id="JF252600" begin="5000" fromJunction="J6" toJunction="J3" end="5060" vehsPerHour="5.114078004048494" departLane="free"/>
  <flow id="JF252601" begin="5000" fromJunction="J6" toJunction="J5" end="5060" vehsPerHour="25.056626263465763" departLane="free"/>
  <flow id="JF252602" begin="5000" fromJunction="J6" toJunction="J7" end="5060" vehsPerHour="62.604371444739044" departLane="free"/>
  <flow id="JF252603" begin="5000" fromJunction="J7" toJunction="J3" end="5060" vehsPerHour="24.323034273697072" departLane="free"/>
  <flow id="JF252604" begin="5000" fromJunction="J7" toJunction="J4" end="5060" vehsPerHour="49.30760622680186" departLane="free"/>
  <flow id="JF252605" begin="5000" fromJunction="J7" toJunction="J5" end="5060" vehsPerHour="37.9918171059191" departLane="free"/>
  <flow id="JF252606" begin="5060" fromJunction="J0" toJunction="J3" end="5120" vehsPerHour="42.49847184804542" departLane="free"/>
  <flow id="JF252607" begin="5060" fromJunction="J0" toJunction="J4" end="5120" vehsPerHour="16.218320498881994" departLane="free"/>
  <flow id="JF252608" begin="5060" fromJunction="J0" toJunction="J5" end="5120" vehsPerHour="66.03881142980929" departLane="free"/>
  <flow id="JF252609" begin="5060" fromJunction="J0" toJunction="J6" end="5120" vehsPerHour="44.60736834024482" departLane="free"/>
  <flow id="JF252610" begin="5060" fromJunction="J3" toJunction="J0" end="5120" vehsPerHour="119.89183574792625" departLane="free"/>
  <flow id="JF252611" begin="5060" fromJunction="J3" toJunction="J4" end="5120" vehsPerHour="103.20595872768857" departLane="free"/>
  <flow id="JF252612" begin="5060" fromJunction="J3" toJunction="J5" end="5120" vehsPerHour="129.64983623962283" departLane="free"/>
  <flow id="JF252613" begin="5060" fromJunction="J3" toJunction="J7" end="5120" vehsPerHour="39.68860478471108" departLane="free"/>
  <flow id="JF252614" begin="5060" fromJunction="J4" toJunction="J0" end="5120" vehsPerHour="9.419617494841129" departLane="free"/>
  <flow id="JF252615" begin="5060" fromJunction="J4" toJunction="J5" end="5120" vehsPerHour="56.74894709957684" departLane="free"/>
  <flow id="JF252616" begin="5060" fromJunction="J4" toJunction="J6" end="5120" vehsPerHour="21.281071316642503" departLane="free"/>
  <flow id="JF252617" begin="5060" fromJunction="J4" toJunction="J7" end="5120" vehsPerHour="15.665185688670409" departLane="free"/>
  <flow id="JF252618" begin="5060" fromJunction="J5" toJunction="J0" end="5120" vehsPerHour="41.96491265092692" departLane="free"/>
  <flow id="JF252619" begin="5060" fromJunction="J5" toJunction="J3" end="5120" vehsPerHour="64.80126394170095" departLane="free"/>
  <flow id="JF252620" begin="5060" fromJunction="J5" toJunction="J4" end="5120" vehsPerHour="5.448133045226408" departLane="free"/>
  <flow id="JF252621" begin="5060" fromJunction="J5" toJunction="J6" end="5120" vehsPerHour="44.74236288835262" departLane="free"/>
  <flow id="JF252622" begin="5060" fromJunction="J6" toJunction="J0" end="5120" vehsPerHour="49.77460254537212" departLane="free"/>
  <flow id="JF252623" begin="5060" fromJunction="J6" toJunction="J3" end="5120" vehsPerHour="57.52615166707065" departLane="free"/>
  <flow id="JF252624" begin="5060" fromJunction="J6" toJunction="J4" end="5120" vehsPerHour="36.121703141039106" departLane="free"/>
  <flow id="JF252625" begin="5060" fromJunction="J6" toJunction="J5" end="5120" vehsPerHour="39.316062747156714" departLane="free"/>
  <flow id="JF252626" begin="5060" fromJunction="J6" toJunction="J7" end="5120" vehsPerHour="65.05271509310512" departLane="free"/>
  <flow id="JF252627" begin="5060" fromJunction="J7" toJunction="J0" end="5120" vehsPerHour="67.6354458933886" departLane="free"/>
  <flow id="JF252628" begin="5060" fromJunction="J7" toJunction="J3" end="5120" vehsPerHour="4.796850572449876" departLane="free"/>
  <flow id="JF252629" begin="5060" fromJunction="J7" toJunction="J4" end="5120" vehsPerHour="58.309382177852726" departLane="free"/>
  <flow id="JF252630" begin="5060" fromJunction="J7" toJunction="J5" end="5120" vehsPerHour="51.409483474683" departLane="free"/>
  <flow id="JF252631" begin="5060" fromJunction="J7" toJunction="J6" end="5120" vehsPerHour="54.547812392028774" departLane="free"/>
  <flow id="JF252632" begin="5120" fromJunction="J0" toJunction="J5" end="5180" vehsPerHour="38.63098073531184" departLane="free"/>
  <flow id="JF252633" begin="5120" fromJunction="J0" toJunction="J7" end="5180" vehsPerHour="12.508675513366532" departLane="free"/>
  <flow id="JF252634" begin="5120" fromJunction="J3" toJunction="J4" end="5180" vehsPerHour="66.0259329193861" departLane="free"/>
  <flow id="JF252635" begin="5120" fromJunction="J3" toJunction="J5" end="5180" vehsPerHour="117.58146863203079" departLane="free"/>
  <flow id="JF252636" begin="5120" fromJunction="J3" toJunction="J6" end="5180" vehsPerHour="118.91648025570792" departLane="free"/>
  <flow id="JF252637" begin="5120" fromJunction="J4" toJunction="J3" end="5180" vehsPerHour="40.68476274812602" departLane="free"/>
  <flow id="JF252638" begin="5120" fromJunction="J4" toJunction="J6" end="5180" vehsPerHour="17.10691237835301" departLane="free"/>
  <flow id="JF252639" begin="5120" fromJunction="J4" toJunction="J7" end="5180" vehsPerHour="1.3063804599615172" departLane="free"/>
  <flow id="JF252640" begin="5120" fromJunction="J5" toJunction="J0" end="5180" vehsPerHour="6.011310694678062" departLane="free"/>
  <flow id="JF252641" begin="5120" fromJunction="J5" toJunction="J6" end="5180" vehsPerHour="9.488950751700187" departLane="free"/>
  <flow id="JF252642" begin="5120" fromJunction="J6" toJunction="J0" end="5180" vehsPerHour="36.52426150636216" departLane="free"/>
  <flow id="JF252643" begin="5120" fromJunction="J6" toJunction="J3" end="5180" vehsPerHour="62.0625012391173" departLane="free"/>
  <flow id="JF252644" begin="5120" fromJunction="J6" toJunction="J5" end="5180" vehsPerHour="46.20995829592897" departLane="free"/>
  <flow id="JF252645" begin="5120" fromJunction="J7" toJunction="J0" end="5180" vehsPerHour="49.06202635265865" departLane="free"/>
  <flow id="JF252646" begin="5120" fromJunction="J7" toJunction="J5" end="5180" vehsPerHour="0.3919205642065789" departLane="free"/>
  <flow id="JF252647" begin="5120" fromJunction="J7" toJunction="J6" end="5180" vehsPerHour="57.81010113834185" departLane="free"/>
  <flow id="JF252648" begin="5180" fromJunction="J0" toJunction="J4" end="5240" vehsPerHour="88.06085536905385" departLane="free"/>
  <flow id="JF252649" begin="5180" fromJunction="J0" toJunction="J6" end="5240" vehsPerHour="136.97124944347286" departLane="free"/>
  <flow id="JF252650" begin="5180" fromJunction="J0" toJunction="J7" end="5240" vehsPerHour="37.374802218239495" departLane="free"/>
  <flow id="JF252651" begin="5180" fromJunction="J3" toJunction="J4" end="5240" vehsPerHour="100.0336912156621" departLane="free"/>
  <flow id="JF252652" begin="5180" fromJunction="J3" toJunction="J5" end="5240" vehsPerHour="21.796748138658334" departLane="free"/>
  <flow id="JF252653" begin="5180" fromJunction="J3" toJunction="J6" end="5240" vehsPerHour="103.65691713637523" departLane="free"/>
  <flow id="JF252654" begin="5180" fromJunction="J3" toJunction="J7" end="5240" vehsPerHour="71.1433229874955" departLane="free"/>
  <flow id="JF252655" begin="5180" fromJunction="J4" toJunction="J0" end="5240" vehsPerHour="36.105706438202596" departLane="free"/>
  <flow id="JF252656" begin="5180" fromJunction="J4" toJunction="J3" end="5240" vehsPerHour="41.08040761832623" departLane="free"/>
  <flow id="JF252657" begin="5180" fromJunction="J4" toJunction="J5" end="5240" vehsPerHour="2.3298841932288705" departLane="free"/>
  <flow id="JF252658" begin="5180" fromJunction="J4" toJunction="J6" end="5240" vehsPerHour="15.207531329520119" departLane="free"/>
  <flow id="JF252659" begin="5180" fromJunction="J5" toJunction="J0" end="5240" vehsPerHour="58.94351450486811" departLane="free"/>
  <flow id="JF252660" begin="5180" fromJunction="J5" toJunction="J3" end="5240" vehsPerHour="33.09458753259408" departLane="free"/>
  <flow id="JF252661" begin="5180" fromJunction="J5" toJunction="J4" end="5240" vehsPerHour="13.74608372151193" departLane="free"/>
  <flow id="JF252662" begin="5180" fromJunction="J5" toJunction="J6" end="5240" vehsPerHour="0.3306493528228735" departLane="free"/>
  <flow id="JF252663" begin="5180" fromJunction="J5" toJunction="J7" end="5240" vehsPerHour="36.83095301007513" departLane="free"/>
  <flow id="JF252664" begin="5180" fromJunction="J6" toJunction="J3" end="5240" vehsPerHour="20.0901174962555" departLane="free"/>
  <flow id="JF252665" begin="5180" fromJunction="J6" toJunction="J4" end="5240" vehsPerHour="45.64867872489895" departLane="free"/>
  <flow id="JF252666" begin="5180" fromJunction="J6" toJunction="J5" end="5240" vehsPerHour="23.268493892745006" departLane="free"/>
  <flow id="JF252667" begin="5180" fromJunction="J6" toJunction="J7" end="5240" vehsPerHour="49.72260150761241" departLane="free"/>
  <flow id="JF252668" begin="5180" fromJunction="J7" toJunction="J3" end="5240" vehsPerHour="56.66232817733176" departLane="free"/>
  <flow id="JF252669" begin="5180" fromJunction="J7" toJunction="J4" end="5240" vehsPerHour="49.09953063134993" departLane="free"/>
  <flow id="JF252670" begin="5180" fromJunction="J7" toJunction="J6" end="5240" vehsPerHour="45.06018500670402" departLane="free"/>
  <flow id="JF252671" begin="5240" fromJunction="J0" toJunction="J3" end="5300" vehsPerHour="29.060691703547253" departLane="free"/>
  <flow id="JF252672" begin="5240" fromJunction="J0" toJunction="J4" end="5300" vehsPerHour="79.9659774099235" departLane="free"/>
  <flow id="JF252673" begin="5240" fromJunction="J0" toJunction="J5" end="5300" vehsPerHour="34.71388134581334" departLane="free"/>
  <flow id="JF252674" begin="5240" fromJunction="J0" toJunction="J7" end="5300" vehsPerHour="18.93229334479918" departLane="free"/>
  <flow id="JF252675" begin="5240" fromJunction="J3" toJunction="J4" end="5300" vehsPerHour="133.99748246367102" departLane="free"/>
  <flow id="JF252676" begin="5240" fromJunction="J3" toJunction="J5" end="5300" vehsPerHour="67.31911485538113" departLane="free"/>
  <flow id="JF252677" begin="5240" fromJunction="J3" toJunction="J6" end="5300" vehsPerHour="38.31266680831589" departLane="free"/>
  <flow id="JF252678" begin="5240" fromJunction="J3" toJunction="J7" end="5300" vehsPerHour="48.66021700145408" departLane="free"/>
  <flow id="JF252679" begin="5240" fromJunction="J4" toJunction="J3" end="5300" vehsPerHour="34.99810524392407" departLane="free"/>
  <flow id="JF252680" begin="5240" fromJunction="J4" toJunction="J5" end="5300" vehsPerHour="50.50980715829048" departLane="free"/>
  <flow id="JF252681" begin="5240" fromJunction="J4" toJunction="J6" end="5300" vehsPerHour="60.515692034370396" departLane="free"/>
  <flow id="JF252682" begin="5240" fromJunction="J5" toJunction="J4" end="5300" vehsPerHour="33.27707251406338" departLane="free"/>
  <flow id="JF252683" begin="5240" fromJunction="J5" toJunction="J6" end="5300" vehsPerHour="32.98216514252055" departLane="free"/>
  <flow id="JF252684" begin="5240" fromJunction="J5" toJunction="J7" end="5300" vehsPerHour="61.067513043965995" departLane="free"/>
  <flow id="JF252685" begin="5240" fromJunction="J6" toJunction="J0" end="5300" vehsPerHour="30.171117259216004" departLane="free"/>
  <flow id="JF252686" begin="5240" fromJunction="J6" toJunction="J5" end="5300" vehsPerHour="8.140622488913923" departLane="free"/>
  <flow id="JF252687" begin="5240" fromJunction="J6" toJunction="J7" end="5300" vehsPerHour="7.670516087663575" departLane="free"/>
  <flow id="JF252688" begin="5240" fromJunction="J7" toJunction="J0" end="5300" vehsPerHour="41.02212865320216" departLane="free"/>
  <flow id="JF252689" begin="5240" fromJunction="J7" toJunction="J5" end="5300" vehsPerHour="4.790747345038152" departLane="free"/>
  <flow id="JF252690" begin="5300" fromJunction="J0" toJunction="J6" end="5360" vehsPerHour="105.37807841839084" departLane="free"/>
  <flow id="JF252691" begin="5300" fromJunction="J3" toJunction="J0" end="5360" vehsPerHour="83.73858584524692" departLane="free"/>
  <flow id="JF252692" begin="5300" fromJunction="J3" toJunction="J4" end="5360" vehsPerHour="114.59718172630868" departLane="free"/>
  <flow id="JF252693" begin="5300" fromJunction="J3" toJunction="J5" end="5360" vehsPerHour="40.89393011105249" departLane="free"/>
  <flow id="JF252694" begin="5300" fromJunction="J3" toJunction="J6" end="5360" vehsPerHour="108.262780021256" departLane="free"/>
  <flow id="JF252695" begin="5300" fromJunction="J4" toJunction="J0" end="5360" vehsPerHour="34.88377921691443" departLane="free"/>
  <flow id="JF252696" begin="5300" fromJunction="J4" toJunction="J5" end="5360" vehsPerHour="0.39679664840414003" departLane="free"/>
  <flow id="JF252697" begin="5300" fromJunction="J4" toJunction="J6" end="5360" vehsPerHour="34.85239585476621" departLane="free"/>
  <flow id="JF252698" begin="5300" fromJunction="J5" toJunction="J0" end="5360" vehsPerHour="48.08747068940702" departLane="free"/>
  <flow id="JF252699" begin="5300" fromJunction="J5" toJunction="J3" end="5360" vehsPerHour="24.437639813277567" departLane="free"/>
  <flow id="JF252700" begin="5300" fromJunction="J5" toJunction="J4" end="5360" vehsPerHour="21.667133151700508" departLane="free"/>
  <flow id="JF252701" begin="5300" fromJunction="J5" toJunction="J6" end="5360" vehsPerHour="42.11821737940582" departLane="free"/>
  <flow id="JF252702" begin="5300" fromJunction="J5" toJunction="J7" end="5360" vehsPerHour="53.072246386480195" departLane="free"/>
  <flow id="JF252703" begin="5300" fromJunction="J6" toJunction="J0" end="5360" vehsPerHour="22.713674303221" departLane="free"/>
  <flow id="JF252704" begin="5300" fromJunction="J6" toJunction="J4" end="5360" vehsPerHour="42.01623711779358" departLane="free"/>
  <flow id="JF252705" begin="5300" fromJunction="J6" toJunction="J5" end="5360" vehsPerHour="17.196623046074816" departLane="free"/>
  <flow id="JF252706" begin="5300" fromJunction="J6" toJunction="J7" end="5360" vehsPerHour="60.90880919057376" departLane="free"/>
  <flow id="JF252707" begin="5300" fromJunction="J7" toJunction="J3" end="5360" vehsPerHour="0.26773942500057796" departLane="free"/>
  <flow id="JF252708" begin="5300" fromJunction="J7" toJunction="J4" end="5360" vehsPerHour="60.12382608709128" departLane="free"/>
  <flow id="JF252709" begin="5300" fromJunction="J7" toJunction="J5" end="5360" vehsPerHour="3.528817613236587" departLane="free"/>
  <flow id="JF252710" begin="5360" fromJunction="J0" toJunction="J3" end="5420" vehsPerHour="48.64681301033981" departLane="free"/>
  <flow id="JF252711" begin="5360" fromJunction="J0" toJunction="J5" end="5420" vehsPerHour="77.92052156710747" departLane="free"/>
  <flow id="JF252712" begin="5360" fromJunction="J0" toJunction="J6" end="5420" vehsPerHour="51.50623111438422" departLane="free"/>
  <flow id="JF252713" begin="5360" fromJunction="J3" toJunction="J0" end="5420" vehsPerHour="116.30485487820458" departLane="free"/>
  <flow id="JF252714" begin="5360" fromJunction="J3" toJunction="J4" end="5420" vehsPerHour="64.7597321029155" departLane="free"/>
  <flow id="JF252715" begin="5360" fromJunction="J3" toJunction="J6" end="5420" vehsPerHour="105.6853422498352" departLane="free"/>
  <flow id="JF252716" begin="5360" fromJunction="J3" toJunction="J7" end="5420" vehsPerHour="95.9925811972916" departLane="free"/>
  <flow id="JF252717" begin="5360" fromJunction="J4" toJunction="J0" end="5420" vehsPerHour="47.29058686510351" departLane="free"/>
  <flow id="JF252718" begin="5360" fromJunction="J4" toJunction="J3" end="5420" vehsPerHour="27.28800201445308" departLane="free"/>
  <flow id="JF252719" begin="5360" fromJunction="J4" toJunction="J5" end="5420" vehsPerHour="5.902499357828324" departLane="free"/>
  <flow id="JF252720" begin="5360" fromJunction="J4" toJunction="J7" end="5420" vehsPerHour="3.690500642626431" departLane="free"/>
  <flow id="JF252721" begin="5360" fromJunction="J5" toJunction="J0" end="5420" vehsPerHour="56.521035916212355" departLane="free"/>
  <flow id="JF252722" begin="5360" fromJunction="J5" toJunction="J3" end="5420" vehsPerHour="8.458895372696395" departLane="free"/>
  <flow id="JF252723" begin="5360" fromJunction="J5" toJunction="J6" end="5420" vehsPerHour="38.42402872983982" departLane="free"/>
  <flow id="JF252724" begin="5360" fromJunction="J5" toJunction="J7" end="5420" vehsPerHour="60.01757183768468" departLane="free"/>
  <flow id="JF252725" begin="5360" fromJunction="J6" toJunction="J0" end="5420" vehsPerHour="1.342906878472618" departLane="free"/>
  <flow id="JF252726" begin="5360" fromJunction="J6" toJunction="J3" end="5420" vehsPerHour="40.44052902065666" departLane="free"/>
  <flow id="JF252727" begin="5360" fromJunction="J6" toJunction="J5" end="5420" vehsPerHour="5.2740777240738295" departLane="free"/>
  <flow id="JF252728" begin="5360" fromJunction="J6" toJunction="J7" end="5420" vehsPerHour="9.502476484522575" departLane="free"/>
  <flow id="JF252729" begin="5360" fromJunction="J7" toJunction="J0" end="5420" vehsPerHour="44.92719720996682" departLane="free"/>
  <flow id="JF252730" begin="5360" fromJunction="J7" toJunction="J3" end="5420" vehsPerHour="17.424013757620855" departLane="free"/>
  <flow id="JF252731" begin="5360" fromJunction="J7" toJunction="J4" end="5420" vehsPerHour="56.03506437589414" departLane="free"/>
  <flow id="JF252732" begin="5360" fromJunction="J7" toJunction="J5" end="5420" vehsPerHour="29.221934309117955" departLane="free"/>
  <flow id="JF252733" begin="5420" fromJunction="J0" toJunction="J3" end="5480" vehsPerHour="130.63948624065392" departLane="free"/>
  <flow id="JF252734" begin="5420" fromJunction="J0" toJunction="J5" end="5480" vehsPerHour="35.23839679612206" departLane="free"/>
  <flow id="JF252735" begin="5420" fromJunction="J0" toJunction="J6" end="5480" vehsPerHour="73.59395749812084" departLane="free"/>
  <flow id="JF252736" begin="5420" fromJunction="J0" toJunction="J7" end="5480" vehsPerHour="32.902225188600084" departLane="free"/>
  <flow id="JF252737" begin="5420" fromJunction="J3" toJunction="J0" end="5480" vehsPerHour="108.10547528784858" departLane="free"/>
  <flow id="JF252738" begin="5420" fromJunction="J3" toJunction="J5" end="5480" vehsPerHour="35.41268888698023" departLane="free"/>
  <flow id="JF252739" begin="5420" fromJunction="J3" toJunction="J6" end="5480" vehsPerHour="134.56677166496218" departLane="free"/>
  <flow id="JF252740" begin="5420" fromJunction="J3" toJunction="J7" end="5480" vehsPerHour="34.54772101805627" departLane="free"/>
  <flow id="JF252741" begin="5420" fromJunction="J4" toJunction="J0" end="5480" vehsPerHour="61.16513374253574" departLane="free"/>
  <flow id="JF252742" begin="5420" fromJunction="J4" toJunction="J3" end="5480" vehsPerHour="65.25301620572641" departLane="free"/>
  <flow id="JF252743" begin="5420" fromJunction="J4" toJunction="J7" end="5480" vehsPerHour="2.406445578606037" departLane="free"/>
  <flow id="JF252744" begin="5420" fromJunction="J5" toJunction="J3" end="5480" vehsPerHour="18.614131181892652" departLane="free"/>
  <flow id="JF252745" begin="5420" fromJunction="J5" toJunction="J4" end="5480" vehsPerHour="4.784751225312399" departLane="free"/>
  <flow id="JF252746" begin="5420" fromJunction="J5" toJunction="J6" end="5480" vehsPerHour="37.61537562079722" departLane="free"/>
  <flow id="JF252747" begin="5420" fromJunction="J5" toJunction="J7" end="5480" vehsPerHour="44.684795467086666" departLane="free"/>
  <flow id="JF252748" begin="5420" fromJunction="J6" toJunction="J0" end="5480" vehsPerHour="37.20773989340451" departLane="free"/>
  <flow id="JF252749" begin="5420" fromJunction="J6" toJunction="J3" end="5480" vehsPerHour="53.58497364383191" departLane="free"/>
  <flow id="JF252750" begin="5420" fromJunction="J6" toJunction="J5" end="5480" vehsPerHour="27.270793698207072" departLane="free"/>
  <flow id="JF252751" begin="5420" fromJunction="J7" toJunction="J3" end="5480" vehsPerHour="25.33403270001729" departLane="free"/>
  <flow id="JF252752" begin="5420" fromJunction="J7" toJunction="J5" end="5480" vehsPerHour="61.93504195078539" departLane="free"/>
  <flow id="JF252753" begin="5480" fromJunction="J0" toJunction="J3" end="5540" vehsPerHour="37.96320083656444" departLane="free"/>
  <flow id="JF252754" begin="5480" fromJunction="J0" toJunction="J4" end="5540" vehsPerHour="16.68811677897979" departLane="free"/>
  <flow id="JF252755" begin="5480" fromJunction="J0" toJunction="J5" end="5540" vehsPerHour="106.97128144444798" departLane="free"/>
  <flow id="JF252756" begin="5480" fromJunction="J0" toJunction="J7" end="5540" vehsPerHour="60.77415903959352" departLane="free"/>
  <flow id="JF252757" begin="5480" fromJunction="J3" toJunction="J0" end="5540" vehsPerHour="131.45712657444355" departLane="free"/>
  <flow id="JF252758" begin="5480" fromJunction="J3" toJunction="J4" end="5540" vehsPerHour="78.05052938494383" departLane="free"/>
  <flow id="JF252759" begin="5480" fromJunction="J3" toJunction="J5" end="5540" vehsPerHour="3.7467819325215217" departLane="free"/>
  <flow id="JF252760" begin="5480" fromJunction="J3" toJunction="J7" end="5540" vehsPerHour="124.5141098360307" departLane="free"/>
  <flow id="JF252761" begin="5480" fromJunction="J4" toJunction="J6" end="5540" vehsPerHour="26.087133857930073" departLane="free"/>
  <flow id="JF252762" begin="5480" fromJunction="J4" toJunction="J7" end="5540" vehsPerHour="33.376371018276366" departLane="free"/>
  <flow id="JF252763" begin="5480" fromJunction="J5" toJunction="J3" end="5540" vehsPerHour="44.99604634290501" departLane="free"/>
  <flow id="JF252764" begin="5480" fromJunction="J5" toJunction="J4" end="5540" vehsPerHour="24.576395190887784" departLane="free"/>
  <flow id="JF252765" begin="5480" fromJunction="J5" toJunction="J7" end="5540" vehsPerHour="40.69243130670417" departLane="free"/>
  <flow id="JF252766" begin="5480" fromJunction="J6" toJunction="J0" end="5540" vehsPerHour="15.360084215041368" departLane="free"/>
  <flow id="JF252767" begin="5480" fromJunction="J6" toJunction="J4" end="5540" vehsPerHour="59.92247359579779" departLane="free"/>
  <flow id="JF252768" begin="5480" fromJunction="J6" toJunction="J5" end="5540" vehsPerHour="35.972818685750624" departLane="free"/>
  <flow id="JF252769" begin="5480" fromJunction="J7" toJunction="J0" end="5540" vehsPerHour="58.34872975956553" departLane="free"/>
  <flow id="JF252770" begin="5480" fromJunction="J7" toJunction="J3" end="5540" vehsPerHour="14.884430012878093" departLane="free"/>
  <flow id="JF252771" begin="5480" fromJunction="J7" toJunction="J5" end="5540" vehsPerHour="41.11388104803469" departLane="free"/>
  <flow id="JF252772" begin="5480" fromJunction="J7" toJunction="J6" end="5540" vehsPerHour="12.300055764189825" departLane="free"/>
  <flow id="JF252773" begin="5540" fromJunction="J0" toJunction="J3" end="5600" vehsPerHour="61.945763858274915" departLane="free"/>
  <flow id="JF252774" begin="5540" fromJunction="J0" toJunction="J4" end="5600" vehsPerHour="20.456359482423444" departLane="free"/>
  <flow id="JF252775" begin="5540" fromJunction="J0" toJunction="J5" end="5600" vehsPerHour="82.41924571686366" departLane="free"/>
  <flow id="JF252776" begin="5540" fromJunction="J0" toJunction="J7" end="5600" vehsPerHour="132.94706777144134" departLane="free"/>
  <flow id="JF252777" begin="5540" fromJunction="J3" toJunction="J0" end="5600" vehsPerHour="57.19893924840203" departLane="free"/>
  <flow id="JF252778" begin="5540" fromJunction="J3" toJunction="J5" end="5600" vehsPerHour="38.953605119751224" departLane="free"/>
  <flow id="JF252779" begin="5540" fromJunction="J3" toJunction="J6" end="5600" vehsPerHour="106.2590166586808" departLane="free"/>
  <flow id="JF252780" begin="5540" fromJunction="J4" toJunction="J0" end="5600" vehsPerHour="39.50632458535225" departLane="free"/>
  <flow id="JF252781" begin="5540" fromJunction="J4" toJunction="J3" end="5600" vehsPerHour="66.03944671246434" departLane="free"/>
  <flow id="JF252782" begin="5540" fromJunction="J4" toJunction="J5" end="5600" vehsPerHour="20.871604763943328" departLane="free"/>
  <flow id="JF252783" begin="5540" fromJunction="J4" toJunction="J6" end="5600" vehsPerHour="8.207444866109878" departLane="free"/>
  <flow id="JF252784" begin="5540" fromJunction="J5" toJunction="J0" end="5600" vehsPerHour="48.79286100973089" departLane="free"/>