<?xml version="1.0" encoding="UTF-8"?>
<routes xmlns:xsi="http://www.w3.org/2001/XMLSchema-instance" xsi:noNamespaceSchemaLocation="http://sumo.dlr.de/xsd/routes_file.xsd">
  <flow id="JF257799" begin="0" fromJunction="J0" toJunction="J3" end="5000" vehsPerHour="246.66722857241368" departLane="free"/>
  <flow id="JF257800" begin="0" fromJunction="J3" toJunction="J0" end="5000" vehsPerHour="515.911373809683" departLane="free"/>
  <flow id="JF257801" begin="0" fromJunction="J0" toJunction="J7" end="5000" vehsPerHour="47.70710050672947" departLane="free"/>
  <flow id="JF257802" begin="0" fromJunction="J0" toJunction="J4" end="5000" vehsPerHour="133.98357654766224" departLane="free"/>
  <flow id="JF257803" begin="0" fromJunction="J0" toJunction="J6" end="5000" vehsPerHour="13.512461830237978" departLane="free"/>
  <flow id="JF257804" begin="0" fromJunction="J0" toJunction="J5" end="5000" vehsPerHour="54.779487614994565" departLane="free"/>
  <flow id="JF257805" begin="0" fromJunction="J3" toJunction="J7" end="5000" vehsPerHour="79.5049909923775" departLane="free"/>
  <flow id="JF257806" begin="0" fromJunction="J3" toJunction="J4" end="5000" vehsPerHour="5.675751378829379" departLane="free"/>
  <flow id="JF257807" begin="0" fromJunction="J3" toJunction="J6" end="5000" vehsPerHour="95.79804514332216" departLane="free"/>
  <flow id="JF257808" begin="0" fromJunction="J3" toJunction="J5" end="5000" vehsPerHour="132.96734201369105" departLane="free"/>
  <flow id="JF257809" begin="0" fromJunction="J7" toJunction="J4" end="5000" vehsPerHour="28.22564304259864" departLane="free"/>
  <flow id="JF257810" begin="0" fromJunction="J7" toJunction="J6" end="5000" vehsPerHour="58.87272516419984" departLane="free"/>
  <flow id="JF257811" begin="0" fromJunction="J7" toJunction="J5" end="5000" vehsPerHour="24.329876426364372" departLane="free"/>
  <flow id="JF257812" begin="0" fromJunction="J4" toJunction="J7" end="5000" vehsPerHour="44.59429901744223" departLane="free"/>
  <flow id="JF257813" begin="0" fromJunction="J4" toJunction="J6" end="5000" vehsPerHour="59.14327179381406" departLane="free"/>
  <flow id="JF257814" begin="0" fromJunction="J4" toJunction="J5" end="5000" vehsPerHour="25.70105966501913" departLane="free"/>
  <flow id="JF257815" begin="0" fromJunction="J6" toJunction="J7" end="5000" vehsPerHour="34.212024612664855" departLane="free"/>
  <flow id="JF257816" begin="0" fromJunction="J6" toJunction="J4" end="5000" vehsPerHour="0.5784164808941152" departLane="free"/>
  <flow id="JF257817" begin="0" fromJunction="J6" toJunction="J5" end="5000" vehsPerHour="50.654039559232714" departLane="free"/>
  <flow id="JF257818" begin="0" fromJunction="J5" toJunction="J7" end="5000" vehsPerHour="35.82509158429618" departLane="free"/>
  <flow id="JF257819" begin="0" fromJunction="J5" toJunction="J4" end="5000" vehsPerHour="54.747430950643825" departLane="free"/>
  <flow id="JF257820" begin="0" fromJunction="J5" toJunction="J6" end="5000" vehsPerHour="19.005138648333414" departLane="free"/>
  <flow id="JF257821" begin="0" fromJunction="J7" toJunction="J0" end="5000" vehsPerHour="45.69857510439993" departLane="free"/>
  <flow id="JF257822" begin="0" fromJunction="J7" toJunction="J3" end="5000" vehsPerHour="2.346181551100691" departLane="free"/>
  <flow id="JF257823" begin="0" fromJunction="J4" toJunction="J0" end="5000" vehsPerHour="57.42022132789354" departLane="free"/>
  <flow id="JF257824" begin="0" fromJunction="J4" toJunction="J3" end="5000" vehsPerHour="32.31698388730781" departLane="free"/>
  <flow id="JF257825" begin="0" fromJunction="J6" toJunction="J0" end="5000" vehsPerHour="50.51061523629088" departLane="free"/>
  <flow id="JF257826" begin="0" fromJunction="J6" toJunction="J3" end="5000" vehsPerHour="49.47575494276521" departLane="free"/>
  <flow id="JF257827" begin="0" fromJunction="J5" toJunction="J0" end="5000" vehsPerHour="23.223639786582833" departLane="free"/>
  <flow id="JF257828" begin="0" fromJunction="J5" toJunction="J3" end="5000" vehsPerHour="58.3447419473553" departLane="free"/>
  <flow id="JF257829" begin="5000" fromJunction="J0" toJunction="J3" end="5060" vehsPerHour="117.68711995939489" departLane="free"/>
  <flow id="JF257830" begin="5000" fromJunction="J0" toJunction="J4" end="5060" vehsPerHour="84.90074422975006" departLane="free"/>
  <flow id="JF257831" begin="5000" fromJunction="J0" toJunction="J5" end="5060" vehsPerHour="120.37397770384868" departLane="free"/>
  <flow id="JF257832" begin="5000" fromJunction="J0" toJunction="J7" end="5060" vehsPerHour="82.0440504235261" departLane="free"/>
  <flow id="JF257833" begin="5000" fromJunction="J3" toJunction="J0" end="5060" vehsPerHour="119.3930189009162" departLane="free"/>
  <flow id="JF257834" begin="5000" fromJunction="J3" toJunction="J4" end="5060" vehsPerHour="35.947172676326495" departLane="free"/>
  <flow id="JF257835" begin="5000" fromJunction="J3" toJunction="J7" end="5060" vehsPerHour="53.44505575544866" departLane="free"/>
  <flow id="JF257836" begin="5000" fromJunction="J4" toJunction="J3" end="5060" vehsPerHour="39.9106526024762" departLane="free"/>
  <flow id="JF257837" begin="5000" fromJunction="J4" toJunction="J6" end="5060" vehsPerHour="53.36771073885625" departLane="free"/>
  <flow id="JF257838" begin="5000" fromJunction="J5" toJunction="J0" end="5060" vehsPerHour="12.690734495423762" departLane="free"/>
  <flow id="JF257839" begin="5000" fromJunction="J5" toJunction="J3" end="5060" vehsPerHour="35.793130142569076" departLane="free"/>
  <flow id="JF257840" begin="5000" fromJunction="J5" toJunction="J4" end="5060" vehsPerHour="29.417375448137527" departLane="free"/>
  <flow id="JF257841" begin="5000" fromJunction="J5" toJunction="J6" end="5060" vehsPerHour="49.544138056083966" departLane="free"/>
  <flow id="JF257842" begin="5000" fromJunction="J6" toJunction="J0" end="5060" vehsPerHour="13.924727295018078" departLane="free"/>
  <flow id="JF257843" begin="5000" fromJunction="J6" toJunction="J3" end="5060" vehsPerHour="45.53859565829796" departLane="free"/>
  <flow id="JF257844" begin="5000" fromJunction="J6" toJunction="J4" end="5060" vehsPerHour="1.2926970555815478" departLane="free"/>
  <flow id="JF257845" begin="5000" fromJunction="J6" toJunction="J5" end="5060" vehsPerHour="46.18521551774196" departLane="free"/>
  <flow id="JF257846" begin="5000" fromJunction="J6" toJunction="J7" end="5060" vehsPerHour="36.01342265491417" departLane="free"/>
  <flow id="JF257847" begin="5000" fromJunction="J7" toJunction="J0" end="5060" vehsPerHour="31.581540397884332" departLane="free"/>
  <flow id="JF257848" begin="5000" fromJunction="J7" toJunction="J3" end="5060" vehsPerHour="4.421574724498471" departLane="free"/>
  <flow id="JF257849" begin="5000" fromJunction="J7" toJunction="J5" end="5060" vehsPerHour="24.111016744602548" departLane="free"/>
  <flow id="JF257850" begin="5000" fromJunction="J7" toJunction="J6" end="5060" vehsPerHour="18.45055903399042" departLane="free"/>
  <flow id="JF257851" begin="5060" fromJunction="J0" toJunction="J4" end="5120" vehsPerHour="51.560909845975736" departLane="free"/>
  <flow id="JF257852" begin="5060" fromJunction="J0" toJunction="J5" end="5120" vehsPerHour="93.29514646926185" departLane="free"/>
  <flow id="JF257853" begin="5060" fromJunction="J0" toJunction="J7" end="5120" vehsPerHour="105.71672403454222" departLane="free"/>
  <flow id="JF257854" begin="5060" fromJunction="J3" toJunction="J4" end="5120" vehsPerHour="116.15798264215857" departLane="free"/>
  <flow id="JF257855" begin="5060" fromJunction="J3" toJunction="J5" end="5120" vehsPerHour="13.16662172450518" departLane="free"/>
  <flow id="JF257856" begin="5060" fromJunction="J3" toJunction="J6" end="5120" vehsPerHour="31.34074596443088" departLane="free"/>
  <flow id="JF257857" begin="5060" fromJunction="J4" toJunction="J0" end="5120" vehsPerHour="46.57736608263874" departLane="free"/>
  <flow id="JF257858" begin="5060" fromJunction="J4" toJunction="J3" end="5120" vehsPerHour="16.56227250390895" departLane="free"/>
  <flow id="JF257859" begin="5060" fromJunction="J4" toJunction="J5" end="5120" vehsPerHour="54.619057025330974" departLane="free"/>
  <flow id="JF257860" begin="5060" fromJunction="J4" toJunction="J7" end="5120" vehsPerHour="48.045142633450716" departLane="free"/>
  <flow id="JF257861" begin="5060" fromJunction="J5" toJunction="J0" end="5120" vehsPerHour="34.3730131586374" departLane="free"/>
  <flow id="JF257862" begin="5060" fromJunction="J5" toJunction="J3" end="5120" vehsPerHour="33.38424500174639" departLane="free"/>
  <flow id="JF257863" begin="5060" fromJunction="J5" toJunction="J4" end="5120" vehsPerHour="56.774239835814164" departLane="free"/>
  <flow id="JF257864" begin="5060" fromJunction="J6" toJunction="J0" end="5120" vehsPerHour="18.668639127219738" departLane="free"/>
  <flow id="JF257865" begin="5060" fromJunction="J6" toJunction="J4" end="5120" vehsPerHour="43.78754135137857" departLane="free"/>
  <flow id="JF257866" begin="5060" fromJunction="J6" toJunction="J5" end="5120" vehsPerHour="37.119189179154" departLane="free"/>
  <flow id="JF257867" begin="5060" fromJunction="J6" toJunction="J7" end="5120" vehsPerHour="42.85795811906917" departLane="free"/>
  <flow id="JF257868" begin="5060" fromJunction="J7" toJunction="J3" end="5120" vehsPerHour="23.10349204976213" departLane="free"/>
  <flow id="JF257869" begin="5060" fromJunction="J7" toJunction="J4" end="5120" vehsPerHour="68.06107790830801" departLane="free"/>
  <flow id="JF257870" begin="5060" fromJunction="J7" toJunction="J5" end="5120" vehsPerHour="54.54396793515165" departLane="free"/>
  <flow id="JF257871" begin="5060" fromJunction="J7" toJunction="J6" end="5120" vehsPerHour="0.3330249262761042" departLane="free"/>
  <flow id="JF257872" begin="5120" fromJunction="J0" toJunction="J3" end="5180" vehsPerHour="74.49058257407873" departLane="free"/>
  <flow id="JF257873" begin="5120" fromJunction="J0" toJunction="J4" end="5180" vehsPerHour="15.842989506040453" departLane="free"/>
  <flow id="JF257874" begin="5120" fromJunction="J0" toJunction="J6" end="5180" vehsPerHour="5.629584410278224" departLane="free"/>
  <flow id="JF257875" begin="5120" fromJunction="J3" toJunction="J4" end="5180" vehsPerHour="89.37412702564733" departLane="free"/>
  <flow id="JF257876" begin="5120" fromJunction="J3" toJunction="J5" end="5180" vehsPerHour="89.62965398147146" departLane="free"/>
  <flow id="JF257877" begin="5120" fromJunction="J3" toJunction="J6" end="5180" vehsPerHour="9.685919277162624" departLane="free"/>
  <flow id="JF257878" begin="5120" fromJunction="J3" toJunction="J7" end="5180" vehsPerHour="113.82876376099382" departLane="free"/>
  <flow id="JF257879" begin="5120" fromJunction="J4" toJunction="J0" end="5180" vehsPerHour="57.21549221935878" departLane="free"/>
  <flow id="JF257880" begin="5120" fromJunction="J4" toJunction="J3" end="5180" vehsPerHour="62.65449320251044" departLane="free"/>
  <flow id="JF257881" begin="5120" fromJunction="J4" toJunction="J5" end="5180" vehsPerHour="60.77638447537557" departLane="free"/>
  <flow id="JF257882" begin="5120" fromJunction="J4" toJunction="J6" end="5180" vehsPerHour="63.08749690355594" departLane="free"/>
  <flow id="JF257883" begin="5120" fromJunction="J4" toJunction="J7" end="5180" vehsPerHour="14.824052316535669" departLane="free"/>
  <flow id="JF257884" begin="5120" fromJunction="J5" toJunction="J3" end="5180" vehsPerHour="1.4293838064803575" departLane="free"/>
  <flow id="JF257885" begin="5120" fromJunction="J5" toJunction="J4" end="5180" vehsPerHour="17.21496360746187" departLane="free"/>
  <flow id="JF257886" begin="5120" fromJunction="J5" toJunction="J6" end="5180" vehsPerHour="13.818384091764358" departLane="free"/>
  <flow id="JF257887" begin="5120" fromJunction="J5" toJunction="J7" end="5180" vehsPerHour="51.74457673346581" departLane="free"/>
  <flow id="JF257888" begin="5120" fromJunction="J6" toJunction="J0" end="5180" vehsPerHour="22.695931746444423" departLane="free"/>
  <flow id="JF257889" begin="5120" fromJunction="J6" toJunction="J4" end="5180" vehsPerHour="48.99435061811768" departLane="free"/>
  <flow id="JF257890" begin="5120" fromJunction="J6" toJunction="J5" end="5180" vehsPerHour="53.17071167157538" departLane="free"/>
  <flow id="JF257891" begin="5120" fromJunction="J6" toJunction="J7" end="5180" vehsPerHour="8.022007412513837" departLane="free"/>
  <flow id="JF257892" begin="5120" fromJunction="J7" toJunction="J0" end="5180" vehsPerHour="22.187072006343094" departLane="free"/>
  <flow id="JF257893" begin="5120" fromJunction="J7" toJunction="J3" end="5180" vehsPerHour="2.2270370634014696" departLane="free"/>
  <flow id="JF257894" begin="5120" fromJunction="J7" toJunction="J4" end="5180" vehsPerHour="16.41130578485842" departLane="free"/>
  <flow id="JF257895" begin="5120" fromJunction="J7" toJunction="J5" end="5180" vehsPerHour="0.6554525401789282" departLane="free"/>
  <flow id="JF257896" begin="5180" fromJunction="J0" toJunction="J4" end="5240" vehsPerHour="7.13015749197862" departLane="free"/>
  <flow id="JF257897" begin="5180" fromJunction="J0" toJunction="J5" end="5240" vehsPerHour="81.42779144280193" departLane="free"/>
  <flow id="JF257898" begin="5180" fromJunction="J0" toJunction="J6" end="5240" vehsPerHour="121.57081822234342" departLane="free"/>
  <flow id="JF257899" begin="5180" fromJunction="J3" toJunction="J0" end="5240" vehsPerHour="44.501806787155374" departLane="free"/>
  <flow id="JF257900" begin="5180" fromJunction="J3" toJunction="J4" end="5240" vehsPerHour="69.52622941397468" departLane="free"/>
  <flow id="JF257901" begin="5180" fromJunction="J3" toJunction="J6" end="5240" vehsPerHour="59.12625075476158" departLane="free"/>
  <flow id="JF257902" begin="5180" fromJunction="J3" toJunction="J7" end="5240" vehsPerHour="51.32943201262936" departLane="free"/>
  <flow id="JF257903" begin="5180" fromJunction="J4" toJunction="J3" end="5240" vehsPerHour="62.137298295357226" departLane="free"/>
  <flow id="JF257904" begin="5180" fromJunction="J4" toJunction="J5" end="5240" vehsPerHour="37.628452831426955" departLane="free"/>
  <flow id="JF257905" begin="5180" fromJunction="J4" toJunction="J6" end="5240" vehsPerHour="20.00612559994018" departLane="free"/>
  <flow id="JF257906" begin="5180" fromJunction="J5" toJunction="J3" end="5240" vehsPerHour="26.086194826455802" departLane="free"/>
  <flow id="JF257907" begin="5180" fromJunction="J5" toJunction="J6" end="5240" vehsPerHour="60.17124390173297" departLane="free"/>
  <flow id="JF257908" begin="5180" fromJunction="J6" toJunction="J0" end="5240" vehsPerHour="38.43235861544158" departLane="free"/>
  <flow id="JF257909" begin="5180" fromJunction="J6" toJunction="J4" end="5240" vehsPerHour="57.13265565515801" departLane="free"/>
  <flow id="JF257910" begin="5180" fromJunction="J7" toJunction="J0" end="5240" vehsPerHour="61.312959838887615" departLane="free"/>
  <flow id="JF257911" begin="5180" fromJunction="J7" toJunction="J3" end="5240" vehsPerHour="55.655796690024424" departLane="free"/>
  <flow id="JF257912" begin="5180" fromJunction="J7" toJunction="J4" end="5240" vehsPerHour="31.053573520523138" departLane="free"/>
  <flow id="JF257913" begin="5180" fromJunction="J7" toJunction="J5" end="5240" vehsPerHour="18.387410317871414" departLane="free"/>
  <flow id="JF257914" begin="5180" fromJunction="J7" toJunction="J6" end="5240" vehsPerHour="24.188020913595757" departLane="free"/>
  <flow id="JF257915" begin="5240" fromJunction="J0" toJunction="J3" end="5300" vehsPerHour="5.931787795935078" departLane="free"/>
  <flow id="JF257916" begin="5240" fromJunction="J0" toJunction="J4" end="5300" vehsPerHour="120.24000235544193" departLane="free"/>
  <flow id="JF257917" begin="5240" fromJunction="J0" toJunction="J6" end="5300" vehsPerHour="46.774029014331106" departLane="free"/>
  <flow id="JF257918" begin="5240" fromJunction="J0" toJunction="J7" end="5300" vehsPerHour="77.1604905993661" departLane="free"/>
  <flow id="JF257919" begin="5240" fromJunction="J3" toJunction="J0" end="5300" vehsPerHour="112.12603574328011" departLane="free"/>
  <flow id="JF257920" begin="5240" fromJunction="J3" toJunction="J4" end="5300" vehsPerHour="3.2906180772809757" departLane="free"/>
  <flow id="JF257921" begin="5240" fromJunction="J3" toJunction="J5" end="5300" vehsPerHour="93.8503494083176" departLane="free"/>
  <flow id="JF257922" begin="5240" fromJunction="J3" toJunction="J6" end="5300" vehsPerHour="30.054476251280157" departLane="free"/>
  <flow id="JF257923" begin="5240" fromJunction="J3" toJunction="J7" end="5300" vehsPerHour="5.138487204817313" departLane="free"/>
  <flow id="JF257924" begin="5240" fromJunction="J4" toJunction="J3" end="5300" vehsPerHour="7.175080289744105" departLane="free"/>
  <flow id="JF257925" begin="5240" fromJunction="J4" toJunction="J7" end="5300" vehsPerHour="23.301835825858085" departLane="free"/>
  <flow id="JF257926" begin="5240" fromJunction="J5" toJunction="J0" end="5300" vehsPerHour="17.35361618821869" departLane="free"/>
  <flow id="JF257927" begin="5240" fromJunction="J5" toJunction="J3" end="5300" vehsPerHour="40.637798519173195" departLane="free"/>
  <flow id="JF257928" begin="5240" fromJunction="J5" toJunction="J4" end="5300" vehsPerHour="31.342636605836386" departLane="free"/>
  <flow id="JF257929" begin="5240" fromJunction="J5" toJunction="J6" end="5300" vehsPerHour="40.822042541666" departLane="free"/>
  <flow id="JF257930" begin="5240" fromJunction="J5" toJunction="J7" end="5300" vehsPerHour="61.11636518110703" departLane="free"/>
  <flow id="JF257931" begin="5240" fromJunction="J6" toJunction="J3" end="5300" vehsPerHour="64.65256920317064" departLane="free"/>
  <flow id="JF257932" begin="5240" fromJunction="J6" toJunction="J4" end="5300" vehsPerHour="12.678280222907505" departLane="free"/>
  <flow id="JF257933" begin="5240" fromJunction="J6" toJunction="J7" end="5300" vehsPerHour="31.54727213665682" departLane="free"/>
  <flow id="JF257934" begin="5240" fromJunction="J7" toJunction="J0" end="5300" vehsPerHour="24.414998088321433" departLane="free"/>
  <flow id="JF257935" begin="5240" fromJunction="J7" toJunction="J5" end="5300" vehsPerHour="58.56263492910409" departLane="free"/>
  <flow id="JF257936" begin="5240" fromJunction="J7" toJunction="J6" end="5300" vehsPerHour="60.738469695206994" departLane="free"/>
  <flow id="JF257937" begin="5300" fromJunction="J0" toJunction="J3" end="5360" vehsPerHour="27.206256920186785" departLane="free"/>
  <flow id="JF257938" begin="5300" fromJunction="J0" toJunction="J4" end="5360" vehsPerHour="59.325072016191434" departLane="free"/>
  <flow id="JF257939" begin="5300" fromJunction="J0" toJunction="J7" end="5360" vehsPerHour="11.341478371787606" departLane="free"/>
  <flow id="JF257940" begin="5300" fromJunction="J3" toJunction="J5" end="5360" vehsPerHour="124.33987180902842" departLane="free"/>
  <flow id="JF257941" begin="5300" fromJunction="J3" toJunction="J6" end="5360" vehsPerHour="116.7181754177692" departLane="free"/>
  <flow id="JF257942" begin="5300" fromJunction="J3" toJunction="J7" end="5360" vehsPerHour="26.215854753814565" departLane="free"/>
  <flow id="JF257943" begin="5300" fromJunction="J4" toJunction="J0" end="5360" vehsPerHour="18.130792073881274" departLane="free"/>
  <flow id="JF257944" begin="5300" fromJunction="J4" toJunction="J3" end="5360" vehsPerHour="4.2859976373495074" departLane="free"/>
  <flow id="JF257945" begin="5300" fromJunction="J4" toJunction="J5" end="5360" vehsPerHour="24.031315085078138" departLane="free"/>
  <flow id="JF257946" begin="5300" fromJunction="J4" toJunction="J6" end="5360" vehsPerHour="62.77612292455189" departLane="free"/>
  <flow id="JF257947" begin="5300" fromJunction="J4" toJunction="J7" end="5360" vehsPerHour="14.722865130727726" departLane="free"/>
  <flow id="JF257948" begin="5300" fromJunction="J5" toJunction="J0" end="5360" vehsPerHour="18.53972319525757" departLane="free"/>
  <flow id="JF257949" begin="5300" fromJunction="J5" toJunction="J4" end="5360" vehsPerHour="34.283480077750184" departLane="free"/>
  <flow id="JF257950" begin="5300" fromJunction="J6" toJunction="J0" end="5360" vehsPerHour="64.56435197586134" departLane="free"/>
  <flow id="JF257951" begin="5300" fromJunction="J6" toJunction="J3" end="5360" vehsPerHour="32.36026109349598" departLane="free"/>
  <flow id="JF257952" begin="5300" fromJunction="J6" toJunction="J4" end="5360" vehsPerHour="59.222309551014554" departLane="free"/>
  <flow id="JF257953" begin="5300" fromJunction="J6" toJunction="J5" end="5360" vehsPerHour="54.69186288406403" departLane="free"/>
  <flow id="JF257954" begin="5300" fromJunction="J6" toJunction="J7" end="5360" vehsPerHour="38.89330937717667" departLane="free"/>
  <flow id="JF257955" begin="5300" fromJunction="J7" toJunction="J0" end="5360" vehsPerHour="56.97724529358728" departLane="free"/>
  <flow id="JF257956" begin="5300" fromJunction="J7" toJunction="J4" end="5360" vehsPerHour="8.62324266444304" departLane="free"/>
  <flow id="JF257957" begin="5300" fromJunction="J7" toJunction="J6" end="5360" vehsPerHour="6.801774083479835" departLane="free"/>
  <flow id="JF257958" begin="5360" fromJunction="J0" toJunction="J3" end="5420" vehsPerHour="107.70886017861969" departLane="free"/>
  <flow id="JF257959" begin="5360" fromJunction="J0" toJunction="J5" end="5420" vehsPerHour="8.32947617907971" departLane="free"/>
  <flow id="JF257960" begin="5360" fromJunction="J0" toJunction="J6" end="5420" vehsPerHour="65.60016557149328" departLane="free"/>
  <flow id="JF257961" begin="5360" fromJunction="J0" toJunction="J7" end="5420" vehsPerHour="1.6389471536725013" departLane="free"/>
  <flow id="JF257962" begin="5360" fromJunction="J3" toJunction="J5" end="5420" vehsPerHour="21.441809447253306" departLane="free"/>
  <flow id="JF257963" begin="5360" fromJunction="J3" toJunction="J7" end="5420" vehsPerHour="25.281683246900204" departLane="free"/>
  <flow id="JF257964" begin="5360" fromJunction="J4" toJunction="J0" end="5420" vehsPerHour="51.786819582547764" departLane="free"/>
  <flow id="JF257965" begin="5360" fromJunction="J4" toJunction="J3" end="5420" vehsPerHour="51.340806074751704" departLane="free"/>
  <flow id="JF257966" begin="5360" fromJunction="J5" toJunction="J0" end="5420" vehsPerHour="17.03141619587621" departLane="free"/>
  <flow id="JF257967" begin="5360" fromJunction="J5" toJunction="J3" end="5420" vehsPerHour="22.17227889393537" departLane="free"/>
  <flow id="JF257968" begin="5360" fromJunction="J5" toJunction="J4" end="5420" vehsPerHour="63.760578109558246" departLane="free"/>
  <flow id="JF257969" begin="5360" fromJunction="J5" toJunction="J6" end="5420" vehsPerHour="34.72795772505744" departLane="free"/>
  <flow id="JF257970" begin="5360" fromJunction="J5" toJunction="J7" end="5420" vehsPerHour="8.93065672928568" departLane="free"/>
  <flow id="JF257971" begin="5360" fromJunction="J6" toJunction="J3" end="5420" vehsPerHour="65.71350333381095" departLane="free"/>
  <flow id="JF257972" begin="5360" fromJunction="J6" toJunction="J4" end="5420" vehsPerHour="44.11814073538857" departLane="free"/>
  <flow id="JF257973" begin="5360" fromJunction="J6" toJunction="J5" end="5420" vehsPerHour="3.7320734005704583" departLane="free"/>
  <flow id="JF257974" begin="5360" fromJunction="J6" toJunction="J7" end="5420" vehsPerHour="54.87205214301743" departLane="free"/>
  <flow id="JF257975" begin="5360" fromJunction="J7" toJunction="J0" end="5420" vehsPerHour="40.79696016269233" departLane="free"/>
  <flow id="JF257976" begin="5360" fromJunction="J7" toJunction="J3" end="5420" vehsPerHour="10.631412430860003" departLane="free"/>
  <flow id="JF257977" begin="5360" fromJunction="J7" toJunction="J4" end="5420" vehsPerHour="4.6445251972665655" departLane="free"/>
  <flow id="JF257978" begin="5360" fromJunction="J7" toJunction="J5" end="5420" vehsPerHour="64.61288702291404" departLane="free"/>
  <flow id="JF257979" begin="5420" fromJunction="J0" toJunction="J4" end="5480" vehsPerHour="79.12652815188434" departLane="free"/>
  <flow id="JF257980" begin="5420" fromJunction="J0" toJunction="J5" end="5480" vehsPerHour="55.75710895624159" departLane="free"/>
  <flow id="JF257981" begin="5420" fromJunction="J0" toJunction="J7" end="5480" vehsPerHour="104.24469512083483" departLane="free"/>
  <flow id="JF257982" begin="5420" fromJunction="J3" toJunction="J0" end="5480" vehsPerHour="33.18346461998734" departLane="free"/>
  <flow id="JF257983" begin="5420" fromJunction="J3" toJunction="J4" end="5480" vehsPerHour="4.558557284382102" departLane="free"/>
  <flow id="JF257984" begin="5420" fromJunction="J3" toJunction="J7" end="5480" vehsPerHour="36.559183645223776" departLane="free"/>
  <flow id="JF257985" begin="5420" fromJunction="J4" toJunction="J0" end="5480" vehsPerHour="1.8003080768248811" departLane="free"/>
  <flow id="JF257986" begin="5420" fromJunction="J4" toJunction="J3" end="5480" vehsPerHour="41.49770745001496" departLane="free"/>
  <flow id="JF257987" begin="5420" fromJunction="J4" toJunction="J6" end="5480" vehsPerHour="18.875011260913343" departLane="free"/>
  <flow id="JF257988" begin="5420" fromJunction="J4" toJunction="J7" end="5480" vehsPerHour="66.19520053997607" departLane="free"/>
  <flow id="JF257989" begin="5420" fromJunction="J5" toJunction="J0" end="5480" vehsPerHour="33.64232910037964" departLane="free"/>
  <flow id="JF257990" begin="5420" fromJunction="J6" toJunction="J0" end="5480" vehsPerHour="48.229505558183995" departLane="free"/>
  <flow id="JF257991" begin="5420" fromJunction="J6" toJunction="J3" end="5480" vehsPerHour="31.334798797808634" departLane="free"/>
  <flow id="JF257992" begin="5420" fromJunction="J6" toJunction="J4" end="5480" vehsPerHour="5.722058408289314" departLane="free"/>
  <flow id="JF257993" begin="5420" fromJunction="J6" toJunction="J5" end="5480" vehsPerHour="26.375072583910644" departLane="free"/>
  <flow id="JF257994" begin="5420" fromJunction="J6" toJunction="J7" end="5480" vehsPerHour="52.24546747468068" departLane="free"/>
  <flow id="JF257995" begin="5420" fromJunction="J7" toJunction="J3" end="5480" vehsPerHour="10.707094154184112" departLane="free"/>
  <flow id="JF257996" begin="5420" fromJunction="J7" toJunction="J5" end="5480" vehsPerHour="4.924544569787904" departLane="free"/>
  <flow id="JF257997" begin="5420" fromJunction="J7" toJunction="J6" end="5480" vehsPerHour="11.199422002771312" departLane="free"/>
  <flow id="JF257998" begin="5480" fromJunction="J0" toJunction="J3" end="5540" vehsPerHour="59.208202466731116" departLane="free"/>
  <flow id="JF257999" begin="5480" fromJunction="J0" toJunction="J4" end="5540" vehsPerHour="132.02394896506885" departLane="free"/>
  <flow id="JF258000" begin="5480" fromJunction="J0" toJunction="J5" end="5540" vehsPerHour="59.42722507865276" departLane="free"/>
  <flow id="JF258001" begin="5480" fromJunction="J0" toJunction="J7" end="5540" vehsPerHour="127.2813052176669" departLane="free"/>
  <flow id="JF258002" begin="5480" fromJunction="J3" toJunction="J4" end="5540" vehsPerHour="43.27698699249011" departLane="free"/>
  <flow id="JF258003" begin="5480" fromJunction="J3" toJunction="J5" end="5540" vehsPerHour="66.04550615588356" departLane="free"/>
  <flow id="JF258004" begin="5480" fromJunction="J3" toJunction="J6" end="5540" vehsPerHour="24.16016072258359" departLane="free"/>
  <flow id="JF258005" begin="5480" fromJunction="J3" toJunction="J7" end="5540" vehsPerHour="55.71841303829555" departLane="free"/>
  <flow id="JF258006" begin="5480" fromJunction="J4" toJunction="J5" end="5540" vehsPerHour="37.300471974229296" departLane="free"/>
  <flow id="JF258007" begin="5480" fromJunction="J4" toJunction="J6" end="5540" vehsPerHour="5.723622087542534" departLane="free"/>
  <flow id="JF258008" begin="5480" fromJunction="J4" toJunction="J7" end="5540" vehsPerHour="57.029692439251164" departLane="free"/>
  <flow id="JF258009" begin="5480" fromJunction="J5" toJunction="J0" end="5540" vehsPerHour="18.58492679057235" departLane="free"/>
  <flow id="JF258010" begin="5480" fromJunction="J5" toJunction="J4" end="5540" vehsPerHour="53.62710879244613" departLane="free"/>
  <flow id="JF258011" begin="5480" fromJunction="J5" toJunction="J7" end="5540" vehsPerHour="25.28387783355717" departLane="free"/>
  <flow id="JF258012" begin="5480" fromJunction="J6" toJunction="J0" end="5540" vehsPerHour="45.08033569190181" departLane="free"/>
  <flow id="JF258013" begin="5480" fromJunction="J6" toJunction="J3" end="5540" vehsPerHour="60.462206271909466" departLane="free"/>
  <flow id="JF258014" begin="5480" fromJunction="J6" toJunction="J4" end="5540" vehsPerHour="54.84863916787549" departLane="free"/>
  <flow id="JF258015" begin="5480" fromJunction="J6" toJunction="J5" end="5540" vehsPerHour="16.572426985659373" departLane="free"/>
  <flow id="JF258016" begin="5480" fromJunction="J6" toJunction="J7" end="5540" vehsPerHour="60.185749892319336" departLane="free"/>
  <flow id="JF258017" begin="5480" fromJunction="J7" toJunction="J3" end="5540" vehsPerHour="42.83972362307662" departLane="free"/>
  <flow id="JF258018" begin="5480" fromJunction="J7" toJunction="J5" end="5540" vehsPerHour="67.5935589823155" departLane="free"/>
  <flow id="JF258019" begin="5480" fromJunction="J7" toJunction="J6" end="5540" vehsPerHour="10.141162575951903" departLane="free"/>
  <flow id="JF258020" begin="5540" fromJunction="J0" toJunction="J3" end="5600" vehsPerHour="60.29581265749788" departLane="free"/>
  <flow id="JF258021" begin="5540" fromJunction="J0" toJunction="J4" end="5600" vehsPerHour="25.57172125666933" departLane="free"/>
  <flow id="JF258022" begin="5540" fromJunction="J0" toJunction="J5" end="5600" vehsPerHour="91.67742079727194" departLane="free"/>
  <flow id="JF258023" begin="5540" fromJunction="J0" toJunction="J6" end="5600" vehsPerHour="132.21036077936301" departLane="free"/>
  <flow id="JF258024" begin="5540" fromJunction="J0" toJunction="J7" end="5600" vehsPerHour="131.54470242407106" departLane="free"/>