<?xml version="1.0" encoding="UTF-8"?>
<routes xmlns:xsi="http://www.w3.org/2001/XMLSchema-instance" xsi:noNamespaceSchemaLocation="http://sumo.dlr.de/xsd/routes_file.xsd">
  <flow id="JF43140" begin="0" fromJunction="J0" toJunction="J3" end="60" vehsPerHour="30.007944248210894" departLane="free"/>
  <flow id="JF43141" begin="0" fromJunction="J3" toJunction="J0" end="60" vehsPerHour="52.33946840462322" departLane="free"/>
  <flow id="JF43142" begin="0" fromJunction="J0" toJunction="J4" end="60" vehsPerHour="65.55970265436174" departLane="free"/>
  <flow id="JF43143" begin="0" fromJunction="J0" toJunction="J5" end="60" vehsPerHour="133.28182796876087" departLane="free"/>
  <flow id="JF43144" begin="0" fromJunction="J0" toJunction="J6" end="60" vehsPerHour="113.14546249949859" departLane="free"/>
  <flow id="JF43145" begin="0" fromJunction="J0" toJunction="J7" end="60" vehsPerHour="113.20618623416058" departLane="free"/>
  <flow id="JF43146" begin="0" fromJunction="J3" toJunction="J4" end="60" vehsPerHour="128.12193958872308" departLane="free"/>
  <flow id="JF43147" begin="0" fromJunction="J3" toJunction="J5" end="60" vehsPerHour="122.31625948136606" departLane="free"/>
  <flow id="JF43148" begin="0" fromJunction="J3" toJunction="J6" end="60" vehsPerHour="130.82622316666948" departLane="free"/>
  <flow id="JF43149" begin="0" fromJunction="J3" toJunction="J7" end="60" vehsPerHour="123.05369032093049" departLane="free"/>
  <flow id="JF43150" begin="0" fromJunction="J4" toJunction="J5" end="60" vehsPerHour="22.632597637101966" departLane="free"/>
  <flow id="JF43151" begin="0" fromJunction="J4" toJunction="J6" end="60" vehsPerHour="65.20587301747334" departLane="free"/>
  <flow id="JF43152" begin="0" fromJunction="J4" toJunction="J7" end="60" vehsPerHour="47.33153196717277" departLane="free"/>
  <flow id="JF43153" begin="0" fromJunction="J5" toJunction="J4" end="60" vehsPerHour="58.99557615953788" departLane="free"/>
  <flow id="JF43154" begin="0" fromJunction="J5" toJunction="J6" end="60" vehsPerHour="24.853642616512975" departLane="free"/>
  <flow id="JF43155" begin="0" fromJunction="J5" toJunction="J7" end="60" vehsPerHour="5.710795961897001" departLane="free"/>
  <flow id="JF43156" begin="0" fromJunction="J6" toJunction="J4" end="60" vehsPerHour="43.545605995579514" departLane="free"/>
  <flow id="JF43157" begin="0" fromJunction="J6" toJunction="J5" end="60" vehsPerHour="54.739768032700695" departLane="free"/>
  <flow id="JF43158" begin="0" fromJunction="J6" toJunction="J7" end="60" vehsPerHour="47.86178672528788" departLane="free"/>
  <flow id="JF43159" begin="0" fromJunction="J7" toJunction="J4" end="60" vehsPerHour="48.873434687394806" departLane="free"/>
  <flow id="JF43160" begin="0" fromJunction="J7" toJunction="J5" end="60" vehsPerHour="5.016654378029381" departLane="free"/>
  <flow id="JF43161" begin="0" fromJunction="J7" toJunction="J6" end="60" vehsPerHour="9.61875197921744" departLane="free"/>
  <flow id="JF43162" begin="0" fromJunction="J4" toJunction="J0" end="60" vehsPerHour="4.341277648978175" departLane="free"/>
  <flow id="JF43163" begin="0" fromJunction="J4" toJunction="J3" end="60" vehsPerHour="28.25192622998338" departLane="free"/>
  <flow id="JF43164" begin="0" fromJunction="J5" toJunction="J0" end="60" vehsPerHour="64.9557692548039" departLane="free"/>
  <flow id="JF43165" begin="0" fromJunction="J5" toJunction="J3" end="60" vehsPerHour="53.06055413926629" departLane="free"/>
  <flow id="JF43166" begin="0" fromJunction="J6" toJunction="J0" end="60" vehsPerHour="57.7763151653466" departLane="free"/>
  <flow id="JF43167" begin="0" fromJunction="J6" toJunction="J3" end="60" vehsPerHour="10.797684814932936" departLane="free"/>
  <flow id="JF43168" begin="0" fromJunction="J7" toJunction="J0" end="60" vehsPerHour="18.34470229546029" departLane="free"/>
  <flow id="JF43169" begin="0" fromJunction="J7" toJunction="J3" end="60" vehsPerHour="31.351522038606475" departLane="free"/>
  <flow id="JF43170" begin="60" fromJunction="J0" toJunction="J3" end="120" vehsPerHour="57.27109618284087" departLane="free"/>
  <flow id="JF43171" begin="60" fromJunction="J3" toJunction="J0" end="120" vehsPerHour="60.69399393625008" departLane="free"/>
  <flow id="JF43172" begin="60" fromJunction="J0" toJunction="J4" end="120" vehsPerHour="1.3690199569503707" departLane="free"/>
  <flow id="JF43173" begin="60" fromJunction="J0" toJunction="J5" end="120" vehsPerHour="115.10732894648557" departLane="free"/>
  <flow id="JF43174" begin="60" fromJunction="J0" toJunction="J6" end="120" vehsPerHour="36.35325070867348" departLane="free"/>
  <flow id="JF43175" begin="60" fromJunction="J0" toJunction="J7" end="120" vehsPerHour="61.632512449007706" departLane="free"/>
  <flow id="JF43176" begin="60" fromJunction="J3" toJunction="J4" end="120" vehsPerHour="51.22968322646366" departLane="free"/>
  <flow id="JF43177" begin="60" fromJunction="J3" toJunction="J5" end="120" vehsPerHour="108.1531342079491" departLane="free"/>
  <flow id="JF43178" begin="60" fromJunction="J3" toJunction="J6" end="120" vehsPerHour="46.48140820180772" departLane="free"/>
  <flow id="JF43179" begin="60" fromJunction="J3" toJunction="J7" end="120" vehsPerHour="108.93842048751722" departLane="free"/>
  <flow id="JF43180" begin="60" fromJunction="J4" toJunction="J5" end="120" vehsPerHour="45.9212073099444" departLane="free"/>
  <flow id="JF43181" begin="60" fromJunction="J4" toJunction="J6" end="120" vehsPerHour="50.57327609895012" departLane="free"/>
  <flow id="JF43182" begin="60" fromJunction="J4" toJunction="J7" end="120" vehsPerHour="58.41634139868349" departLane="free"/>
  <flow id="JF43183" begin="60" fromJunction="J5" toJunction="J4" end="120" vehsPerHour="66.40510010426452" departLane="free"/>
  <flow id="JF43184" begin="60" fromJunction="J5" toJunction="J6" end="120" vehsPerHour="38.07021719641289" departLane="free"/>
  <flow id="JF43185" begin="60" fromJunction="J5" toJunction="J7" end="120" vehsPerHour="42.620906005265304" departLane="free"/>
  <flow id="JF43186" begin="60" fromJunction="J6" toJunction="J4" end="120" vehsPerHour="3.5515921080415542" departLane="free"/>
  <flow id="JF43187" begin="60" fromJunction="J6" toJunction="J5" end="120" vehsPerHour="27.100655955785587" departLane="free"/>
  <flow id="JF43188" begin="60" fromJunction="J6" toJunction="J7" end="120" vehsPerHour="57.86239811273973" departLane="free"/>
  <flow id="JF43189" begin="60" fromJunction="J7" toJunction="J4" end="120" vehsPerHour="43.08362434021743" departLane="free"/>
  <flow id="JF43190" begin="60" fromJunction="J7" toJunction="J5" end="120" vehsPerHour="33.8046248641188" departLane="free"/>
  <flow id="JF43191" begin="60" fromJunction="J7" toJunction="J6" end="120" vehsPerHour="23.713480904774645" departLane="free"/>
  <flow id="JF43192" begin="60" fromJunction="J4" toJunction="J0" end="120" vehsPerHour="9.607144943098469" departLane="free"/>
  <flow id="JF43193" begin="60" fromJunction="J4" toJunction="J3" end="120" vehsPerHour="30.85406074360429" departLane="free"/>
  <flow id="JF43194" begin="60" fromJunction="J5" toJunction="J0" end="120" vehsPerHour="42.18504755690084" departLane="free"/>
  <flow id="JF43195" begin="60" fromJunction="J5" toJunction="J3" end="120" vehsPerHour="7.56537413710211" departLane="free"/>
  <flow id="JF43196" begin="60" fromJunction="J6" toJunction="J0" end="120" vehsPerHour="6.456697712206279" departLane="free"/>
  <flow id="JF43197" begin="60" fromJunction="J6" toJunction="J3" end="120" vehsPerHour="41.120685908200386" departLane="free"/>
  <flow id="JF43198" begin="60" fromJunction="J7" toJunction="J0" end="120" vehsPerHour="2.446989166464906" departLane="free"/>
  <flow id="JF43199" begin="60" fromJunction="J7" toJunction="J3" end="120" vehsPerHour="38.1673389424007" departLane="free"/>
  <flow id="JF43200" begin="120" fromJunction="J0" toJunction="J3" end="180" vehsPerHour="31.797939828869474" departLane="free"/>
  <flow id="JF43201" begin="120" fromJunction="J3" toJunction="J0" end="180" vehsPerHour="89.31717521737677" departLane="free"/>
  <flow id="JF43202" begin="120" fromJunction="J0" toJunction="J4" end="180" vehsPerHour="16.771257907593743" departLane="free"/>
  <flow id="JF43203" begin="120" fromJunction="J0" toJunction="J5" end="180" vehsPerHour="137.38520524700758" departLane="free"/>
  <flow id="JF43204" begin="120" fromJunction="J0" toJunction="J6" end="180" vehsPerHour="40.04975381974443" departLane="free"/>
  <flow id="JF43205" begin="120" fromJunction="J0" toJunction="J7" end="180" vehsPerHour="129.45643020241465" departLane="free"/>
  <flow id="JF43206" begin="120" fromJunction="J3" toJunction="J4" end="180" vehsPerHour="57.32164544320911" departLane="free"/>
  <flow id="JF43207" begin="120" fromJunction="J3" toJunction="J5" end="180" vehsPerHour="68.41764160295502" departLane="free"/>
  <flow id="JF43208" begin="120" fromJunction="J3" toJunction="J6" end="180" vehsPerHour="41.186547562702444" departLane="free"/>
  <flow id="JF43209" begin="120" fromJunction="J3" toJunction="J7" end="180" vehsPerHour="118.23041828634379" departLane="free"/>
  <flow id="JF43210" begin="120" fromJunction="J4" toJunction="J5" end="180" vehsPerHour="4.443754267969606" departLane="free"/>
  <flow id="JF43211" begin="120" fromJunction="J4" toJunction="J6" end="180" vehsPerHour="53.368440554229664" departLane="free"/>
  <flow id="JF43212" begin="120" fromJunction="J4" toJunction="J7" end="180" vehsPerHour="38.60524612546658" departLane="free"/>
  <flow id="JF43213" begin="120" fromJunction="J5" toJunction="J4" end="180" vehsPerHour="63.38898284021158" departLane="free"/>
  <flow id="JF43214" begin="120" fromJunction="J5" toJunction="J6" end="180" vehsPerHour="35.532207074282155" departLane="free"/>
  <flow id="JF43215" begin="120" fromJunction="J5" toJunction="J7" end="180" vehsPerHour="29.57413858011566" departLane="free"/>
  <flow id="JF43216" begin="120" fromJunction="J6" toJunction="J4" end="180" vehsPerHour="6.990370409730502" departLane="free"/>
  <flow id="JF43217" begin="120" fromJunction="J6" toJunction="J5" end="180" vehsPerHour="8.20926565648876" departLane="free"/>
  <flow id="JF43218" begin="120" fromJunction="J6" toJunction="J7" end="180" vehsPerHour="57.4876342965334" departLane="free"/>
  <flow id="JF43219" begin="120" fromJunction="J7" toJunction="J4" end="180" vehsPerHour="1.2435717727954725" departLane="free"/>
  <flow id="JF43220" begin="120" fromJunction="J7" toJunction="J5" end="180" vehsPerHour="41.88569382080863" departLane="free"/>
  <flow id="JF43221" begin="120" fromJunction="J7" toJunction="J6" end="180" vehsPerHour="60.44154182688767" departLane="free"/>
  <flow id="JF43222" begin="120" fromJunction="J4" toJunction="J0" end="180" vehsPerHour="12.11794559755454" departLane="free"/>
  <flow id="JF43223" begin="120" fromJunction="J4" toJunction="J3" end="180" vehsPerHour="6.343856550356369" departLane="free"/>
  <flow id="JF43224" begin="120" fromJunction="J5" toJunction="J0" end="180" vehsPerHour="10.360056580193671" departLane="free"/>
  <flow id="JF43225" begin="120" fromJunction="J5" toJunction="J3" end="180" vehsPerHour="38.139487248072584" departLane="free"/>
  <flow id="JF43226" begin="120" fromJunction="J6" toJunction="J0" end="180" vehsPerHour="16.934611150355657" departLane="free"/>
  <flow id="JF43227" begin="120" fromJunction="J6" toJunction="J3" end="180" vehsPerHour="48.692274409052025" departLane="free"/>
  <flow id="JF43228" begin="120" fromJunction="J7" toJunction="J0" end="180" vehsPerHour="66.19719351796904" departLane="free"/>
  <flow id="JF43229" begin="120" fromJunction="J7" toJunction="J3" end="180" vehsPerHour="24.2258491908004" departLane="free"/>
  <flow id="JF43230" begin="180" fromJunction="J0" toJunction="J3" end="240" vehsPerHour="44.086938334827856" departLane="free"/>
  <flow id="JF43231" begin="180" fromJunction="J3" toJunction="J0" end="240" vehsPerHour="35.411614848018495" departLane="free"/>
  <flow id="JF43232" begin="180" fromJunction="J0" toJunction="J4" end="240" vehsPerHour="110.70582608825184" departLane="free"/>
  <flow id="JF43233" begin="180" fromJunction="J0" toJunction="J5" end="240" vehsPerHour="12.311299370290627" departLane="free"/>
  <flow id="JF43234" begin="180" fromJunction="J0" toJunction="J6" end="240" vehsPerHour="64.40572568363838" departLane="free"/>
  <flow id="JF43235" begin="180" fromJunction="J0" toJunction="J7" end="240" vehsPerHour="48.147582401908544" departLane="free"/>
  <flow id="JF43236" begin="180" fromJunction="J3" toJunction="J4" end="240" vehsPerHour="128.95371441679018" departLane="free"/>
  <flow id="JF43237" begin="180" fromJunction="J3" toJunction="J5" end="240" vehsPerHour="21.26886923687747" departLane="free"/>
  <flow id="JF43238" begin="180" fromJunction="J3" toJunction="J6" end="240" vehsPerHour="2.8260160895377857" departLane="free"/>
  <flow id="JF43239" begin="180" fromJunction="J3" toJunction="J7" end="240" vehsPerHour="135.06005822583498" departLane="free"/>
  <flow id="JF43240" begin="240" fromJunction="J0" toJunction="J3" end="300" vehsPerHour="1.3654711094866643" departLane="free"/>
  <flow id="JF43241" begin="240" fromJunction="J3" toJunction="J0" end="300" vehsPerHour="46.12765303771698" departLane="free"/>
  <flow id="JF43242" begin="240" fromJunction="J0" toJunction="J4" end="300" vehsPerHour="93.54908930272629" departLane="free"/>
  <flow id="JF43243" begin="240" fromJunction="J0" toJunction="J5" end="300" vehsPerHour="79.76428494130974" departLane="free"/>
  <flow id="JF43244" begin="240" fromJunction="J0" toJunction="J6" end="300" vehsPerHour="124.17206674568607" departLane="free"/>
  <flow id="JF43245" begin="240" fromJunction="J0" toJunction="J7" end="300" vehsPerHour="7.3513581749182775" departLane="free"/>
  <flow id="JF43246" begin="240" fromJunction="J3" toJunction="J4" end="300" vehsPerHour="132.24157146702427" departLane="free"/>
  <flow id="JF43247" begin="240" fromJunction="J3" toJunction="J5" end="300" vehsPerHour="51.67781967726138" departLane="free"/>
  <flow id="JF43248" begin="240" fromJunction="J3" toJunction="J6" end="300" vehsPerHour="118.5315065198948" departLane="free"/>
  <flow id="JF43249" begin="240" fromJunction="J3" toJunction="J7" end="300" vehsPerHour="57.81286737843044" departLane="free"/>
  <flow id="JF43250" begin="240" fromJunction="J4" toJunction="J5" end="300" vehsPerHour="50.60202975404108" departLane="free"/>
  <flow id="JF43251" begin="240" fromJunction="J4" toJunction="J6" end="300" vehsPerHour="37.234282221478" departLane="free"/>
  <flow id="JF43252" begin="240" fromJunction="J4" toJunction="J7" end="300" vehsPerHour="50.05379482847899" departLane="free"/>
  <flow id="JF43253" begin="240" fromJunction="J5" toJunction="J4" end="300" vehsPerHour="49.539627828128744" departLane="free"/>
  <flow id="JF43254" begin="240" fromJunction="J5" toJunction="J6" end="300" vehsPerHour="22.86483980938611" departLane="free"/>
  <flow id="JF43255" begin="240" fromJunction="J5" toJunction="J7" end="300" vehsPerHour="54.7289721038864" departLane="free"/>
  <flow id="JF43256" begin="240" fromJunction="J6" toJunction="J4" end="300" vehsPerHour="57.04359065070234" departLane="free"/>
  <flow id="JF43257" begin="240" fromJunction="J6" toJunction="J5" end="300" vehsPerHour="67.1689456865151" departLane="free"/>
  <flow id="JF43258" begin="240" fromJunction="J6" toJunction="J7" end="300" vehsPerHour="7.510724191558153" departLane="free"/>
  <flow id="JF43259" begin="240" fromJunction="J7" toJunction="J4" end="300" vehsPerHour="43.47905112326041" departLane="free"/>
  <flow id="JF43260" begin="240" fromJunction="J7" toJunction="J5" end="300" vehsPerHour="12.559369050329634" departLane="free"/>
  <flow id="JF43261" begin="240" fromJunction="J7" toJunction="J6" end="300" vehsPerHour="41.93159045211375" departLane="free"/>
  <flow id="JF43262" begin="240" fromJunction="J4" toJunction="J0" end="300" vehsPerHour="7.299579765397839" departLane="free"/>
  <flow id="JF43263" begin="240" fromJunction="J4" toJunction="J3" end="300" vehsPerHour="7.835883742495412" departLane="free"/>
  <flow id="JF43264" begin="240" fromJunction="J5" toJunction="J0" end="300" vehsPerHour="61.855632689872294" departLane="free"/>
  <flow id="JF43265" begin="240" fromJunction="J5" toJunction="J3" end="300" vehsPerHour="3.2729118429742354" departLane="free"/>
  <flow id="JF43266" begin="240" fromJunction="J6" toJunction="J0" end="300" vehsPerHour="67.81740267537941" departLane="free"/>
  <flow id="JF43267" begin="240" fromJunction="J6" toJunction="J3" end="300" vehsPerHour="14.971026543835222" departLane="free"/>
  <flow id="JF43268" begin="240" fromJunction="J7" toJunction="J0" end="300" vehsPerHour="24.072835181221528" departLane="free"/>
  <flow id="JF43269" begin="240" fromJunction="J7" toJunction="J3" end="300" vehsPerHour="14.999279898882108" departLane="free"/>
  <flow id="JF43270" begin="300" fromJunction="J0" toJunction="J3" end="360" vehsPerHour="42.69974406467048" departLane="free"/>
  <flow id="JF43271" begin="300" fromJunction="J3" toJunction="J0" end="360" vehsPerHour="79.29811294920435" departLane="free"/>
  <flow id="JF43272" begin="300" fromJunction="J0" toJunction="J4" end="360" vehsPerHour="90.0420295700842" departLane="free"/>
  <flow id="JF43273" begin="300" fromJunction="J0" toJunction="J5" end="360" vehsPerHour="98.71459207542205" departLane="free"/>
  <flow id="JF43274" begin="300" fromJunction="J0" toJunction="J6" end="360" vehsPerHour="10.961656895374793" departLane="free"/>
  <flow id="JF43275" begin="300" fromJunction="J0" toJunction="J7" end="360" vehsPerHour="123.53922105024452" departLane="free"/>
  <flow id="JF43276" begin="300" fromJunction="J3" toJunction="J4" end="360" vehsPerHour="114.98476940887603" departLane="free"/>
  <flow id="JF43277" begin="300" fromJunction="J3" toJunction="J5" end="360" vehsPerHour="84.37695356852696" departLane="free"/>
  <flow id="JF43278" begin="300" fromJunction="J3" toJunction="J6" end="360" vehsPerHour="1.3526880097485618" departLane="free"/>
  <flow id="JF43279" begin="300" fromJunction="J3" toJunction="J7" end="360" vehsPerHour="3.86841620027352" departLane="free"/>
  <flow id="JF43280" begin="360" fromJunction="J0" toJunction="J3" end="420" vehsPerHour="23.337106381970116" departLane="free"/>
  <flow id="JF43281" begin="360" fromJunction="J3" toJunction="J0" end="420" vehsPerHour="133.85807883129553" departLane="free"/>
  <flow id="JF43282" begin="360" fromJunction="J0" toJunction="J4" end="420" vehsPerHour="15.152085394364065" departLane="free"/>
  <flow id="JF43283" begin="360" fromJunction="J0" toJunction="J5" end="420" vehsPerHour="78.24437557772822" departLane="free"/>
  <flow id="JF43284" begin="360" fromJunction="J0" toJunction="J6" end="420" vehsPerHour="5.884714327892784" departLane="free"/>
  <flow id="JF43285" begin="360" fromJunction="J0" toJunction="J7" end="420" vehsPerHour="91.56930684664687" departLane="free"/>
  <flow id="JF43286" begin="360" fromJunction="J3" toJunction="J4" end="420" vehsPerHour="0.38908924090223806" departLane="free"/>
  <flow id="JF43287" begin="360" fromJunction="J3" toJunction="J5" end="420" vehsPerHour="61.64500875232413" departLane="free"/>
  <flow id="JF43288" begin="360" fromJunction="J3" toJunction="J6" end="420" vehsPerHour="78.93354471162098" departLane="free"/>
  <flow id="JF43289" begin="360" fromJunction="J3" toJunction="J7" end="420" vehsPerHour="131.91718114496706" departLane="free"/>
  <flow id="JF43290" begin="420" fromJunction="J0" toJunction="J3" end="480" vehsPerHour="47.377463458892116" departLane="free"/>
  <flow id="JF43291" begin="420" fromJunction="J3" toJunction="J0" end="480" vehsPerHour="127.23656571053688" departLane="free"/>
  <flow id="JF43292" begin="420" fromJunction="J0" toJunction="J4" end="480" vehsPerHour="2.355162753828791" departLane="free"/>
  <flow id="JF43293" begin="420" fromJunction="J0" toJunction="J5" end="480" vehsPerHour="69.22766964966196" departLane="free"/>
  <flow id="JF43294" begin="420" fromJunction="J0" toJunction="J6" end="480" vehsPerHour="83.61055415704207" departLane="free"/>
  <flow id="JF43295" begin="420" fromJunction="J0" toJunction="J7" end="480" vehsPerHour="64.45684741472186" departLane="free"/>
  <flow id="JF43296" begin="420" fromJunction="J3" toJunction="J4" end="480" vehsPerHour="108.00273827325286" departLane="free"/>
  <flow id="JF43297" begin="420" fromJunction="J3" toJunction="J5" end="480" vehsPerHour="50.43906702913768" departLane="free"/>
  <flow id="JF43298" begin="420" fromJunction="J3" toJunction="J6" end="480" vehsPerHour="10.270126252552405" departLane="free"/>
  <flow id="JF43299" begin="420" fromJunction="J3" toJunction="J7" end="480" vehsPerHour="45.389156228111894" departLane="free"/>
  <flow id="JF43300" begin="420" fromJunction="J4" toJunction="J5" end="480" vehsPerHour="33.88028347706528" departLane="free"/>
  <flow id="JF43301" begin="420" fromJunction="J4" toJunction="J6" end="480" vehsPerHour="55.960208517890486" departLane="free"/>
  <flow id="JF43302" begin="420" fromJunction="J4" toJunction="J7" end="480" vehsPerHour="44.977349773453724" departLane="free"/>
  <flow id="JF43303" begin="420" fromJunction="J5" toJunction="J4" end="480" vehsPerHour="51.07422103635497" departLane="free"/>
  <flow id="JF43304" begin="420" fromJunction="J5" toJunction="J6" end="480" vehsPerHour="38.035146978874494" departLane="free"/>
  <flow id="JF43305" begin="420" fromJunction="J5" toJunction="J7" end="480" vehsPerHour="2.716034129285298" departLane="free"/>
  <flow id="JF43306" begin="420" fromJunction="J6" toJunction="J4" end="480" vehsPerHour="10.140036547831176" departLane="free"/>
  <flow id="JF43307" begin="420" fromJunction="J6" toJunction="J5" end="480" vehsPerHour="39.96721006733652" departLane="free"/>
  <flow id="JF43308" begin="420" fromJunction="J6" toJunction="J7" end="480" vehsPerHour="39.24802539269699" departLane="free"/>
  <flow id="JF43309" begin="420" fromJunction="J7" toJunction="J4" end="480" vehsPerHour="16.15026145809584" departLane="free"/>
  <flow id="JF43310" begin="420" fromJunction="J7" toJunction="J5" end="480" vehsPerHour="10.163243632982315" departLane="free"/>
  <flow id="JF43311" begin="420" fromJunction="J7" toJunction="J6" end="480" vehsPerHour="6.4984660512819685" departLane="free"/>
  <flow id="JF43312" begin="420" fromJunction="J4" toJunction="J0" end="480" vehsPerHour="43.2826605314895" departLane="free"/>
  <flow id="JF43313" begin="420" fromJunction="J4" toJunction="J3" end="480" vehsPerHour="26.71753483950192" departLane="free"/>
  <flow id="JF43314" begin="420" fromJunction="J5" toJunction="J0" end="480" vehsPerHour="8.166353896851556" departLane="free"/>
  <flow id="JF43315" begin="420" fromJunction="J5" toJunction="J3" end="480" vehsPerHour="13.226382773794086" departLane="free"/>
  <flow id="JF43316" begin="420" fromJunction="J6" toJunction="J0" end="480" vehsPerHour="7.174518895669927" departLane="free"/>
  <flow id="JF43317" begin="420" fromJunction="J6" toJunction="J3" end="480" vehsPerHour="44.02657356443742" departLane="free"/>
  <flow id="JF43318" begin="420" fromJunction="J7" toJunction="J0" end="480" vehsPerHour="64.48413666598005" departLane="free"/>
  <flow id="JF43319" begin="420" fromJunction="J7" toJunction="J3" end="480" vehsPerHour="34.38935872766145" departLane="free"/>
  <flow id="JF43320" begin="480" fromJunction="J0" toJunction="J3" end="540" vehsPerHour="1.291786820101436" departLane="free"/>
  <flow id="JF43321" begin="480" fromJunction="J3" toJunction="J0" end="540" vehsPerHour="10.94440329243697" departLane="free"/>
  <flow id="JF43322" begin="480" fromJunction="J0" toJunction="J4" end="540" vehsPerHour="116.90149034086151" departLane="free"/>
  <flow id="JF43323" begin="480" fromJunction="J0" toJunction="J5" end="540" vehsPerHour="76.22033117880578" departLane="free"/>
  <flow id="JF43324" begin="480" fromJunction="J0" toJunction="J6" end="540" vehsPerHour="10.546976417320312" departLane="free"/>
  <flow id="JF43325" begin="480" fromJunction="J0" toJunction="J7" end="540" vehsPerHour="16.372619724960288" departLane="free"/>
  <flow id="JF43326" begin="480" fromJunction="J3" toJunction="J4" end="540" vehsPerHour="83.52805020074746" departLane="free"/>
  <flow id="JF43327" begin="480" fromJunction="J3" toJunction="J5" end="540" vehsPerHour="133.68077548468494" departLane="free"/>
  <flow id="JF43328" begin="480" fromJunction="J3" toJunction="J6" end="540" vehsPerHour="31.402982452944766" departLane="free"/>
  <flow id="JF43329" begin="480" fromJunction="J3" toJunction="J7" end="540" vehsPerHour="49.592620236995835" departLane="free"/>
  <flow id="JF43330" begin="540" fromJunction="J0" toJunction="J3" end="600" vehsPerHour="108.63224235489037" departLane="free"/>
  <flow id="JF43331" begin="540" fromJunction="J3" toJunction="J0" end="600" vehsPerHour="122.45145662432401" departLane="free"/>
  <flow id="JF43332" begin="540" fromJunction="J0" toJunction="J4" end="600" vehsPerHour="21.128832540687654" departLane="free"/>
  <flow id="JF43333" begin="540" fromJunction="J0" toJunction="J5" end="600" vehsPerHour="116.72951752320292" departLane="free"/>
  <flow id="JF43334" begin="540" fromJunction="J0" toJunction="J6" end="600" vehsPerHour="14.326291497693717" departLane="free"/>
  <flow id="JF43335" begin="540" fromJunction="J0" toJunction="J7" end="600" vehsPerHour="13.72208084817405" departLane="free"/>
  <flow id="JF43336" begin="540" fromJunction="J3" toJunction="J4" end="600" vehsPerHour="15.08533323134227" departLane="free"/>
  <flow id="JF43337" begin="540" fromJunction="J3" toJunction="J5" end="600" vehsPerHour="21.924663237955194" departLane="free"/>
  <flow id="JF43338" begin="540" fromJunction="J3" toJunction="J6" end="600" vehsPerHour="14.694105961468756" departLane="free"/>
  <flow id="JF43339" begin="540" fromJunction="J3" toJunction="J7" end="600" vehsPerHour="119.8489207491961" departLane="free"/>
  <flow id="JF43340" begin="600" fromJunction="J0" toJunction="J3" end="660" vehsPerHour="85.69308396155145" departLane="free"/>
  <flow id="JF43341" begin="600" fromJunction="J3" toJunction="J0" end="660" vehsPerHour="32.31106005687215" departLane="free"/>
  <flow id="JF43342" begin="600" fromJunction="J0" toJunction="J4" end="660" vehsPerHour="110.15381358043123" departLane="free"/>
  <flow id="JF43343" begin="600" fromJunction="J0" toJunction="J5" end="660" vehsPerHour="25.55081621855372" departLane="free"/>
  <flow id="JF43344" begin="600" fromJunction="J0" toJunction="J6" end="660" vehsPerHour="46.21367656479355" departLane="free"/>
  <flow id="JF43345" begin="600" fromJunction="J0" toJunction="J7" end="660" vehsPerHour="31.706994071152273" departLane="free"/>
  <flow id="JF43346" begin="600" fromJunction="J3" toJunction="J4" end="660" vehsPerHour="8.229306449223609" departLane="free"/>
  <flow id="JF43347" begin="600" fromJunction="J3" toJunction="J5" end="660" vehsPerHour="68.46077416700271" departLane="free"/>
  <flow id="JF43348" begin="600" fromJunction="J3" toJunction="J6" end="660" vehsPerHour="83.49273377368101" departLane="free"/>
  <flow id="JF43349" begin="600" fromJunction="J3" toJunction="J7" end="660" vehsPerHour="18.03630519834542" departLane="free"/>
  <flow id="JF43350" begin="660" fromJunction="J0" toJunction="J3" end="720" vehsPerHour="114.67239440033893" departLane="free"/>
  <flow id="JF43351" begin="660" fromJunction="J3" toJunction="J0" end="720" vehsPerHour="52.77460455586401" departLane="free"/>
  <flow id="JF43352" begin="660" fromJunction="J0" toJunction="J4" end="720" vehsPerHour="105.20284356943044" departLane="free"/>
  <flow id="JF43353" begin="660" fromJunction="J0" toJunction="J5" end="720" vehsPerHour="60.78834517209915" departLane="free"/>
  <flow id="JF43354" begin="660" fromJunction="J0" toJunction="J6" end="720" vehsPerHour="110.97331695918156" departLane="free"/>
  <flow id="JF43355" begin="660" fromJunction="J0" toJunction="J7" end="720" vehsPerHour="73.91362214969878" departLane="free"/>
  <flow id="JF43356" begin="660" fromJunction="J3" toJunction="J4" end="720" vehsPerHour="21.19362711626955" departLane="free"/>
  <flow id="JF43357" begin="660" fromJunction="J3" toJunction="J5" end="720" vehsPerHour="8.931832542900821" departLane="free"/>
  <flow id="JF43358" begin="660" fromJunction="J3" toJunction="J6" end="720" vehsPerHour="67.13278651679217" departLane="free"/>
  <flow id="JF43359" begin="660" fromJunction="J3" toJunction="J7" end="720" vehsPerHour="62.03497560765633" departLane="free"/>
  <flow id="JF43360" begin="720" fromJunction="J0" toJunction="J3" end="780" vehsPerHour="93.68278475828124" departLane="free"/>
  <flow id="JF43361" begin="720" fromJunction="J3" toJunction="J0" end="780" vehsPerHour="114.00991685465455" departLane="free"/>
  <flow id="JF43362" begin="720" fromJunction="J0" toJunction="J4" end="780" vehsPerHour="8.41520485338073" departLane="free"/>
  <flow id="JF43363" begin="720" fromJunction="J0" toJunction="J5" end="780" vehsPerHour="116.61513567037804" departLane="free"/>
  <flow id="JF43364" begin="720" fromJunction="J0" toJunction="J6" end="780" vehsPerHour="7.139841399666641" departLane="free"/>
  <flow id="JF43365" begin="720" fromJunction="J0" toJunction="J7" end="780" vehsPerHour="42.596090826530876" departLane="free"/>
  <flow id="JF43366" begin="720" fromJunction="J3" toJunction="J4" end="780" vehsPerHour="45.77740458914691" departLane="free"/>
  <flow id="JF43367" begin="720" fromJunction="J3" toJunction="J5" end="780" vehsPerHour="123.70127172415665" departLane="free"/>
  <flow id="JF43368" begin="720" fromJunction="J3" toJunction="J6" end="780" vehsPerHour="116.38231486542622" departLane="free"/>
  <flow id="JF43369" begin="720" fromJunction="J3" toJunction="J7" end="780" vehsPerHour="60.48917846704152" departLane="free"/>
  <flow id="JF43370" begin="720" fromJunction="J4" toJunction="J5" end="780" vehsPerHour="31.99835073987883" departLane="free"/>