<?xml version="1.0" encoding="UTF-8"?>
<routes xmlns:xsi="http://www.w3.org/2001/XMLSchema-instance" xsi:noNamespaceSchemaLocation="http://sumo.dlr.de/xsd/routes_file.xsd">
  <flow id="JF39280" begin="0" fromJunction="J0" toJunction="J3" end="60" vehsPerHour="66.30380556524936" departLane="free"/>
  <flow id="JF39281" begin="0" fromJunction="J3" toJunction="J0" end="60" vehsPerHour="51.82025638574614" departLane="free"/>
  <flow id="JF39282" begin="0" fromJunction="J0" toJunction="J4" end="60" vehsPerHour="13.952586374751638" departLane="free"/>
  <flow id="JF39283" begin="0" fromJunction="J0" toJunction="J5" end="60" vehsPerHour="38.25690736825264" departLane="free"/>
  <flow id="JF39284" begin="0" fromJunction="J0" toJunction="J6" end="60" vehsPerHour="60.46192072726069" departLane="free"/>
  <flow id="JF39285" begin="0" fromJunction="J0" toJunction="J7" end="60" vehsPerHour="99.6429796977631" departLane="free"/>
  <flow id="JF39286" begin="0" fromJunction="J3" toJunction="J4" end="60" vehsPerHour="37.89578874839793" departLane="free"/>
  <flow id="JF39287" begin="0" fromJunction="J3" toJunction="J5" end="60" vehsPerHour="9.276933615148872" departLane="free"/>
  <flow id="JF39288" begin="0" fromJunction="J3" toJunction="J6" end="60" vehsPerHour="116.28472911228484" departLane="free"/>
  <flow id="JF39289" begin="0" fromJunction="J3" toJunction="J7" end="60" vehsPerHour="99.02043148739914" departLane="free"/>
  <flow id="JF39290" begin="60" fromJunction="J0" toJunction="J3" end="120" vehsPerHour="11.035526010637742" departLane="free"/>
  <flow id="JF39291" begin="60" fromJunction="J3" toJunction="J0" end="120" vehsPerHour="56.34055005021113" departLane="free"/>
  <flow id="JF39292" begin="60" fromJunction="J0" toJunction="J4" end="120" vehsPerHour="4.221844392608331" departLane="free"/>
  <flow id="JF39293" begin="60" fromJunction="J0" toJunction="J5" end="120" vehsPerHour="109.77638533836742" departLane="free"/>
  <flow id="JF39294" begin="60" fromJunction="J0" toJunction="J6" end="120" vehsPerHour="99.6186185703272" departLane="free"/>
  <flow id="JF39295" begin="60" fromJunction="J0" toJunction="J7" end="120" vehsPerHour="22.894853454151747" departLane="free"/>
  <flow id="JF39296" begin="60" fromJunction="J3" toJunction="J4" end="120" vehsPerHour="82.70000877747641" departLane="free"/>
  <flow id="JF39297" begin="60" fromJunction="J3" toJunction="J5" end="120" vehsPerHour="38.24977230617477" departLane="free"/>
  <flow id="JF39298" begin="60" fromJunction="J3" toJunction="J6" end="120" vehsPerHour="76.31660532745019" departLane="free"/>
  <flow id="JF39299" begin="60" fromJunction="J3" toJunction="J7" end="120" vehsPerHour="6.668158219328773" departLane="free"/>
  <flow id="JF39300" begin="60" fromJunction="J4" toJunction="J5" end="120" vehsPerHour="38.679408107350845" departLane="free"/>
  <flow id="JF39301" begin="60" fromJunction="J4" toJunction="J6" end="120" vehsPerHour="20.430046617299944" departLane="free"/>
  <flow id="JF39302" begin="60" fromJunction="J4" toJunction="J7" end="120" vehsPerHour="15.964891946498167" departLane="free"/>
  <flow id="JF39303" begin="60" fromJunction="J5" toJunction="J4" end="120" vehsPerHour="28.88463212593933" departLane="free"/>
  <flow id="JF39304" begin="60" fromJunction="J5" toJunction="J6" end="120" vehsPerHour="4.034232911243795" departLane="free"/>
  <flow id="JF39305" begin="60" fromJunction="J5" toJunction="J7" end="120" vehsPerHour="58.89279616853208" departLane="free"/>
  <flow id="JF39306" begin="60" fromJunction="J6" toJunction="J4" end="120" vehsPerHour="55.8793146715621" departLane="free"/>
  <flow id="JF39307" begin="60" fromJunction="J6" toJunction="J5" end="120" vehsPerHour="27.561035496712346" departLane="free"/>
  <flow id="JF39308" begin="60" fromJunction="J6" toJunction="J7" end="120" vehsPerHour="34.84531864020089" departLane="free"/>
  <flow id="JF39309" begin="60" fromJunction="J7" toJunction="J4" end="120" vehsPerHour="3.2831139580100808" departLane="free"/>
  <flow id="JF39310" begin="60" fromJunction="J7" toJunction="J5" end="120" vehsPerHour="40.74695779622496" departLane="free"/>
  <flow id="JF39311" begin="60" fromJunction="J7" toJunction="J6" end="120" vehsPerHour="9.465310357139105" departLane="free"/>
  <flow id="JF39312" begin="60" fromJunction="J4" toJunction="J0" end="120" vehsPerHour="40.85511613270501" departLane="free"/>
  <flow id="JF39313" begin="60" fromJunction="J4" toJunction="J3" end="120" vehsPerHour="27.69218488338746" departLane="free"/>
  <flow id="JF39314" begin="60" fromJunction="J5" toJunction="J0" end="120" vehsPerHour="51.91388359140934" departLane="free"/>
  <flow id="JF39315" begin="60" fromJunction="J5" toJunction="J3" end="120" vehsPerHour="44.88343364509212" departLane="free"/>
  <flow id="JF39316" begin="60" fromJunction="J6" toJunction="J0" end="120" vehsPerHour="62.56591267374968" departLane="free"/>
  <flow id="JF39317" begin="60" fromJunction="J6" toJunction="J3" end="120" vehsPerHour="29.858527473684674" departLane="free"/>
  <flow id="JF39318" begin="60" fromJunction="J7" toJunction="J0" end="120" vehsPerHour="35.86649267670328" departLane="free"/>
  <flow id="JF39319" begin="60" fromJunction="J7" toJunction="J3" end="120" vehsPerHour="42.28080104618096" departLane="free"/>
  <flow id="JF39320" begin="120" fromJunction="J0" toJunction="J3" end="180" vehsPerHour="18.062737061367862" departLane="free"/>
  <flow id="JF39321" begin="120" fromJunction="J3" toJunction="J0" end="180" vehsPerHour="73.58762461685346" departLane="free"/>
  <flow id="JF39322" begin="120" fromJunction="J0" toJunction="J4" end="180" vehsPerHour="38.14552355761351" departLane="free"/>
  <flow id="JF39323" begin="120" fromJunction="J0" toJunction="J5" end="180" vehsPerHour="11.393661903138332" departLane="free"/>
  <flow id="JF39324" begin="120" fromJunction="J0" toJunction="J6" end="180" vehsPerHour="28.03417745793911" departLane="free"/>
  <flow id="JF39325" begin="120" fromJunction="J0" toJunction="J7" end="180" vehsPerHour="45.9015832007925" departLane="free"/>
  <flow id="JF39326" begin="120" fromJunction="J3" toJunction="J4" end="180" vehsPerHour="127.56902693497865" departLane="free"/>
  <flow id="JF39327" begin="120" fromJunction="J3" toJunction="J5" end="180" vehsPerHour="131.35479715569272" departLane="free"/>
  <flow id="JF39328" begin="120" fromJunction="J3" toJunction="J6" end="180" vehsPerHour="124.84334347751383" departLane="free"/>
  <flow id="JF39329" begin="120" fromJunction="J3" toJunction="J7" end="180" vehsPerHour="68.07611466758442" departLane="free"/>
  <flow id="JF39330" begin="120" fromJunction="J4" toJunction="J5" end="180" vehsPerHour="54.31783378422239" departLane="free"/>
  <flow id="JF39331" begin="120" fromJunction="J4" toJunction="J6" end="180" vehsPerHour="28.893259939111186" departLane="free"/>
  <flow id="JF39332" begin="120" fromJunction="J4" toJunction="J7" end="180" vehsPerHour="63.76094842882743" departLane="free"/>
  <flow id="JF39333" begin="120" fromJunction="J5" toJunction="J4" end="180" vehsPerHour="30.58542126245903" departLane="free"/>
  <flow id="JF39334" begin="120" fromJunction="J5" toJunction="J6" end="180" vehsPerHour="21.332117594858957" departLane="free"/>
  <flow id="JF39335" begin="120" fromJunction="J5" toJunction="J7" end="180" vehsPerHour="8.975255923015395" departLane="free"/>
  <flow id="JF39336" begin="120" fromJunction="J6" toJunction="J4" end="180" vehsPerHour="43.62868341861922" departLane="free"/>
  <flow id="JF39337" begin="120" fromJunction="J6" toJunction="J5" end="180" vehsPerHour="19.71713162662652" departLane="free"/>
  <flow id="JF39338" begin="120" fromJunction="J6" toJunction="J7" end="180" vehsPerHour="55.05010833718943" departLane="free"/>
  <flow id="JF39339" begin="120" fromJunction="J7" toJunction="J4" end="180" vehsPerHour="11.581007686930425" departLane="free"/>
  <flow id="JF39340" begin="120" fromJunction="J7" toJunction="J5" end="180" vehsPerHour="51.366490881906" departLane="free"/>
  <flow id="JF39341" begin="120" fromJunction="J7" toJunction="J6" end="180" vehsPerHour="58.91892331177075" departLane="free"/>
  <flow id="JF39342" begin="120" fromJunction="J4" toJunction="J0" end="180" vehsPerHour="54.215206100245986" departLane="free"/>
  <flow id="JF39343" begin="120" fromJunction="J4" toJunction="J3" end="180" vehsPerHour="60.153759680151985" departLane="free"/>
  <flow id="JF39344" begin="120" fromJunction="J5" toJunction="J0" end="180" vehsPerHour="5.566981086270523" departLane="free"/>
  <flow id="JF39345" begin="120" fromJunction="J5" toJunction="J3" end="180" vehsPerHour="26.30893294631814" departLane="free"/>
  <flow id="JF39346" begin="120" fromJunction="J6" toJunction="J0" end="180" vehsPerHour="23.778894942957933" departLane="free"/>
  <flow id="JF39347" begin="120" fromJunction="J6" toJunction="J3" end="180" vehsPerHour="47.8529142670958" departLane="free"/>
  <flow id="JF39348" begin="120" fromJunction="J7" toJunction="J0" end="180" vehsPerHour="35.738271768553446" departLane="free"/>
  <flow id="JF39349" begin="120" fromJunction="J7" toJunction="J3" end="180" vehsPerHour="1.7560910187404206" departLane="free"/>
  <flow id="JF39350" begin="180" fromJunction="J0" toJunction="J3" end="240" vehsPerHour="61.409462657421784" departLane="free"/>
  <flow id="JF39351" begin="180" fromJunction="J3" toJunction="J0" end="240" vehsPerHour="121.7474486388691" departLane="free"/>
  <flow id="JF39352" begin="180" fromJunction="J0" toJunction="J4" end="240" vehsPerHour="45.10116515800147" departLane="free"/>
  <flow id="JF39353" begin="180" fromJunction="J0" toJunction="J5" end="240" vehsPerHour="43.955054191269845" departLane="free"/>
  <flow id="JF39354" begin="180" fromJunction="J0" toJunction="J6" end="240" vehsPerHour="69.17898745260308" departLane="free"/>
  <flow id="JF39355" begin="180" fromJunction="J0" toJunction="J7" end="240" vehsPerHour="93.93730687634462" departLane="free"/>
  <flow id="JF39356" begin="180" fromJunction="J3" toJunction="J4" end="240" vehsPerHour="10.278626491342877" departLane="free"/>
  <flow id="JF39357" begin="180" fromJunction="J3" toJunction="J5" end="240" vehsPerHour="113.70432587187325" departLane="free"/>
  <flow id="JF39358" begin="180" fromJunction="J3" toJunction="J6" end="240" vehsPerHour="21.576069031828606" departLane="free"/>
  <flow id="JF39359" begin="180" fromJunction="J3" toJunction="J7" end="240" vehsPerHour="82.92322685167419" departLane="free"/>
  <flow id="JF39360" begin="180" fromJunction="J4" toJunction="J5" end="240" vehsPerHour="30.01032672333049" departLane="free"/>
  <flow id="JF39361" begin="180" fromJunction="J4" toJunction="J6" end="240" vehsPerHour="8.111691700236523" departLane="free"/>
  <flow id="JF39362" begin="180" fromJunction="J4" toJunction="J7" end="240" vehsPerHour="56.326688607091306" departLane="free"/>
  <flow id="JF39363" begin="180" fromJunction="J5" toJunction="J4" end="240" vehsPerHour="42.59799660767694" departLane="free"/>
  <flow id="JF39364" begin="180" fromJunction="J5" toJunction="J6" end="240" vehsPerHour="57.04292556403297" departLane="free"/>
  <flow id="JF39365" begin="180" fromJunction="J5" toJunction="J7" end="240" vehsPerHour="19.78564162800117" departLane="free"/>
  <flow id="JF39366" begin="180" fromJunction="J6" toJunction="J4" end="240" vehsPerHour="8.63624908340501" departLane="free"/>
  <flow id="JF39367" begin="180" fromJunction="J6" toJunction="J5" end="240" vehsPerHour="60.02366837909316" departLane="free"/>
  <flow id="JF39368" begin="180" fromJunction="J6" toJunction="J7" end="240" vehsPerHour="24.62939347179737" departLane="free"/>
  <flow id="JF39369" begin="180" fromJunction="J7" toJunction="J4" end="240" vehsPerHour="48.432232441278956" departLane="free"/>
  <flow id="JF39370" begin="180" fromJunction="J7" toJunction="J5" end="240" vehsPerHour="48.491506950745915" departLane="free"/>
  <flow id="JF39371" begin="180" fromJunction="J7" toJunction="J6" end="240" vehsPerHour="27.775573436690294" departLane="free"/>
  <flow id="JF39372" begin="180" fromJunction="J4" toJunction="J0" end="240" vehsPerHour="57.24502423506024" departLane="free"/>
  <flow id="JF39373" begin="180" fromJunction="J4" toJunction="J3" end="240" vehsPerHour="9.328815826474077" departLane="free"/>
  <flow id="JF39374" begin="180" fromJunction="J5" toJunction="J0" end="240" vehsPerHour="20.92530793103304" departLane="free"/>
  <flow id="JF39375" begin="180" fromJunction="J5" toJunction="J3" end="240" vehsPerHour="43.966525739471614" departLane="free"/>
  <flow id="JF39376" begin="180" fromJunction="J6" toJunction="J0" end="240" vehsPerHour="32.360692240141645" departLane="free"/>
  <flow id="JF39377" begin="180" fromJunction="J6" toJunction="J3" end="240" vehsPerHour="54.33704862485979" departLane="free"/>
  <flow id="JF39378" begin="180" fromJunction="J7" toJunction="J0" end="240" vehsPerHour="28.36492149098157" departLane="free"/>
  <flow id="JF39379" begin="180" fromJunction="J7" toJunction="J3" end="240" vehsPerHour="50.89083641290794" departLane="free"/>
  <flow id="JF39380" begin="240" fromJunction="J0" toJunction="J3" end="300" vehsPerHour="3.158379359814028" departLane="free"/>
  <flow id="JF39381" begin="240" fromJunction="J3" toJunction="J0" end="300" vehsPerHour="133.1080472878015" departLane="free"/>
  <flow id="JF39382" begin="240" fromJunction="J0" toJunction="J4" end="300" vehsPerHour="105.49749923788492" departLane="free"/>
  <flow id="JF39383" begin="240" fromJunction="J0" toJunction="J5" end="300" vehsPerHour="51.11984510799672" departLane="free"/>
  <flow id="JF39384" begin="240" fromJunction="J0" toJunction="J6" end="300" vehsPerHour="57.5566928460833" departLane="free"/>
  <flow id="JF39385" begin="240" fromJunction="J0" toJunction="J7" end="300" vehsPerHour="21.928265783970605" departLane="free"/>
  <flow id="JF39386" begin="240" fromJunction="J3" toJunction="J4" end="300" vehsPerHour="91.40153454260951" departLane="free"/>
  <flow id="JF39387" begin="240" fromJunction="J3" toJunction="J5" end="300" vehsPerHour="112.14886720872512" departLane="free"/>
  <flow id="JF39388" begin="240" fromJunction="J3" toJunction="J6" end="300" vehsPerHour="21.26119087091454" departLane="free"/>
  <flow id="JF39389" begin="240" fromJunction="J3" toJunction="J7" end="300" vehsPerHour="128.9091818317038" departLane="free"/>
  <flow id="JF39390" begin="240" fromJunction="J4" toJunction="J5" end="300" vehsPerHour="67.61953092916671" departLane="free"/>
  <flow id="JF39391" begin="240" fromJunction="J4" toJunction="J6" end="300" vehsPerHour="67.67119733526805" departLane="free"/>
  <flow id="JF39392" begin="240" fromJunction="J4" toJunction="J7" end="300" vehsPerHour="60.487353386478496" departLane="free"/>
  <flow id="JF39393" begin="240" fromJunction="J5" toJunction="J4" end="300" vehsPerHour="8.653844608486665" departLane="free"/>
  <flow id="JF39394" begin="240" fromJunction="J5" toJunction="J6" end="300" vehsPerHour="11.339187269779794" departLane="free"/>
  <flow id="JF39395" begin="240" fromJunction="J5" toJunction="J7" end="300" vehsPerHour="1.5854071237829872" departLane="free"/>
  <flow id="JF39396" begin="240" fromJunction="J6" toJunction="J4" end="300" vehsPerHour="13.161259439442054" departLane="free"/>
  <flow id="JF39397" begin="240" fromJunction="J6" toJunction="J5" end="300" vehsPerHour="61.476979255416815" departLane="free"/>
  <flow id="JF39398" begin="240" fromJunction="J6" toJunction="J7" end="300" vehsPerHour="15.042240930488203" departLane="free"/>
  <flow id="JF39399" begin="240" fromJunction="J7" toJunction="J4" end="300" vehsPerHour="45.44465145674504" departLane="free"/>
  <flow id="JF39400" begin="240" fromJunction="J7" toJunction="J5" end="300" vehsPerHour="37.30890850165539" departLane="free"/>
  <flow id="JF39401" begin="240" fromJunction="J7" toJunction="J6" end="300" vehsPerHour="56.342225812920404" departLane="free"/>
  <flow id="JF39402" begin="240" fromJunction="J4" toJunction="J0" end="300" vehsPerHour="66.11035426146216" departLane="free"/>
  <flow id="JF39403" begin="240" fromJunction="J4" toJunction="J3" end="300" vehsPerHour="39.66678867166413" departLane="free"/>
  <flow id="JF39404" begin="240" fromJunction="J5" toJunction="J0" end="300" vehsPerHour="45.99804275517029" departLane="free"/>
  <flow id="JF39405" begin="240" fromJunction="J5" toJunction="J3" end="300" vehsPerHour="9.55219304387988" departLane="free"/>
  <flow id="JF39406" begin="240" fromJunction="J6" toJunction="J0" end="300" vehsPerHour="48.79027020930102" departLane="free"/>
  <flow id="JF39407" begin="240" fromJunction="J6" toJunction="J3" end="300" vehsPerHour="53.53925072754944" departLane="free"/>
  <flow id="JF39408" begin="240" fromJunction="J7" toJunction="J0" end="300" vehsPerHour="41.068975760473705" departLane="free"/>
  <flow id="JF39409" begin="240" fromJunction="J7" toJunction="J3" end="300" vehsPerHour="22.183791446130332" departLane="free"/>
  <flow id="JF39410" begin="300" fromJunction="J0" toJunction="J3" end="360" vehsPerHour="2.357525285295252" departLane="free"/>
  <flow id="JF39411" begin="300" fromJunction="J3" toJunction="J0" end="360" vehsPerHour="82.70971607386373" departLane="free"/>
  <flow id="JF39412" begin="300" fromJunction="J0" toJunction="J4" end="360" vehsPerHour="116.6940327175944" departLane="free"/>
  <flow id="JF39413" begin="300" fromJunction="J0" toJunction="J5" end="360" vehsPerHour="24.294281665654644" departLane="free"/>
  <flow id="JF39414" begin="300" fromJunction="J0" toJunction="J6" end="360" vehsPerHour="22.49615713243346" departLane="free"/>
  <flow id="JF39415" begin="300" fromJunction="J0" toJunction="J7" end="360" vehsPerHour="19.136556755818585" departLane="free"/>
  <flow id="JF39416" begin="300" fromJunction="J3" toJunction="J4" end="360" vehsPerHour="73.70059787300016" departLane="free"/>
  <flow id="JF39417" begin="300" fromJunction="J3" toJunction="J5" end="360" vehsPerHour="10.537709532812748" departLane="free"/>
  <flow id="JF39418" begin="300" fromJunction="J3" toJunction="J6" end="360" vehsPerHour="112.47978708311177" departLane="free"/>
  <flow id="JF39419" begin="300" fromJunction="J3" toJunction="J7" end="360" vehsPerHour="64.51285346465824" departLane="free"/>
  <flow id="JF39420" begin="300" fromJunction="J4" toJunction="J5" end="360" vehsPerHour="50.23158222245826" departLane="free"/>
  <flow id="JF39421" begin="300" fromJunction="J4" toJunction="J6" end="360" vehsPerHour="50.82291303820436" departLane="free"/>
  <flow id="JF39422" begin="300" fromJunction="J4" toJunction="J7" end="360" vehsPerHour="10.322561420375521" departLane="free"/>
  <flow id="JF39423" begin="300" fromJunction="J5" toJunction="J4" end="360" vehsPerHour="18.773732211317306" departLane="free"/>
  <flow id="JF39424" begin="300" fromJunction="J5" toJunction="J6" end="360" vehsPerHour="40.738098402590914" departLane="free"/>
  <flow id="JF39425" begin="300" fromJunction="J5" toJunction="J7" end="360" vehsPerHour="16.397861163756648" departLane="free"/>
  <flow id="JF39426" begin="300" fromJunction="J6" toJunction="J4" end="360" vehsPerHour="55.88959480456054" departLane="free"/>
  <flow id="JF39427" begin="300" fromJunction="J6" toJunction="J5" end="360" vehsPerHour="62.9547464739818" departLane="free"/>
  <flow id="JF39428" begin="300" fromJunction="J6" toJunction="J7" end="360" vehsPerHour="57.35027598310451" departLane="free"/>
  <flow id="JF39429" begin="300" fromJunction="J7" toJunction="J4" end="360" vehsPerHour="62.64791688583759" departLane="free"/>
  <flow id="JF39430" begin="300" fromJunction="J7" toJunction="J5" end="360" vehsPerHour="49.80235982777754" departLane="free"/>
  <flow id="JF39431" begin="300" fromJunction="J7" toJunction="J6" end="360" vehsPerHour="4.479004558532567" departLane="free"/>
  <flow id="JF39432" begin="300" fromJunction="J4" toJunction="J0" end="360" vehsPerHour="32.07914318206452" departLane="free"/>
  <flow id="JF39433" begin="300" fromJunction="J4" toJunction="J3" end="360" vehsPerHour="34.14367511180571" departLane="free"/>
  <flow id="JF39434" begin="300" fromJunction="J5" toJunction="J0" end="360" vehsPerHour="54.717408216862516" departLane="free"/>
  <flow id="JF39435" begin="300" fromJunction="J5" toJunction="J3" end="360" vehsPerHour="11.595991064397369" departLane="free"/>
  <flow id="JF39436" begin="300" fromJunction="J6" toJunction="J0" end="360" vehsPerHour="39.460199861668535" departLane="free"/>
  <flow id="JF39437" begin="300" fromJunction="J6" toJunction="J3" end="360" vehsPerHour="50.55476185469405" departLane="free"/>
  <flow id="JF39438" begin="300" fromJunction="J7" toJunction="J0" end="360" vehsPerHour="29.513782159214408" departLane="free"/>
  <flow id="JF39439" begin="300" fromJunction="J7" toJunction="J3" end="360" vehsPerHour="36.00324017698617" departLane="free"/>
  <flow id="JF39440" begin="360" fromJunction="J0" toJunction="J3" end="420" vehsPerHour="54.505854423388115" departLane="free"/>
  <flow id="JF39441" begin="360" fromJunction="J3" toJunction="J0" end="420" vehsPerHour="39.66377376831939" departLane="free"/>
  <flow id="JF39442" begin="360" fromJunction="J0" toJunction="J4" end="420" vehsPerHour="123.98502415902756" departLane="free"/>
  <flow id="JF39443" begin="360" fromJunction="J0" toJunction="J5" end="420" vehsPerHour="37.473778550655744" departLane="free"/>
  <flow id="JF39444" begin="360" fromJunction="J0" toJunction="J6" end="420" vehsPerHour="84.42642509753351" departLane="free"/>
  <flow id="JF39445" begin="360" fromJunction="J0" toJunction="J7" end="420" vehsPerHour="28.704064447648896" departLane="free"/>
  <flow id="JF39446" begin="360" fromJunction="J3" toJunction="J4" end="420" vehsPerHour="59.2533882585334" departLane="free"/>
  <flow id="JF39447" begin="360" fromJunction="J3" toJunction="J5" end="420" vehsPerHour="50.28390243632562" departLane="free"/>
  <flow id="JF39448" begin="360" fromJunction="J3" toJunction="J6" end="420" vehsPerHour="18.577157342419273" departLane="free"/>
  <flow id="JF39449" begin="360" fromJunction="J3" toJunction="J7" end="420" vehsPerHour="110.04253553434158" departLane="free"/>
  <flow id="JF39450" begin="360" fromJunction="J4" toJunction="J5" end="420" vehsPerHour="30.866661034013248" departLane="free"/>
  <flow id="JF39451" begin="360" fromJunction="J4" toJunction="J6" end="420" vehsPerHour="59.31032310220917" departLane="free"/>
  <flow id="JF39452" begin="360" fromJunction="J4" toJunction="J7" end="420" vehsPerHour="21.96318458938591" departLane="free"/>
  <flow id="JF39453" begin="360" fromJunction="J5" toJunction="J4" end="420" vehsPerHour="25.038141388904048" departLane="free"/>
  <flow id="JF39454" begin="360" fromJunction="J5" toJunction="J6" end="420" vehsPerHour="34.87884401634469" departLane="free"/>
  <flow id="JF39455" begin="360" fromJunction="J5" toJunction="J7" end="420" vehsPerHour="28.62659027905714" departLane="free"/>
  <flow id="JF39456" begin="360" fromJunction="J6" toJunction="J4" end="420" vehsPerHour="28.04726464727041" departLane="free"/>
  <flow id="JF39457" begin="360" fromJunction="J6" toJunction="J5" end="420" vehsPerHour="7.887962329208495" departLane="free"/>
  <flow id="JF39458" begin="360" fromJunction="J6" toJunction="J7" end="420" vehsPerHour="68.21958003336351" departLane="free"/>
  <flow id="JF39459" begin="360" fromJunction="J7" toJunction="J4" end="420" vehsPerHour="37.11469479561151" departLane="free"/>
  <flow id="JF39460" begin="360" fromJunction="J7" toJunction="J5" end="420" vehsPerHour="21.53214755953986" departLane="free"/>
  <flow id="JF39461" begin="360" fromJunction="J7" toJunction="J6" end="420" vehsPerHour="63.73445662832276" departLane="free"/>
  <flow id="JF39462" begin="360" fromJunction="J4" toJunction="J0" end="420" vehsPerHour="50.178138395662444" departLane="free"/>
  <flow id="JF39463" begin="360" fromJunction="J4" toJunction="J3" end="420" vehsPerHour="14.007548310942635" departLane="free"/>
  <flow id="JF39464" begin="360" fromJunction="J5" toJunction="J0" end="420" vehsPerHour="26.093393778737887" departLane="free"/>
  <flow id="JF39465" begin="360" fromJunction="J5" toJunction="J3" end="420" vehsPerHour="10.471767378292894" departLane="free"/>
  <flow id="JF39466" begin="360" fromJunction="J6" toJunction="J0" end="420" vehsPerHour="34.89630724164869" departLane="free"/>
  <flow id="JF39467" begin="360" fromJunction="J6" toJunction="J3" end="420" vehsPerHour="17.053331730970047" departLane="free"/>
  <flow id="JF39468" begin="360" fromJunction="J7" toJunction="J0" end="420" vehsPerHour="1.2681470955130025" departLane="free"/>
  <flow id="JF39469" begin="360" fromJunction="J7" toJunction="J3" end="420" vehsPerHour="54.33802962626595" departLane="free"/>
  <flow id="JF39470" begin="420" fromJunction="J0" toJunction="J3" end="480" vehsPerHour="6.225463522421336" departLane="free"/>
  <flow id="JF39471" begin="420" fromJunction="J3" toJunction="J0" end="480" vehsPerHour="93.66076477030795" departLane="free"/>
  <flow id="JF39472" begin="420" fromJunction="J0" toJunction="J4" end="480" vehsPerHour="99.42758195110105" departLane="free"/>
  <flow id="JF39473" begin="420" fromJunction="J0" toJunction="J5" end="480" vehsPerHour="47.454608458986016" departLane="free"/>
  <flow id="JF39474" begin="420" fromJunction="J0" toJunction="J6" end="480" vehsPerHour="70.04611155515664" departLane="free"/>
  <flow id="JF39475" begin="420" fromJunction="J0" toJunction="J7" end="480" vehsPerHour="91.62882060556876" departLane="free"/>
  <flow id="JF39476" begin="420" fromJunction="J3" toJunction="J4" end="480" vehsPerHour="85.86037692377303" departLane="free"/>
  <flow id="JF39477" begin="420" fromJunction="J3" toJunction="J5" end="480" vehsPerHour="131.60619685884845" departLane="free"/>
  <flow id="JF39478" begin="420" fromJunction="J3" toJunction="J6" end="480" vehsPerHour="126.5545098587881" departLane="free"/>
  <flow id="JF39479" begin="420" fromJunction="J3" toJunction="J7" end="480" vehsPerHour="28.788701076743173" departLane="free"/>
  <flow id="JF39480" begin="420" fromJunction="J4" toJunction="J5" end="480" vehsPerHour="30.180474344850143" departLane="free"/>
  <flow id="JF39481" begin="420" fromJunction="J4" toJunction="J6" end="480" vehsPerHour="5.784022564850342" departLane="free"/>
  <flow id="JF39482" begin="420" fromJunction="J4" toJunction="J7" end="480" vehsPerHour="11.162157459319099" departLane="free"/>
  <flow id="JF39483" begin="420" fromJunction="J5" toJunction="J4" end="480" vehsPerHour="8.801355069790837" departLane="free"/>
  <flow id="JF39484" begin="420" fromJunction="J5" toJunction="J6" end="480" vehsPerHour="29.150715769871802" departLane="free"/>
  <flow id="JF39485" begin="420" fromJunction="J5" toJunction="J7" end="480" vehsPerHour="55.67384979493598" departLane="free"/>
  <flow id="JF39486" begin="420" fromJunction="J6" toJunction="J4" end="480" vehsPerHour="30.610232000856453" departLane="free"/>
  <flow id="JF39487" begin="420" fromJunction="J6" toJunction="J5" end="480" vehsPerHour="39.98395978174564" departLane="free"/>
  <flow id="JF39488" begin="420" fromJunction="J6" toJunction="J7" end="480" vehsPerHour="3.702959902938084" departLane="free"/>
  <flow id="JF39489" begin="420" fromJunction="J7" toJunction="J4" end="480" vehsPerHour="8.440971365022818" departLane="free"/>
  <flow id="JF39490" begin="420" fromJunction="J7" toJunction="J5" end="480" vehsPerHour="15.05062162737535" departLane="free"/>
  <flow id="JF39491" begin="420" fromJunction="J7" toJunction="J6" end="480" vehsPerHour="29.885873201530192" departLane="free"/>
  <flow id="JF39492" begin="420" fromJunction="J4" toJunction="J0" end="480" vehsPerHour="44.52384533931122" departLane="free"/>
  <flow id="JF39493" begin="420" fromJunction="J4" toJunction="J3" end="480" vehsPerHour="32.30688948041179" departLane="free"/>
  <flow id="JF39494" begin="420" fromJunction="J5" toJunction="J0" end="480" vehsPerHour="9.72460381464363" departLane="free"/>
  <flow id="JF39495" begin="420" fromJunction="J5" toJunction="J3" end="480" vehsPerHour="19.316628198173433" departLane="free"/>
  <flow id="JF39496" begin="420" fromJunction="J6" toJunction="J0" end="480" vehsPerHour="47.31669162961609" departLane="free"/>
  <flow id="JF39497" begin="420" fromJunction="J6" toJunction="J3" end="480" vehsPerHour="6.967693647136076" departLane="free"/>
  <flow id="JF39498" begin="420" fromJunction="J7" toJunction="J0" end="480" vehsPerHour="15.787268504138122" departLane="free"/>
  <flow id="JF39499" begin="420" fromJunction="J7" toJunction="J3" end="480" vehsPerHour="64.78717647346753" departLane="free"/>
  <flow id="JF39500" begin="480" fromJunction="J0" toJunction="J3" end="540" vehsPerHour="12.29196803034806" departLane="free"/>
  <flow id="JF39501" begin="480" fromJunction="J3" toJunction="J0" end="540" vehsPerHour="119.29574814389977" departLane="free"/>
  <flow id="JF39502" begin="480" fromJunction="J0" toJunction="J4" end="540" vehsPerHour="72.95809440025704" departLane="free"/>
  <flow id="JF39503" begin="480" fromJunction="J0" toJunction="J5" end="540" vehsPerHour="114.49716572617922" departLane="free"/>
  <flow id="JF39504" begin="480" fromJunction="J0" toJunction="J6" end="540" vehsPerHour="61.40504109224608" departLane="free"/>
  <flow id="JF39505" begin="480" fromJunction="J0" toJunction="J7" end="540" vehsPerHour="112.68296209700318" departLane="free"/>
  <flow id="JF39506" begin="480" fromJunction="J3" toJunction="J4" end="540" vehsPerHour="88.38102999775636" departLane="free"/>
  <flow id="JF39507" begin="480" fromJunction="J3" toJunction="J5" end="540" vehsPerHour="95.48155193256464" departLane="free"/>
  <flow id="JF39508" begin="480" fromJunction="J3" toJunction="J6" end="540" vehsPerHour="51.85824590154665" departLane="free"/>
  <flow id="JF39509" begin="480" fromJunction="J3" toJunction="J7" end="540" vehsPerHour="6.1694848563303655" departLane="free"/>
  <flow id="JF39510" begin="540" fromJunction="J0" toJunction="J3" end="600" vehsPerHour="58.06675702365858" departLane="free"/>