<?xml version="1.0" encoding="UTF-8"?>
<routes xmlns:xsi="http://www.w3.org/2001/XMLSchema-instance" xsi:noNamespaceSchemaLocation="http://sumo.dlr.de/xsd/routes_file.xsd">
  <flow id="JF54980" begin="0" fromJunction="J0" toJunction="J3" end="60" vehsPerHour="8.237776375481147" departLane="free"/>
  <flow id="JF54981" begin="0" fromJunction="J3" toJunction="J0" end="60" vehsPerHour="58.880887735114946" departLane="free"/>
  <flow id="JF54982" begin="0" fromJunction="J0" toJunction="J4" end="60" vehsPerHour="84.54976232799656" departLane="free"/>
  <flow id="JF54983" begin="0" fromJunction="J0" toJunction="J5" end="60" vehsPerHour="26.30762770031582" departLane="free"/>
  <flow id="JF54984" begin="0" fromJunction="J0" toJunction="J6" end="60" vehsPerHour="48.32666997622566" departLane="free"/>
  <flow id="JF54985" begin="0" fromJunction="J0" toJunction="J7" end="60" vehsPerHour="44.4708404160105" departLane="free"/>
  <flow id="JF54986" begin="0" fromJunction="J3" toJunction="J4" end="60" vehsPerHour="78.33354586462679" departLane="free"/>
  <flow id="JF54987" begin="0" fromJunction="J3" toJunction="J5" end="60" vehsPerHour="15.862070655880636" departLane="free"/>
  <flow id="JF54988" begin="0" fromJunction="J3" toJunction="J6" end="60" vehsPerHour="70.33354285343323" departLane="free"/>
  <flow id="JF54989" begin="0" fromJunction="J3" toJunction="J7" end="60" vehsPerHour="46.170931548169" departLane="free"/>
  <flow id="JF54990" begin="0" fromJunction="J4" toJunction="J5" end="60" vehsPerHour="17.149532353113404" departLane="free"/>
  <flow id="JF54991" begin="0" fromJunction="J4" toJunction="J6" end="60" vehsPerHour="11.200343314825044" departLane="free"/>
  <flow id="JF54992" begin="0" fromJunction="J4" toJunction="J7" end="60" vehsPerHour="25.515728704530844" departLane="free"/>
  <flow id="JF54993" begin="0" fromJunction="J5" toJunction="J4" end="60" vehsPerHour="47.23455167042784" departLane="free"/>
  <flow id="JF54994" begin="0" fromJunction="J5" toJunction="J6" end="60" vehsPerHour="25.7725341301913" departLane="free"/>
  <flow id="JF54995" begin="0" fromJunction="J5" toJunction="J7" end="60" vehsPerHour="65.8286094574338" departLane="free"/>
  <flow id="JF54996" begin="0" fromJunction="J6" toJunction="J4" end="60" vehsPerHour="55.75771466408211" departLane="free"/>
  <flow id="JF54997" begin="0" fromJunction="J6" toJunction="J5" end="60" vehsPerHour="50.9620567103591" departLane="free"/>
  <flow id="JF54998" begin="0" fromJunction="J6" toJunction="J7" end="60" vehsPerHour="26.58953974575129" departLane="free"/>
  <flow id="JF54999" begin="0" fromJunction="J7" toJunction="J4" end="60" vehsPerHour="29.38414333745152" departLane="free"/>
  <flow id="JF55000" begin="0" fromJunction="J7" toJunction="J5" end="60" vehsPerHour="56.685235843853064" departLane="free"/>
  <flow id="JF55001" begin="0" fromJunction="J7" toJunction="J6" end="60" vehsPerHour="21.885938246407417" departLane="free"/>
  <flow id="JF55002" begin="0" fromJunction="J4" toJunction="J0" end="60" vehsPerHour="31.245880070884006" departLane="free"/>
  <flow id="JF55003" begin="0" fromJunction="J4" toJunction="J3" end="60" vehsPerHour="0.795103946382942" departLane="free"/>
  <flow id="JF55004" begin="0" fromJunction="J5" toJunction="J0" end="60" vehsPerHour="25.39218040991231" departLane="free"/>
  <flow id="JF55005" begin="0" fromJunction="J5" toJunction="J3" end="60" vehsPerHour="43.296673851270796" departLane="free"/>
  <flow id="JF55006" begin="0" fromJunction="J6" toJunction="J0" end="60" vehsPerHour="48.65235923948156" departLane="free"/>
  <flow id="JF55007" begin="0" fromJunction="J6" toJunction="J3" end="60" vehsPerHour="0.8639397493785044" departLane="free"/>
  <flow id="JF55008" begin="0" fromJunction="J7" toJunction="J0" end="60" vehsPerHour="64.68881329615897" departLane="free"/>
  <flow id="JF55009" begin="0" fromJunction="J7" toJunction="J3" end="60" vehsPerHour="13.87945790763736" departLane="free"/>
  <flow id="JF55010" begin="60" fromJunction="J0" toJunction="J3" end="120" vehsPerHour="15.27372857091672" departLane="free"/>
  <flow id="JF55011" begin="60" fromJunction="J3" toJunction="J0" end="120" vehsPerHour="71.63282414703569" departLane="free"/>
  <flow id="JF55012" begin="60" fromJunction="J0" toJunction="J4" end="120" vehsPerHour="14.110034868573361" departLane="free"/>
  <flow id="JF55013" begin="60" fromJunction="J0" toJunction="J5" end="120" vehsPerHour="94.84467091214584" departLane="free"/>
  <flow id="JF55014" begin="60" fromJunction="J0" toJunction="J6" end="120" vehsPerHour="74.54045171131497" departLane="free"/>
  <flow id="JF55015" begin="60" fromJunction="J0" toJunction="J7" end="120" vehsPerHour="73.89433734770003" departLane="free"/>
  <flow id="JF55016" begin="60" fromJunction="J3" toJunction="J4" end="120" vehsPerHour="10.755440306758603" departLane="free"/>
  <flow id="JF55017" begin="60" fromJunction="J3" toJunction="J5" end="120" vehsPerHour="111.71552661054582" departLane="free"/>
  <flow id="JF55018" begin="60" fromJunction="J3" toJunction="J6" end="120" vehsPerHour="110.58880677234444" departLane="free"/>
  <flow id="JF55019" begin="60" fromJunction="J3" toJunction="J7" end="120" vehsPerHour="9.980259377566467" departLane="free"/>
  <flow id="JF55020" begin="60" fromJunction="J4" toJunction="J5" end="120" vehsPerHour="64.86652868090901" departLane="free"/>
  <flow id="JF55021" begin="60" fromJunction="J4" toJunction="J6" end="120" vehsPerHour="67.85109950524061" departLane="free"/>
  <flow id="JF55022" begin="60" fromJunction="J4" toJunction="J7" end="120" vehsPerHour="35.63319016683024" departLane="free"/>
  <flow id="JF55023" begin="60" fromJunction="J5" toJunction="J4" end="120" vehsPerHour="60.07409908669292" departLane="free"/>
  <flow id="JF55024" begin="60" fromJunction="J5" toJunction="J6" end="120" vehsPerHour="52.23785336822783" departLane="free"/>
  <flow id="JF55025" begin="60" fromJunction="J5" toJunction="J7" end="120" vehsPerHour="55.34051409229995" departLane="free"/>
  <flow id="JF55026" begin="60" fromJunction="J6" toJunction="J4" end="120" vehsPerHour="24.25302147883139" departLane="free"/>
  <flow id="JF55027" begin="60" fromJunction="J6" toJunction="J5" end="120" vehsPerHour="59.67310159193631" departLane="free"/>
  <flow id="JF55028" begin="60" fromJunction="J6" toJunction="J7" end="120" vehsPerHour="36.989610243784774" departLane="free"/>
  <flow id="JF55029" begin="60" fromJunction="J7" toJunction="J4" end="120" vehsPerHour="48.867571362724554" departLane="free"/>
  <flow id="JF55030" begin="60" fromJunction="J7" toJunction="J5" end="120" vehsPerHour="53.65732973938306" departLane="free"/>
  <flow id="JF55031" begin="60" fromJunction="J7" toJunction="J6" end="120" vehsPerHour="31.832695957909085" departLane="free"/>
  <flow id="JF55032" begin="60" fromJunction="J4" toJunction="J0" end="120" vehsPerHour="56.9071197452724" departLane="free"/>
  <flow id="JF55033" begin="60" fromJunction="J4" toJunction="J3" end="120" vehsPerHour="62.96457410311797" departLane="free"/>
  <flow id="JF55034" begin="60" fromJunction="J5" toJunction="J0" end="120" vehsPerHour="29.88237669581927" departLane="free"/>
  <flow id="JF55035" begin="60" fromJunction="J5" toJunction="J3" end="120" vehsPerHour="57.93364022488153" departLane="free"/>
  <flow id="JF55036" begin="60" fromJunction="J6" toJunction="J0" end="120" vehsPerHour="61.89697701355852" departLane="free"/>
  <flow id="JF55037" begin="60" fromJunction="J6" toJunction="J3" end="120" vehsPerHour="47.81694815248334" departLane="free"/>
  <flow id="JF55038" begin="60" fromJunction="J7" toJunction="J0" end="120" vehsPerHour="63.52047591290122" departLane="free"/>
  <flow id="JF55039" begin="60" fromJunction="J7" toJunction="J3" end="120" vehsPerHour="50.84898202945724" departLane="free"/>
  <flow id="JF55040" begin="120" fromJunction="J0" toJunction="J3" end="180" vehsPerHour="50.19735561109662" departLane="free"/>
  <flow id="JF55041" begin="120" fromJunction="J3" toJunction="J0" end="180" vehsPerHour="26.648927722548848" departLane="free"/>
  <flow id="JF55042" begin="120" fromJunction="J0" toJunction="J4" end="180" vehsPerHour="0.4640411642934008" departLane="free"/>
  <flow id="JF55043" begin="120" fromJunction="J0" toJunction="J5" end="180" vehsPerHour="50.1714217889467" departLane="free"/>
  <flow id="JF55044" begin="120" fromJunction="J0" toJunction="J6" end="180" vehsPerHour="81.99201382884054" departLane="free"/>
  <flow id="JF55045" begin="120" fromJunction="J0" toJunction="J7" end="180" vehsPerHour="54.24525148277101" departLane="free"/>
  <flow id="JF55046" begin="120" fromJunction="J3" toJunction="J4" end="180" vehsPerHour="6.200814175850095" departLane="free"/>
  <flow id="JF55047" begin="120" fromJunction="J3" toJunction="J5" end="180" vehsPerHour="41.284047655187635" departLane="free"/>
  <flow id="JF55048" begin="120" fromJunction="J3" toJunction="J6" end="180" vehsPerHour="135.46988403357548" departLane="free"/>
  <flow id="JF55049" begin="120" fromJunction="J3" toJunction="J7" end="180" vehsPerHour="101.35382587455682" departLane="free"/>
  <flow id="JF55050" begin="120" fromJunction="J4" toJunction="J5" end="180" vehsPerHour="3.906394657774684" departLane="free"/>
  <flow id="JF55051" begin="120" fromJunction="J4" toJunction="J6" end="180" vehsPerHour="11.526612167151349" departLane="free"/>
  <flow id="JF55052" begin="120" fromJunction="J4" toJunction="J7" end="180" vehsPerHour="17.753538833633232" departLane="free"/>
  <flow id="JF55053" begin="120" fromJunction="J5" toJunction="J4" end="180" vehsPerHour="46.72287277733931" departLane="free"/>
  <flow id="JF55054" begin="120" fromJunction="J5" toJunction="J6" end="180" vehsPerHour="27.71370998644529" departLane="free"/>
  <flow id="JF55055" begin="120" fromJunction="J5" toJunction="J7" end="180" vehsPerHour="16.18484529314469" departLane="free"/>
  <flow id="JF55056" begin="120" fromJunction="J6" toJunction="J4" end="180" vehsPerHour="0.28735787793256945" departLane="free"/>
  <flow id="JF55057" begin="120" fromJunction="J6" toJunction="J5" end="180" vehsPerHour="33.44355820707551" departLane="free"/>
  <flow id="JF55058" begin="120" fromJunction="J6" toJunction="J7" end="180" vehsPerHour="26.82220353431612" departLane="free"/>
  <flow id="JF55059" begin="120" fromJunction="J7" toJunction="J4" end="180" vehsPerHour="66.29167218859754" departLane="free"/>
  <flow id="JF55060" begin="120" fromJunction="J7" toJunction="J5" end="180" vehsPerHour="49.86620841399035" departLane="free"/>
  <flow id="JF55061" begin="120" fromJunction="J7" toJunction="J6" end="180" vehsPerHour="1.217555505382404" departLane="free"/>
  <flow id="JF55062" begin="120" fromJunction="J4" toJunction="J0" end="180" vehsPerHour="42.33596520614615" departLane="free"/>
  <flow id="JF55063" begin="120" fromJunction="J4" toJunction="J3" end="180" vehsPerHour="42.65674327413561" departLane="free"/>
  <flow id="JF55064" begin="120" fromJunction="J5" toJunction="J0" end="180" vehsPerHour="26.21774605057015" departLane="free"/>
  <flow id="JF55065" begin="120" fromJunction="J5" toJunction="J3" end="180" vehsPerHour="7.94413435221635" departLane="free"/>
  <flow id="JF55066" begin="120" fromJunction="J6" toJunction="J0" end="180" vehsPerHour="26.85849866047939" departLane="free"/>
  <flow id="JF55067" begin="120" fromJunction="J6" toJunction="J3" end="180" vehsPerHour="53.17161333017729" departLane="free"/>
  <flow id="JF55068" begin="120" fromJunction="J7" toJunction="J0" end="180" vehsPerHour="45.74131036212087" departLane="free"/>
  <flow id="JF55069" begin="120" fromJunction="J7" toJunction="J3" end="180" vehsPerHour="57.538028742398154" departLane="free"/>
  <flow id="JF55070" begin="180" fromJunction="J0" toJunction="J3" end="240" vehsPerHour="0.027443969722329566" departLane="free"/>
  <flow id="JF55071" begin="180" fromJunction="J3" toJunction="J0" end="240" vehsPerHour="42.54227778062177" departLane="free"/>
  <flow id="JF55072" begin="180" fromJunction="J0" toJunction="J4" end="240" vehsPerHour="74.6714684734676" departLane="free"/>
  <flow id="JF55073" begin="180" fromJunction="J0" toJunction="J5" end="240" vehsPerHour="19.64660847827541" departLane="free"/>
  <flow id="JF55074" begin="180" fromJunction="J0" toJunction="J6" end="240" vehsPerHour="51.28460414949541" departLane="free"/>
  <flow id="JF55075" begin="180" fromJunction="J0" toJunction="J7" end="240" vehsPerHour="89.20896385603781" departLane="free"/>
  <flow id="JF55076" begin="180" fromJunction="J3" toJunction="J4" end="240" vehsPerHour="120.16796617424133" departLane="free"/>
  <flow id="JF55077" begin="180" fromJunction="J3" toJunction="J5" end="240" vehsPerHour="89.79362068815206" departLane="free"/>
  <flow id="JF55078" begin="180" fromJunction="J3" toJunction="J6" end="240" vehsPerHour="5.645320650529466" departLane="free"/>
  <flow id="JF55079" begin="180" fromJunction="J3" toJunction="J7" end="240" vehsPerHour="17.005627952674704" departLane="free"/>
  <flow id="JF55080" begin="180" fromJunction="J4" toJunction="J5" end="240" vehsPerHour="36.74264157462661" departLane="free"/>
  <flow id="JF55081" begin="180" fromJunction="J4" toJunction="J6" end="240" vehsPerHour="2.6277436428209446" departLane="free"/>
  <flow id="JF55082" begin="180" fromJunction="J4" toJunction="J7" end="240" vehsPerHour="5.310389886000278" departLane="free"/>
  <flow id="JF55083" begin="180" fromJunction="J5" toJunction="J4" end="240" vehsPerHour="21.553958699812206" departLane="free"/>
  <flow id="JF55084" begin="180" fromJunction="J5" toJunction="J6" end="240" vehsPerHour="20.972332804125823" departLane="free"/>
  <flow id="JF55085" begin="180" fromJunction="J5" toJunction="J7" end="240" vehsPerHour="8.460044934702859" departLane="free"/>
  <flow id="JF55086" begin="180" fromJunction="J6" toJunction="J4" end="240" vehsPerHour="23.836453845617378" departLane="free"/>
  <flow id="JF55087" begin="180" fromJunction="J6" toJunction="J5" end="240" vehsPerHour="30.01405155326037" departLane="free"/>
  <flow id="JF55088" begin="180" fromJunction="J6" toJunction="J7" end="240" vehsPerHour="34.66629596129357" departLane="free"/>
  <flow id="JF55089" begin="180" fromJunction="J7" toJunction="J4" end="240" vehsPerHour="14.964400193506611" departLane="free"/>
  <flow id="JF55090" begin="180" fromJunction="J7" toJunction="J5" end="240" vehsPerHour="33.19048106747299" departLane="free"/>
  <flow id="JF55091" begin="180" fromJunction="J7" toJunction="J6" end="240" vehsPerHour="55.442549799637725" departLane="free"/>
  <flow id="JF55092" begin="180" fromJunction="J4" toJunction="J0" end="240" vehsPerHour="63.324889712219324" departLane="free"/>
  <flow id="JF55093" begin="180" fromJunction="J4" toJunction="J3" end="240" vehsPerHour="46.617052589548" departLane="free"/>
  <flow id="JF55094" begin="180" fromJunction="J5" toJunction="J0" end="240" vehsPerHour="10.03191745822621" departLane="free"/>
  <flow id="JF55095" begin="180" fromJunction="J5" toJunction="J3" end="240" vehsPerHour="58.133473664708994" departLane="free"/>
  <flow id="JF55096" begin="180" fromJunction="J6" toJunction="J0" end="240" vehsPerHour="27.364625413903983" departLane="free"/>
  <flow id="JF55097" begin="180" fromJunction="J6" toJunction="J3" end="240" vehsPerHour="40.01797598541582" departLane="free"/>
  <flow id="JF55098" begin="180" fromJunction="J7" toJunction="J0" end="240" vehsPerHour="21.89674235133565" departLane="free"/>
  <flow id="JF55099" begin="180" fromJunction="J7" toJunction="J3" end="240" vehsPerHour="68.13252456144097" departLane="free"/>
  <flow id="JF55100" begin="240" fromJunction="J0" toJunction="J3" end="300" vehsPerHour="128.08895061284846" departLane="free"/>
  <flow id="JF55101" begin="240" fromJunction="J3" toJunction="J0" end="300" vehsPerHour="13.512473733763958" departLane="free"/>
  <flow id="JF55102" begin="240" fromJunction="J0" toJunction="J4" end="300" vehsPerHour="115.49617299552489" departLane="free"/>
  <flow id="JF55103" begin="240" fromJunction="J0" toJunction="J5" end="300" vehsPerHour="93.16099313595625" departLane="free"/>
  <flow id="JF55104" begin="240" fromJunction="J0" toJunction="J6" end="300" vehsPerHour="103.23571981910494" departLane="free"/>
  <flow id="JF55105" begin="240" fromJunction="J0" toJunction="J7" end="300" vehsPerHour="16.982377820500968" departLane="free"/>
  <flow id="JF55106" begin="240" fromJunction="J3" toJunction="J4" end="300" vehsPerHour="67.15489050302365" departLane="free"/>
  <flow id="JF55107" begin="240" fromJunction="J3" toJunction="J5" end="300" vehsPerHour="132.90604030568028" departLane="free"/>
  <flow id="JF55108" begin="240" fromJunction="J3" toJunction="J6" end="300" vehsPerHour="71.19984350052735" departLane="free"/>
  <flow id="JF55109" begin="240" fromJunction="J3" toJunction="J7" end="300" vehsPerHour="15.007694690908995" departLane="free"/>
  <flow id="JF55110" begin="240" fromJunction="J4" toJunction="J5" end="300" vehsPerHour="43.10322387691077" departLane="free"/>
  <flow id="JF55111" begin="240" fromJunction="J4" toJunction="J6" end="300" vehsPerHour="13.721210632039472" departLane="free"/>
  <flow id="JF55112" begin="240" fromJunction="J4" toJunction="J7" end="300" vehsPerHour="56.58969227484563" departLane="free"/>
  <flow id="JF55113" begin="240" fromJunction="J5" toJunction="J4" end="300" vehsPerHour="31.66159186106052" departLane="free"/>
  <flow id="JF55114" begin="240" fromJunction="J5" toJunction="J6" end="300" vehsPerHour="63.0145286210803" departLane="free"/>
  <flow id="JF55115" begin="240" fromJunction="J5" toJunction="J7" end="300" vehsPerHour="24.346071505937733" departLane="free"/>
  <flow id="JF55116" begin="240" fromJunction="J6" toJunction="J4" end="300" vehsPerHour="15.350032902010446" departLane="free"/>
  <flow id="JF55117" begin="240" fromJunction="J6" toJunction="J5" end="300" vehsPerHour="27.344161867191502" departLane="free"/>
  <flow id="JF55118" begin="240" fromJunction="J6" toJunction="J7" end="300" vehsPerHour="38.55496630640515" departLane="free"/>
  <flow id="JF55119" begin="240" fromJunction="J7" toJunction="J4" end="300" vehsPerHour="40.29294061251289" departLane="free"/>
  <flow id="JF55120" begin="240" fromJunction="J7" toJunction="J5" end="300" vehsPerHour="25.112072110862396" departLane="free"/>
  <flow id="JF55121" begin="240" fromJunction="J7" toJunction="J6" end="300" vehsPerHour="4.98996832506984" departLane="free"/>
  <flow id="JF55122" begin="240" fromJunction="J4" toJunction="J0" end="300" vehsPerHour="44.63718528337687" departLane="free"/>
  <flow id="JF55123" begin="240" fromJunction="J4" toJunction="J3" end="300" vehsPerHour="61.998075591622985" departLane="free"/>
  <flow id="JF55124" begin="240" fromJunction="J5" toJunction="J0" end="300" vehsPerHour="2.609967737658127" departLane="free"/>
  <flow id="JF55125" begin="240" fromJunction="J5" toJunction="J3" end="300" vehsPerHour="13.425784309863221" departLane="free"/>
  <flow id="JF55126" begin="240" fromJunction="J6" toJunction="J0" end="300" vehsPerHour="1.9013635034284897" departLane="free"/>
  <flow id="JF55127" begin="240" fromJunction="J6" toJunction="J3" end="300" vehsPerHour="65.46351295137" departLane="free"/>
  <flow id="JF55128" begin="240" fromJunction="J7" toJunction="J0" end="300" vehsPerHour="38.10714086352976" departLane="free"/>
  <flow id="JF55129" begin="240" fromJunction="J7" toJunction="J3" end="300" vehsPerHour="66.3804071523577" departLane="free"/>
  <flow id="JF55130" begin="300" fromJunction="J0" toJunction="J3" end="360" vehsPerHour="95.01335266109723" departLane="free"/>
  <flow id="JF55131" begin="300" fromJunction="J3" toJunction="J0" end="360" vehsPerHour="13.755637082655037" departLane="free"/>
  <flow id="JF55132" begin="300" fromJunction="J0" toJunction="J4" end="360" vehsPerHour="10.351359207950473" departLane="free"/>
  <flow id="JF55133" begin="300" fromJunction="J0" toJunction="J5" end="360" vehsPerHour="17.886677910663984" departLane="free"/>
  <flow id="JF55134" begin="300" fromJunction="J0" toJunction="J6" end="360" vehsPerHour="95.14486851761895" departLane="free"/>
  <flow id="JF55135" begin="300" fromJunction="J0" toJunction="J7" end="360" vehsPerHour="113.96755597601478" departLane="free"/>
  <flow id="JF55136" begin="300" fromJunction="J3" toJunction="J4" end="360" vehsPerHour="35.05410183165996" departLane="free"/>
  <flow id="JF55137" begin="300" fromJunction="J3" toJunction="J5" end="360" vehsPerHour="77.42644322781352" departLane="free"/>
  <flow id="JF55138" begin="300" fromJunction="J3" toJunction="J6" end="360" vehsPerHour="29.637671000981673" departLane="free"/>
  <flow id="JF55139" begin="300" fromJunction="J3" toJunction="J7" end="360" vehsPerHour="117.05656669084183" departLane="free"/>
  <flow id="JF55140" begin="300" fromJunction="J4" toJunction="J5" end="360" vehsPerHour="4.642469004440564" departLane="free"/>
  <flow id="JF55141" begin="300" fromJunction="J4" toJunction="J6" end="360" vehsPerHour="39.79172792753451" departLane="free"/>
  <flow id="JF55142" begin="300" fromJunction="J4" toJunction="J7" end="360" vehsPerHour="60.47788829526414" departLane="free"/>
  <flow id="JF55143" begin="300" fromJunction="J5" toJunction="J4" end="360" vehsPerHour="41.394183692816966" departLane="free"/>
  <flow id="JF55144" begin="300" fromJunction="J5" toJunction="J6" end="360" vehsPerHour="5.297831054844284" departLane="free"/>
  <flow id="JF55145" begin="300" fromJunction="J5" toJunction="J7" end="360" vehsPerHour="44.8878947004828" departLane="free"/>
  <flow id="JF55146" begin="300" fromJunction="J6" toJunction="J4" end="360" vehsPerHour="17.982256320479433" departLane="free"/>
  <flow id="JF55147" begin="300" fromJunction="J6" toJunction="J5" end="360" vehsPerHour="24.485579963851983" departLane="free"/>
  <flow id="JF55148" begin="300" fromJunction="J6" toJunction="J7" end="360" vehsPerHour="9.14283821614988" departLane="free"/>
  <flow id="JF55149" begin="300" fromJunction="J7" toJunction="J4" end="360" vehsPerHour="31.21779150488486" departLane="free"/>
  <flow id="JF55150" begin="300" fromJunction="J7" toJunction="J5" end="360" vehsPerHour="29.633308838875077" departLane="free"/>
  <flow id="JF55151" begin="300" fromJunction="J7" toJunction="J6" end="360" vehsPerHour="49.04992453501442" departLane="free"/>
  <flow id="JF55152" begin="300" fromJunction="J4" toJunction="J0" end="360" vehsPerHour="59.197223020788144" departLane="free"/>
  <flow id="JF55153" begin="300" fromJunction="J4" toJunction="J3" end="360" vehsPerHour="67.13401412697945" departLane="free"/>
  <flow id="JF55154" begin="300" fromJunction="J5" toJunction="J0" end="360" vehsPerHour="51.47394290828098" departLane="free"/>
  <flow id="JF55155" begin="300" fromJunction="J5" toJunction="J3" end="360" vehsPerHour="67.69260687346598" departLane="free"/>
  <flow id="JF55156" begin="300" fromJunction="J6" toJunction="J0" end="360" vehsPerHour="32.93188042832315" departLane="free"/>
  <flow id="JF55157" begin="300" fromJunction="J6" toJunction="J3" end="360" vehsPerHour="24.929699951275214" departLane="free"/>
  <flow id="JF55158" begin="300" fromJunction="J7" toJunction="J0" end="360" vehsPerHour="19.490396620770987" departLane="free"/>
  <flow id="JF55159" begin="300" fromJunction="J7" toJunction="J3" end="360" vehsPerHour="0.8262391411333468" departLane="free"/>
  <flow id="JF55160" begin="360" fromJunction="J0" toJunction="J3" end="420" vehsPerHour="69.29935648740928" departLane="free"/>
  <flow id="JF55161" begin="360" fromJunction="J3" toJunction="J0" end="420" vehsPerHour="77.90562716412838" departLane="free"/>
  <flow id="JF55162" begin="360" fromJunction="J0" toJunction="J4" end="420" vehsPerHour="131.5278832003364" departLane="free"/>
  <flow id="JF55163" begin="360" fromJunction="J0" toJunction="J5" end="420" vehsPerHour="51.675080321544606" departLane="free"/>
  <flow id="JF55164" begin="360" fromJunction="J0" toJunction="J6" end="420" vehsPerHour="7.324784777266367" departLane="free"/>
  <flow id="JF55165" begin="360" fromJunction="J0" toJunction="J7" end="420" vehsPerHour="22.35731311488972" departLane="free"/>
  <flow id="JF55166" begin="360" fromJunction="J3" toJunction="J4" end="420" vehsPerHour="100.60326128767271" departLane="free"/>
  <flow id="JF55167" begin="360" fromJunction="J3" toJunction="J5" end="420" vehsPerHour="52.16832299724013" departLane="free"/>
  <flow id="JF55168" begin="360" fromJunction="J3" toJunction="J6" end="420" vehsPerHour="52.769156770546275" departLane="free"/>
  <flow id="JF55169" begin="360" fromJunction="J3" toJunction="J7" end="420" vehsPerHour="107.28056931902474" departLane="free"/>
  <flow id="JF55170" begin="360" fromJunction="J4" toJunction="J5" end="420" vehsPerHour="47.81521050699172" departLane="free"/>
  <flow id="JF55171" begin="360" fromJunction="J4" toJunction="J6" end="420" vehsPerHour="22.206298096493576" departLane="free"/>
  <flow id="JF55172" begin="360" fromJunction="J4" toJunction="J7" end="420" vehsPerHour="56.853729215741176" departLane="free"/>
  <flow id="JF55173" begin="360" fromJunction="J5" toJunction="J4" end="420" vehsPerHour="37.27810970124045" departLane="free"/>
  <flow id="JF55174" begin="360" fromJunction="J5" toJunction="J6" end="420" vehsPerHour="30.43340383116167" departLane="free"/>
  <flow id="JF55175" begin="360" fromJunction="J5" toJunction="J7" end="420" vehsPerHour="53.63422261436172" departLane="free"/>
  <flow id="JF55176" begin="360" fromJunction="J6" toJunction="J4" end="420" vehsPerHour="36.03047379463201" departLane="free"/>
  <flow id="JF55177" begin="360" fromJunction="J6" toJunction="J5" end="420" vehsPerHour="55.242737296325316" departLane="free"/>
  <flow id="JF55178" begin="360" fromJunction="J6" toJunction="J7" end="420" vehsPerHour="19.856017625676724" departLane="free"/>
  <flow id="JF55179" begin="360" fromJunction="J7" toJunction="J4" end="420" vehsPerHour="60.324925405719235" departLane="free"/>
  <flow id="JF55180" begin="360" fromJunction="J7" toJunction="J5" end="420" vehsPerHour="31.832295225753953" departLane="free"/>
  <flow id="JF55181" begin="360" fromJunction="J7" toJunction="J6" end="420" vehsPerHour="33.52145500666363" departLane="free"/>
  <flow id="JF55182" begin="360" fromJunction="J4" toJunction="J0" end="420" vehsPerHour="20.95176989286622" departLane="free"/>
  <flow id="JF55183" begin="360" fromJunction="J4" toJunction="J3" end="420" vehsPerHour="20.601104392647677" departLane="free"/>
  <flow id="JF55184" begin="360" fromJunction="J5" toJunction="J0" end="420" vehsPerHour="62.510505180095684" departLane="free"/>
  <flow id="JF55185" begin="360" fromJunction="J5" toJunction="J3" end="420" vehsPerHour="5.853702147360796" departLane="free"/>
  <flow id="JF55186" begin="360" fromJunction="J6" toJunction="J0" end="420" vehsPerHour="64.60532373157385" departLane="free"/>
  <flow id="JF55187" begin="360" fromJunction="J6" toJunction="J3" end="420" vehsPerHour="4.818403846139642" departLane="free"/>
  <flow id="JF55188" begin="360" fromJunction="J7" toJunction="J0" end="420" vehsPerHour="59.878432157642074" departLane="free"/>
  <flow id="JF55189" begin="360" fromJunction="J7" toJunction="J3" end="420" vehsPerHour="8.708264363003057" departLane="free"/>
  <flow id="JF55190" begin="420" fromJunction="J0" toJunction="J3" end="480" vehsPerHour="0.8611448451362089" departLane="free"/>
  <flow id="JF55191" begin="420" fromJunction="J3" toJunction="J0" end="480" vehsPerHour="20.8513825051335" departLane="free"/>
  <flow id="JF55192" begin="420" fromJunction="J0" toJunction="J4" end="480" vehsPerHour="8.902064426258166" departLane="free"/>
  <flow id="JF55193" begin="420" fromJunction="J0" toJunction="J5" end="480" vehsPerHour="12.302217398721595" departLane="free"/>
  <flow id="JF55194" begin="420" fromJunction="J0" toJunction="J6" end="480" vehsPerHour="78.2263596486346" departLane="free"/>
  <flow id="JF55195" begin="420" fromJunction="J0" toJunction="J7" end="480" vehsPerHour="46.63743570799545" departLane="free"/>
  <flow id="JF55196" begin="420" fromJunction="J3" toJunction="J4" end="480" vehsPerHour="71.2788411829711" departLane="free"/>
  <flow id="JF55197" begin="420" fromJunction="J3" toJunction="J5" end="480" vehsPerHour="93.98193968652575" departLane="free"/>
  <flow id="JF55198" begin="420" fromJunction="J3" toJunction="J6" end="480" vehsPerHour="73.63200503100386" departLane="free"/>
  <flow id="JF55199" begin="420" fromJunction="J3" toJunction="J7" end="480" vehsPerHour="59.23458340261158" departLane="free"/>
  <flow id="JF55200" begin="420" fromJunction="J4" toJunction="J5" end="480" vehsPerHour="62.66557940510302" departLane="free"/>
  <flow id="JF55201" begin="420" fromJunction="J4" toJunction="J6" end="480" vehsPerHour="24.54532217282792" departLane="free"/>
  <flow id="JF55202" begin="420" fromJunction="J4" toJunction="J7" end="480" vehsPerHour="55.25258179651896" departLane="free"/>
  <flow id="JF55203" begin="420" fromJunction="J5" toJunction="J4" end="480" vehsPerHour="12.318179719115328" departLane="free"/>
  <flow id="JF55204" begin="420" fromJunction="J5" toJunction="J6" end="480" vehsPerHour="50.98209320642488" departLane="free"/>
  <flow id="JF55205" begin="420" fromJunction="J5" toJunction="J7" end="480" vehsPerHour="53.39337660988964" departLane="free"/>
  <flow id="JF55206" begin="420" fromJunction="J6" toJunction="J4" end="480" vehsPerHour="56.19885949493332" departLane="free"/>
  <flow id="JF55207" begin="420" fromJunction="J6" toJunction="J5" end="480" vehsPerHour="4.58957695192046" departLane="free"/>
  <flow id="JF55208" begin="420" fromJunction="J6" toJunction="J7" end="480" vehsPerHour="2.1356070968138834" departLane="free"/>
  <flow id="JF55209" begin="420" fromJunction="J7" toJunction="J4" end="480" vehsPerHour="7.466744505682352" departLane="free"/>
  <flow id="JF55210" begin="420" fromJunction="J7" toJunction="J5" end="480" vehsPerHour="67.89590134711055" departLane="free"/>