<?xml version="1.0" encoding="UTF-8"?>
<routes xmlns:xsi="http://www.w3.org/2001/XMLSchema-instance" xsi:noNamespaceSchemaLocation="http://sumo.dlr.de/xsd/routes_file.xsd">
  <flow id="JF47140" begin="0" fromJunction="J0" toJunction="J3" end="60" vehsPerHour="61.83086122203663" departLane="free"/>
  <flow id="JF47141" begin="0" fromJunction="J3" toJunction="J0" end="60" vehsPerHour="133.86340860795443" departLane="free"/>
  <flow id="JF47142" begin="0" fromJunction="J0" toJunction="J4" end="60" vehsPerHour="19.193706905474635" departLane="free"/>
  <flow id="JF47143" begin="0" fromJunction="J0" toJunction="J5" end="60" vehsPerHour="32.17054238353187" departLane="free"/>
  <flow id="JF47144" begin="0" fromJunction="J0" toJunction="J6" end="60" vehsPerHour="132.9931631408485" departLane="free"/>
  <flow id="JF47145" begin="0" fromJunction="J0" toJunction="J7" end="60" vehsPerHour="113.6779309190268" departLane="free"/>
  <flow id="JF47146" begin="0" fromJunction="J3" toJunction="J4" end="60" vehsPerHour="30.115667254071926" departLane="free"/>
  <flow id="JF47147" begin="0" fromJunction="J3" toJunction="J5" end="60" vehsPerHour="126.03969672929297" departLane="free"/>
  <flow id="JF47148" begin="0" fromJunction="J3" toJunction="J6" end="60" vehsPerHour="31.628388109919804" departLane="free"/>
  <flow id="JF47149" begin="0" fromJunction="J3" toJunction="J7" end="60" vehsPerHour="74.10822462702195" departLane="free"/>
  <flow id="JF47150" begin="0" fromJunction="J4" toJunction="J5" end="60" vehsPerHour="33.57282685334963" departLane="free"/>
  <flow id="JF47151" begin="0" fromJunction="J4" toJunction="J6" end="60" vehsPerHour="61.85397550416941" departLane="free"/>
  <flow id="JF47152" begin="0" fromJunction="J4" toJunction="J7" end="60" vehsPerHour="48.824342560748995" departLane="free"/>
  <flow id="JF47153" begin="0" fromJunction="J5" toJunction="J4" end="60" vehsPerHour="32.41230416173253" departLane="free"/>
  <flow id="JF47154" begin="0" fromJunction="J5" toJunction="J6" end="60" vehsPerHour="16.38397780040513" departLane="free"/>
  <flow id="JF47155" begin="0" fromJunction="J5" toJunction="J7" end="60" vehsPerHour="58.92552689072888" departLane="free"/>
  <flow id="JF47156" begin="0" fromJunction="J6" toJunction="J4" end="60" vehsPerHour="63.07414038619483" departLane="free"/>
  <flow id="JF47157" begin="0" fromJunction="J6" toJunction="J5" end="60" vehsPerHour="43.89597541787195" departLane="free"/>
  <flow id="JF47158" begin="0" fromJunction="J6" toJunction="J7" end="60" vehsPerHour="33.741049989033364" departLane="free"/>
  <flow id="JF47159" begin="0" fromJunction="J7" toJunction="J4" end="60" vehsPerHour="52.37616941183697" departLane="free"/>
  <flow id="JF47160" begin="0" fromJunction="J7" toJunction="J5" end="60" vehsPerHour="8.781346306622705" departLane="free"/>
  <flow id="JF47161" begin="0" fromJunction="J7" toJunction="J6" end="60" vehsPerHour="64.17813418769676" departLane="free"/>
  <flow id="JF47162" begin="0" fromJunction="J4" toJunction="J0" end="60" vehsPerHour="34.56880962657357" departLane="free"/>
  <flow id="JF47163" begin="0" fromJunction="J4" toJunction="J3" end="60" vehsPerHour="39.04617525233576" departLane="free"/>
  <flow id="JF47164" begin="0" fromJunction="J5" toJunction="J0" end="60" vehsPerHour="7.120591322660144" departLane="free"/>
  <flow id="JF47165" begin="0" fromJunction="J5" toJunction="J3" end="60" vehsPerHour="64.57356835172372" departLane="free"/>
  <flow id="JF47166" begin="0" fromJunction="J6" toJunction="J0" end="60" vehsPerHour="21.934764129884503" departLane="free"/>
  <flow id="JF47167" begin="0" fromJunction="J6" toJunction="J3" end="60" vehsPerHour="36.19800852877141" departLane="free"/>
  <flow id="JF47168" begin="0" fromJunction="J7" toJunction="J0" end="60" vehsPerHour="47.679244269664245" departLane="free"/>
  <flow id="JF47169" begin="0" fromJunction="J7" toJunction="J3" end="60" vehsPerHour="65.10376844318388" departLane="free"/>
  <flow id="JF47170" begin="60" fromJunction="J0" toJunction="J3" end="120" vehsPerHour="38.928768704264385" departLane="free"/>
  <flow id="JF47171" begin="60" fromJunction="J3" toJunction="J0" end="120" vehsPerHour="92.61795150180296" departLane="free"/>
  <flow id="JF47172" begin="60" fromJunction="J0" toJunction="J4" end="120" vehsPerHour="13.668281555057844" departLane="free"/>
  <flow id="JF47173" begin="60" fromJunction="J0" toJunction="J5" end="120" vehsPerHour="48.65241339711669" departLane="free"/>
  <flow id="JF47174" begin="60" fromJunction="J0" toJunction="J6" end="120" vehsPerHour="111.97239028105739" departLane="free"/>
  <flow id="JF47175" begin="60" fromJunction="J0" toJunction="J7" end="120" vehsPerHour="30.42235561782917" departLane="free"/>
  <flow id="JF47176" begin="60" fromJunction="J3" toJunction="J4" end="120" vehsPerHour="1.462876705681509" departLane="free"/>
  <flow id="JF47177" begin="60" fromJunction="J3" toJunction="J5" end="120" vehsPerHour="102.05313607259367" departLane="free"/>
  <flow id="JF47178" begin="60" fromJunction="J3" toJunction="J6" end="120" vehsPerHour="17.26070978738549" departLane="free"/>
  <flow id="JF47179" begin="60" fromJunction="J3" toJunction="J7" end="120" vehsPerHour="113.25638351881543" departLane="free"/>
  <flow id="JF47180" begin="60" fromJunction="J4" toJunction="J5" end="120" vehsPerHour="54.5536349566845" departLane="free"/>
  <flow id="JF47181" begin="60" fromJunction="J4" toJunction="J6" end="120" vehsPerHour="63.19054466069952" departLane="free"/>
  <flow id="JF47182" begin="60" fromJunction="J4" toJunction="J7" end="120" vehsPerHour="64.44133569905493" departLane="free"/>
  <flow id="JF47183" begin="60" fromJunction="J5" toJunction="J4" end="120" vehsPerHour="51.976408605294495" departLane="free"/>
  <flow id="JF47184" begin="60" fromJunction="J5" toJunction="J6" end="120" vehsPerHour="61.125329544757705" departLane="free"/>
  <flow id="JF47185" begin="60" fromJunction="J5" toJunction="J7" end="120" vehsPerHour="52.58436101694749" departLane="free"/>
  <flow id="JF47186" begin="60" fromJunction="J6" toJunction="J4" end="120" vehsPerHour="46.669522850082664" departLane="free"/>
  <flow id="JF47187" begin="60" fromJunction="J6" toJunction="J5" end="120" vehsPerHour="65.45741144837572" departLane="free"/>
  <flow id="JF47188" begin="60" fromJunction="J6" toJunction="J7" end="120" vehsPerHour="65.37888971589464" departLane="free"/>
  <flow id="JF47189" begin="60" fromJunction="J7" toJunction="J4" end="120" vehsPerHour="56.634116765678684" departLane="free"/>
  <flow id="JF47190" begin="60" fromJunction="J7" toJunction="J5" end="120" vehsPerHour="67.73143823010325" departLane="free"/>
  <flow id="JF47191" begin="60" fromJunction="J7" toJunction="J6" end="120" vehsPerHour="1.284376804183015" departLane="free"/>
  <flow id="JF47192" begin="60" fromJunction="J4" toJunction="J0" end="120" vehsPerHour="22.708067366891864" departLane="free"/>
  <flow id="JF47193" begin="60" fromJunction="J4" toJunction="J3" end="120" vehsPerHour="23.17100883509424" departLane="free"/>
  <flow id="JF47194" begin="60" fromJunction="J5" toJunction="J0" end="120" vehsPerHour="49.05341809837992" departLane="free"/>
  <flow id="JF47195" begin="60" fromJunction="J5" toJunction="J3" end="120" vehsPerHour="8.019993806726484" departLane="free"/>
  <flow id="JF47196" begin="60" fromJunction="J6" toJunction="J0" end="120" vehsPerHour="62.87560071744063" departLane="free"/>
  <flow id="JF47197" begin="60" fromJunction="J6" toJunction="J3" end="120" vehsPerHour="24.927764874912782" departLane="free"/>
  <flow id="JF47198" begin="60" fromJunction="J7" toJunction="J0" end="120" vehsPerHour="52.71654480063491" departLane="free"/>
  <flow id="JF47199" begin="60" fromJunction="J7" toJunction="J3" end="120" vehsPerHour="13.71093777927102" departLane="free"/>
  <flow id="JF47200" begin="120" fromJunction="J0" toJunction="J3" end="180" vehsPerHour="34.312070539101946" departLane="free"/>
  <flow id="JF47201" begin="120" fromJunction="J3" toJunction="J0" end="180" vehsPerHour="83.28958076209264" departLane="free"/>
  <flow id="JF47202" begin="120" fromJunction="J0" toJunction="J4" end="180" vehsPerHour="88.2451421716416" departLane="free"/>
  <flow id="JF47203" begin="120" fromJunction="J0" toJunction="J5" end="180" vehsPerHour="103.39930459453846" departLane="free"/>
  <flow id="JF47204" begin="120" fromJunction="J0" toJunction="J6" end="180" vehsPerHour="26.98159732325218" departLane="free"/>
  <flow id="JF47205" begin="120" fromJunction="J0" toJunction="J7" end="180" vehsPerHour="17.304879968600407" departLane="free"/>
  <flow id="JF47206" begin="120" fromJunction="J3" toJunction="J4" end="180" vehsPerHour="8.901772888908312" departLane="free"/>
  <flow id="JF47207" begin="120" fromJunction="J3" toJunction="J5" end="180" vehsPerHour="122.59128593373802" departLane="free"/>
  <flow id="JF47208" begin="120" fromJunction="J3" toJunction="J6" end="180" vehsPerHour="27.246430272789485" departLane="free"/>
  <flow id="JF47209" begin="120" fromJunction="J3" toJunction="J7" end="180" vehsPerHour="83.72380585716242" departLane="free"/>
  <flow id="JF47210" begin="180" fromJunction="J0" toJunction="J3" end="240" vehsPerHour="51.14160260670005" departLane="free"/>
  <flow id="JF47211" begin="180" fromJunction="J3" toJunction="J0" end="240" vehsPerHour="47.937573046731394" departLane="free"/>
  <flow id="JF47212" begin="180" fromJunction="J0" toJunction="J4" end="240" vehsPerHour="31.684378772265642" departLane="free"/>
  <flow id="JF47213" begin="180" fromJunction="J0" toJunction="J5" end="240" vehsPerHour="52.22570157303857" departLane="free"/>
  <flow id="JF47214" begin="180" fromJunction="J0" toJunction="J6" end="240" vehsPerHour="87.22845199829803" departLane="free"/>
  <flow id="JF47215" begin="180" fromJunction="J0" toJunction="J7" end="240" vehsPerHour="59.27109223224655" departLane="free"/>
  <flow id="JF47216" begin="180" fromJunction="J3" toJunction="J4" end="240" vehsPerHour="123.90094637504792" departLane="free"/>
  <flow id="JF47217" begin="180" fromJunction="J3" toJunction="J5" end="240" vehsPerHour="55.07353147911394" departLane="free"/>
  <flow id="JF47218" begin="180" fromJunction="J3" toJunction="J6" end="240" vehsPerHour="79.93608932227527" departLane="free"/>
  <flow id="JF47219" begin="180" fromJunction="J3" toJunction="J7" end="240" vehsPerHour="28.975103943650446" departLane="free"/>
  <flow id="JF47220" begin="180" fromJunction="J4" toJunction="J5" end="240" vehsPerHour="51.379929765664926" departLane="free"/>
  <flow id="JF47221" begin="180" fromJunction="J4" toJunction="J6" end="240" vehsPerHour="20.34281937054787" departLane="free"/>
  <flow id="JF47222" begin="180" fromJunction="J4" toJunction="J7" end="240" vehsPerHour="32.996757282648694" departLane="free"/>
  <flow id="JF47223" begin="180" fromJunction="J5" toJunction="J4" end="240" vehsPerHour="37.82136203122077" departLane="free"/>
  <flow id="JF47224" begin="180" fromJunction="J5" toJunction="J6" end="240" vehsPerHour="11.490062700863277" departLane="free"/>
  <flow id="JF47225" begin="180" fromJunction="J5" toJunction="J7" end="240" vehsPerHour="36.414382542004304" departLane="free"/>
  <flow id="JF47226" begin="180" fromJunction="J6" toJunction="J4" end="240" vehsPerHour="13.065401306751095" departLane="free"/>
  <flow id="JF47227" begin="180" fromJunction="J6" toJunction="J5" end="240" vehsPerHour="42.296868551675516" departLane="free"/>
  <flow id="JF47228" begin="180" fromJunction="J6" toJunction="J7" end="240" vehsPerHour="32.71706370417026" departLane="free"/>
  <flow id="JF47229" begin="180" fromJunction="J7" toJunction="J4" end="240" vehsPerHour="66.46782383732648" departLane="free"/>
  <flow id="JF47230" begin="180" fromJunction="J7" toJunction="J5" end="240" vehsPerHour="12.19782094195059" departLane="free"/>
  <flow id="JF47231" begin="180" fromJunction="J7" toJunction="J6" end="240" vehsPerHour="9.958898902277" departLane="free"/>
  <flow id="JF47232" begin="180" fromJunction="J4" toJunction="J0" end="240" vehsPerHour="34.536655116954094" departLane="free"/>
  <flow id="JF47233" begin="180" fromJunction="J4" toJunction="J3" end="240" vehsPerHour="14.742529673616758" departLane="free"/>
  <flow id="JF47234" begin="180" fromJunction="J5" toJunction="J0" end="240" vehsPerHour="65.30042378903666" departLane="free"/>
  <flow id="JF47235" begin="180" fromJunction="J5" toJunction="J3" end="240" vehsPerHour="8.381593354359184" departLane="free"/>
  <flow id="JF47236" begin="180" fromJunction="J6" toJunction="J0" end="240" vehsPerHour="48.348648356812205" departLane="free"/>
  <flow id="JF47237" begin="180" fromJunction="J6" toJunction="J3" end="240" vehsPerHour="3.70588997463438" departLane="free"/>
  <flow id="JF47238" begin="180" fromJunction="J7" toJunction="J0" end="240" vehsPerHour="14.651553641582023" departLane="free"/>
  <flow id="JF47239" begin="180" fromJunction="J7" toJunction="J3" end="240" vehsPerHour="25.569027273714052" departLane="free"/>
  <flow id="JF47240" begin="240" fromJunction="J0" toJunction="J3" end="300" vehsPerHour="31.59805755446414" departLane="free"/>
  <flow id="JF47241" begin="240" fromJunction="J3" toJunction="J0" end="300" vehsPerHour="135.75728924807282" departLane="free"/>
  <flow id="JF47242" begin="240" fromJunction="J0" toJunction="J4" end="300" vehsPerHour="122.22028219141013" departLane="free"/>
  <flow id="JF47243" begin="240" fromJunction="J0" toJunction="J5" end="300" vehsPerHour="83.60876562877392" departLane="free"/>
  <flow id="JF47244" begin="240" fromJunction="J0" toJunction="J6" end="300" vehsPerHour="63.873173764135245" departLane="free"/>
  <flow id="JF47245" begin="240" fromJunction="J0" toJunction="J7" end="300" vehsPerHour="133.73271948938375" departLane="free"/>
  <flow id="JF47246" begin="240" fromJunction="J3" toJunction="J4" end="300" vehsPerHour="52.06359655751492" departLane="free"/>
  <flow id="JF47247" begin="240" fromJunction="J3" toJunction="J5" end="300" vehsPerHour="130.99161831507467" departLane="free"/>
  <flow id="JF47248" begin="240" fromJunction="J3" toJunction="J6" end="300" vehsPerHour="92.98779219702666" departLane="free"/>
  <flow id="JF47249" begin="240" fromJunction="J3" toJunction="J7" end="300" vehsPerHour="20.357275964745615" departLane="free"/>
  <flow id="JF47250" begin="240" fromJunction="J4" toJunction="J5" end="300" vehsPerHour="5.7098030428278115" departLane="free"/>
  <flow id="JF47251" begin="240" fromJunction="J4" toJunction="J6" end="300" vehsPerHour="41.60254161898306" departLane="free"/>
  <flow id="JF47252" begin="240" fromJunction="J4" toJunction="J7" end="300" vehsPerHour="5.80626766510598" departLane="free"/>
  <flow id="JF47253" begin="240" fromJunction="J5" toJunction="J4" end="300" vehsPerHour="5.1882690253545345" departLane="free"/>
  <flow id="JF47254" begin="240" fromJunction="J5" toJunction="J6" end="300" vehsPerHour="55.38882800517886" departLane="free"/>
  <flow id="JF47255" begin="240" fromJunction="J5" toJunction="J7" end="300" vehsPerHour="25.053450270079363" departLane="free"/>
  <flow id="JF47256" begin="240" fromJunction="J6" toJunction="J4" end="300" vehsPerHour="10.251881741721448" departLane="free"/>
  <flow id="JF47257" begin="240" fromJunction="J6" toJunction="J5" end="300" vehsPerHour="50.29562419148459" departLane="free"/>
  <flow id="JF47258" begin="240" fromJunction="J6" toJunction="J7" end="300" vehsPerHour="42.66610103218134" departLane="free"/>
  <flow id="JF47259" begin="240" fromJunction="J7" toJunction="J4" end="300" vehsPerHour="40.35855677162421" departLane="free"/>
  <flow id="JF47260" begin="240" fromJunction="J7" toJunction="J5" end="300" vehsPerHour="66.62568427640528" departLane="free"/>
  <flow id="JF47261" begin="240" fromJunction="J7" toJunction="J6" end="300" vehsPerHour="17.642462771824885" departLane="free"/>
  <flow id="JF47262" begin="240" fromJunction="J4" toJunction="J0" end="300" vehsPerHour="31.95461778080083" departLane="free"/>
  <flow id="JF47263" begin="240" fromJunction="J4" toJunction="J3" end="300" vehsPerHour="11.06442887637524" departLane="free"/>
  <flow id="JF47264" begin="240" fromJunction="J5" toJunction="J0" end="300" vehsPerHour="10.697990252977359" departLane="free"/>
  <flow id="JF47265" begin="240" fromJunction="J5" toJunction="J3" end="300" vehsPerHour="47.72592073524694" departLane="free"/>
  <flow id="JF47266" begin="240" fromJunction="J6" toJunction="J0" end="300" vehsPerHour="46.56941763347072" departLane="free"/>
  <flow id="JF47267" begin="240" fromJunction="J6" toJunction="J3" end="300" vehsPerHour="49.22125429128211" departLane="free"/>
  <flow id="JF47268" begin="240" fromJunction="J7" toJunction="J0" end="300" vehsPerHour="12.418878666907627" departLane="free"/>
  <flow id="JF47269" begin="240" fromJunction="J7" toJunction="J3" end="300" vehsPerHour="24.923507546453063" departLane="free"/>
  <flow id="JF47270" begin="300" fromJunction="J0" toJunction="J3" end="360" vehsPerHour="116.46617091953219" departLane="free"/>
  <flow id="JF47271" begin="300" fromJunction="J3" toJunction="J0" end="360" vehsPerHour="113.29347982915083" departLane="free"/>
  <flow id="JF47272" begin="300" fromJunction="J0" toJunction="J4" end="360" vehsPerHour="56.66391615441509" departLane="free"/>
  <flow id="JF47273" begin="300" fromJunction="J0" toJunction="J5" end="360" vehsPerHour="98.47691732462668" departLane="free"/>
  <flow id="JF47274" begin="300" fromJunction="J0" toJunction="J6" end="360" vehsPerHour="66.20031679205573" departLane="free"/>
  <flow id="JF47275" begin="300" fromJunction="J0" toJunction="J7" end="360" vehsPerHour="98.0238645498247" departLane="free"/>
  <flow id="JF47276" begin="300" fromJunction="J3" toJunction="J4" end="360" vehsPerHour="19.58090360577992" departLane="free"/>
  <flow id="JF47277" begin="300" fromJunction="J3" toJunction="J5" end="360" vehsPerHour="51.87299616034823" departLane="free"/>
  <flow id="JF47278" begin="300" fromJunction="J3" toJunction="J6" end="360" vehsPerHour="41.135372280744775" departLane="free"/>
  <flow id="JF47279" begin="300" fromJunction="J3" toJunction="J7" end="360" vehsPerHour="51.62897626642144" departLane="free"/>
  <flow id="JF47280" begin="300" fromJunction="J4" toJunction="J5" end="360" vehsPerHour="36.51022980915896" departLane="free"/>
  <flow id="JF47281" begin="300" fromJunction="J4" toJunction="J6" end="360" vehsPerHour="3.656362521422126" departLane="free"/>
  <flow id="JF47282" begin="300" fromJunction="J4" toJunction="J7" end="360" vehsPerHour="52.141966240094156" departLane="free"/>
  <flow id="JF47283" begin="300" fromJunction="J5" toJunction="J4" end="360" vehsPerHour="39.460590746891334" departLane="free"/>
  <flow id="JF47284" begin="300" fromJunction="J5" toJunction="J6" end="360" vehsPerHour="40.73825643423963" departLane="free"/>
  <flow id="JF47285" begin="300" fromJunction="J5" toJunction="J7" end="360" vehsPerHour="11.174809086462957" departLane="free"/>
  <flow id="JF47286" begin="300" fromJunction="J6" toJunction="J4" end="360" vehsPerHour="46.85966533833099" departLane="free"/>
  <flow id="JF47287" begin="300" fromJunction="J6" toJunction="J5" end="360" vehsPerHour="67.71985672958175" departLane="free"/>
  <flow id="JF47288" begin="300" fromJunction="J6" toJunction="J7" end="360" vehsPerHour="53.22897665189761" departLane="free"/>
  <flow id="JF47289" begin="300" fromJunction="J7" toJunction="J4" end="360" vehsPerHour="39.28280058444862" departLane="free"/>
  <flow id="JF47290" begin="300" fromJunction="J7" toJunction="J5" end="360" vehsPerHour="43.44896478089211" departLane="free"/>
  <flow id="JF47291" begin="300" fromJunction="J7" toJunction="J6" end="360" vehsPerHour="66.44182085840477" departLane="free"/>
  <flow id="JF47292" begin="300" fromJunction="J4" toJunction="J0" end="360" vehsPerHour="22.946808251974808" departLane="free"/>
  <flow id="JF47293" begin="300" fromJunction="J4" toJunction="J3" end="360" vehsPerHour="47.86279833481279" departLane="free"/>
  <flow id="JF47294" begin="300" fromJunction="J5" toJunction="J0" end="360" vehsPerHour="27.88959058510111" departLane="free"/>
  <flow id="JF47295" begin="300" fromJunction="J5" toJunction="J3" end="360" vehsPerHour="20.61649530652326" departLane="free"/>
  <flow id="JF47296" begin="300" fromJunction="J6" toJunction="J0" end="360" vehsPerHour="39.93570413940164" departLane="free"/>
  <flow id="JF47297" begin="300" fromJunction="J6" toJunction="J3" end="360" vehsPerHour="7.855637234636474" departLane="free"/>
  <flow id="JF47298" begin="300" fromJunction="J7" toJunction="J0" end="360" vehsPerHour="43.61745739204994" departLane="free"/>
  <flow id="JF47299" begin="300" fromJunction="J7" toJunction="J3" end="360" vehsPerHour="21.622551068277566" departLane="free"/>
  <flow id="JF47300" begin="360" fromJunction="J0" toJunction="J3" end="420" vehsPerHour="10.67791373657092" departLane="free"/>
  <flow id="JF47301" begin="360" fromJunction="J3" toJunction="J0" end="420" vehsPerHour="44.588427038648376" departLane="free"/>
  <flow id="JF47302" begin="360" fromJunction="J0" toJunction="J4" end="420" vehsPerHour="89.40747784844183" departLane="free"/>
  <flow id="JF47303" begin="360" fromJunction="J0" toJunction="J5" end="420" vehsPerHour="13.588979517792172" departLane="free"/>
  <flow id="JF47304" begin="360" fromJunction="J0" toJunction="J6" end="420" vehsPerHour="123.81635082399781" departLane="free"/>
  <flow id="JF47305" begin="360" fromJunction="J0" toJunction="J7" end="420" vehsPerHour="69.46716323276586" departLane="free"/>
  <flow id="JF47306" begin="360" fromJunction="J3" toJunction="J4" end="420" vehsPerHour="56.73903433732861" departLane="free"/>
  <flow id="JF47307" begin="360" fromJunction="J3" toJunction="J5" end="420" vehsPerHour="65.49431675300802" departLane="free"/>
  <flow id="JF47308" begin="360" fromJunction="J3" toJunction="J6" end="420" vehsPerHour="58.60678563766503" departLane="free"/>
  <flow id="JF47309" begin="360" fromJunction="J3" toJunction="J7" end="420" vehsPerHour="44.081360617475326" departLane="free"/>
  <flow id="JF47310" begin="360" fromJunction="J4" toJunction="J5" end="420" vehsPerHour="47.66238357079714" departLane="free"/>
  <flow id="JF47311" begin="360" fromJunction="J4" toJunction="J6" end="420" vehsPerHour="33.76975686980173" departLane="free"/>
  <flow id="JF47312" begin="360" fromJunction="J4" toJunction="J7" end="420" vehsPerHour="31.060204332774006" departLane="free"/>
  <flow id="JF47313" begin="360" fromJunction="J5" toJunction="J4" end="420" vehsPerHour="48.19831949011712" departLane="free"/>
  <flow id="JF47314" begin="360" fromJunction="J5" toJunction="J6" end="420" vehsPerHour="0.7895069850513426" departLane="free"/>
  <flow id="JF47315" begin="360" fromJunction="J5" toJunction="J7" end="420" vehsPerHour="42.145559481620204" departLane="free"/>
  <flow id="JF47316" begin="360" fromJunction="J6" toJunction="J4" end="420" vehsPerHour="32.26191288695948" departLane="free"/>
  <flow id="JF47317" begin="360" fromJunction="J6" toJunction="J5" end="420" vehsPerHour="31.663229696559565" departLane="free"/>
  <flow id="JF47318" begin="360" fromJunction="J6" toJunction="J7" end="420" vehsPerHour="62.346236149072844" departLane="free"/>
  <flow id="JF47319" begin="360" fromJunction="J7" toJunction="J4" end="420" vehsPerHour="19.10002863644034" departLane="free"/>
  <flow id="JF47320" begin="360" fromJunction="J7" toJunction="J5" end="420" vehsPerHour="5.832300674869873" departLane="free"/>
  <flow id="JF47321" begin="360" fromJunction="J7" toJunction="J6" end="420" vehsPerHour="63.96959614136153" departLane="free"/>
  <flow id="JF47322" begin="360" fromJunction="J4" toJunction="J0" end="420" vehsPerHour="68.3672355520173" departLane="free"/>
  <flow id="JF47323" begin="360" fromJunction="J4" toJunction="J3" end="420" vehsPerHour="48.817309429414806" departLane="free"/>
  <flow id="JF47324" begin="360" fromJunction="J5" toJunction="J0" end="420" vehsPerHour="5.453023376559392" departLane="free"/>
  <flow id="JF47325" begin="360" fromJunction="J5" toJunction="J3" end="420" vehsPerHour="16.989571110569816" departLane="free"/>
  <flow id="JF47326" begin="360" fromJunction="J6" toJunction="J0" end="420" vehsPerHour="14.46027612774925" departLane="free"/>
  <flow id="JF47327" begin="360" fromJunction="J6" toJunction="J3" end="420" vehsPerHour="63.89007161666617" departLane="free"/>
  <flow id="JF47328" begin="360" fromJunction="J7" toJunction="J0" end="420" vehsPerHour="25.893580859253596" departLane="free"/>
  <flow id="JF47329" begin="360" fromJunction="J7" toJunction="J3" end="420" vehsPerHour="60.6010498236281" departLane="free"/>
  <flow id="JF47330" begin="420" fromJunction="J0" toJunction="J3" end="480" vehsPerHour="95.42596172713444" departLane="free"/>
  <flow id="JF47331" begin="420" fromJunction="J3" toJunction="J0" end="480" vehsPerHour="4.698357250072598" departLane="free"/>
  <flow id="JF47332" begin="420" fromJunction="J0" toJunction="J4" end="480" vehsPerHour="105.52600971607549" departLane="free"/>
  <flow id="JF47333" begin="420" fromJunction="J0" toJunction="J5" end="480" vehsPerHour="22.69045283050564" departLane="free"/>
  <flow id="JF47334" begin="420" fromJunction="J0" toJunction="J6" end="480" vehsPerHour="61.20630268553191" departLane="free"/>
  <flow id="JF47335" begin="420" fromJunction="J0" toJunction="J7" end="480" vehsPerHour="114.01216642418314" departLane="free"/>
  <flow id="JF47336" begin="420" fromJunction="J3" toJunction="J4" end="480" vehsPerHour="71.22611470756488" departLane="free"/>
  <flow id="JF47337" begin="420" fromJunction="J3" toJunction="J5" end="480" vehsPerHour="134.32330386426545" departLane="free"/>
  <flow id="JF47338" begin="420" fromJunction="J3" toJunction="J6" end="480" vehsPerHour="133.14068328348583" departLane="free"/>
  <flow id="JF47339" begin="420" fromJunction="J3" toJunction="J7" end="480" vehsPerHour="115.19212636657475" departLane="free"/>
  <flow id="JF47340" begin="420" fromJunction="J4" toJunction="J5" end="480" vehsPerHour="53.55449723202271" departLane="free"/>
  <flow id="JF47341" begin="420" fromJunction="J4" toJunction="J6" end="480" vehsPerHour="53.614493783341416" departLane="free"/>
  <flow id="JF47342" begin="420" fromJunction="J4" toJunction="J7" end="480" vehsPerHour="55.91868689082104" departLane="free"/>
  <flow id="JF47343" begin="420" fromJunction="J5" toJunction="J4" end="480" vehsPerHour="7.654724799028408" departLane="free"/>
  <flow id="JF47344" begin="420" fromJunction="J5" toJunction="J6" end="480" vehsPerHour="23.958653330606012" departLane="free"/>
  <flow id="JF47345" begin="420" fromJunction="J5" toJunction="J7" end="480" vehsPerHour="57.72840535038688" departLane="free"/>
  <flow id="JF47346" begin="420" fromJunction="J6" toJunction="J4" end="480" vehsPerHour="20.03674837201038" departLane="free"/>
  <flow id="JF47347" begin="420" fromJunction="J6" toJunction="J5" end="480" vehsPerHour="20.312237936839814" departLane="free"/>
  <flow id="JF47348" begin="420" fromJunction="J6" toJunction="J7" end="480" vehsPerHour="21.47239270987425" departLane="free"/>
  <flow id="JF47349" begin="420" fromJunction="J7" toJunction="J4" end="480" vehsPerHour="1.8943494200453834" departLane="free"/>
  <flow id="JF47350" begin="420" fromJunction="J7" toJunction="J5" end="480" vehsPerHour="61.027711588044646" departLane="free"/>
  <flow id="JF47351" begin="420" fromJunction="J7" toJunction="J6" end="480" vehsPerHour="29.293899668170145" departLane="free"/>
  <flow id="JF47352" begin="420" fromJunction="J4" toJunction="J0" end="480" vehsPerHour="24.147689400150654" departLane="free"/>
  <flow id="JF47353" begin="420" fromJunction="J4" toJunction="J3" end="480" vehsPerHour="13.152235771324166" departLane="free"/>
  <flow id="JF47354" begin="420" fromJunction="J5" toJunction="J0" end="480" vehsPerHour="17.072042332491357" departLane="free"/>
  <flow id="JF47355" begin="420" fromJunction="J5" toJunction="J3" end="480" vehsPerHour="8.434511368614615" departLane="free"/>
  <flow id="JF47356" begin="420" fromJunction="J6" toJunction="J0" end="480" vehsPerHour="20.03617737024007" departLane="free"/>
  <flow id="JF47357" begin="420" fromJunction="J6" toJunction="J3" end="480" vehsPerHour="18.199547539085117" departLane="free"/>
  <flow id="JF47358" begin="420" fromJunction="J7" toJunction="J0" end="480" vehsPerHour="19.900759876652756" departLane="free"/>
  <flow id="JF47359" begin="420" fromJunction="J7" toJunction="J3" end="480" vehsPerHour="61.7102588100113" departLane="free"/>
  <flow id="JF47360" begin="480" fromJunction="J0" toJunction="J3" end="540" vehsPerHour="93.03506160122885" departLane="free"/>
  <flow id="JF47361" begin="480" fromJunction="J3" toJunction="J0" end="540" vehsPerHour="128.56489207504484" departLane="free"/>
  <flow id="JF47362" begin="480" fromJunction="J0" toJunction="J4" end="540" vehsPerHour="20.77032400727758" departLane="free"/>
  <flow id="JF47363" begin="480" fromJunction="J0" toJunction="J5" end="540" vehsPerHour="65.32602591924127" departLane="free"/>
  <flow id="JF47364" begin="480" fromJunction="J0" toJunction="J6" end="540" vehsPerHour="4.722648393465189" departLane="free"/>
  <flow id="JF47365" begin="480" fromJunction="J0" toJunction="J7" end="540" vehsPerHour="1.122697799920738" departLane="free"/>
  <flow id="JF47366" begin="480" fromJunction="J3" toJunction="J4" end="540" vehsPerHour="129.62512294613455" departLane="free"/>
  <flow id="JF47367" begin="480" fromJunction="J3" toJunction="J5" end="540" vehsPerHour="112.33448441308786" departLane="free"/>
  <flow id="JF47368" begin="480" fromJunction="J3" toJunction="J6" end="540" vehsPerHour="67.85200455926135" departLane="free"/>
  <flow id="JF47369" begin="480" fromJunction="J3" toJunction="J7" end="540" vehsPerHour="18.871844893102214" departLane="free"/>
  <flow id="JF47370" begin="540" fromJunction="J0" toJunction="J3" end="600" vehsPerHour="95.99113248137398" departLane="free"/>