<?xml version="1.0" encoding="UTF-8"?>
<routes xmlns:xsi="http://www.w3.org/2001/XMLSchema-instance" xsi:noNamespaceSchemaLocation="http://sumo.dlr.de/xsd/routes_file.xsd">
  <flow id="JF50940" begin="0" fromJunction="J0" toJunction="J3" end="60" vehsPerHour="69.61095643725602" departLane="free"/>
  <flow id="JF50941" begin="0" fromJunction="J3" toJunction="J0" end="60" vehsPerHour="106.08560823985773" departLane="free"/>
  <flow id="JF50942" begin="0" fromJunction="J0" toJunction="J4" end="60" vehsPerHour="82.31416522655061" departLane="free"/>
  <flow id="JF50943" begin="0" fromJunction="J0" toJunction="J5" end="60" vehsPerHour="118.09331859398762" departLane="free"/>
  <flow id="JF50944" begin="0" fromJunction="J0" toJunction="J6" end="60" vehsPerHour="74.0390534308145" departLane="free"/>
  <flow id="JF50945" begin="0" fromJunction="J0" toJunction="J7" end="60" vehsPerHour="96.39363803960477" departLane="free"/>
  <flow id="JF50946" begin="0" fromJunction="J3" toJunction="J4" end="60" vehsPerHour="84.59106205486847" departLane="free"/>
  <flow id="JF50947" begin="0" fromJunction="J3" toJunction="J5" end="60" vehsPerHour="20.634535475592042" departLane="free"/>
  <flow id="JF50948" begin="0" fromJunction="J3" toJunction="J6" end="60" vehsPerHour="82.48567099440905" departLane="free"/>
  <flow id="JF50949" begin="0" fromJunction="J3" toJunction="J7" end="60" vehsPerHour="52.761857173003094" departLane="free"/>
  <flow id="JF50950" begin="0" fromJunction="J4" toJunction="J5" end="60" vehsPerHour="23.534240803051457" departLane="free"/>
  <flow id="JF50951" begin="0" fromJunction="J4" toJunction="J6" end="60" vehsPerHour="7.09937678059076" departLane="free"/>
  <flow id="JF50952" begin="0" fromJunction="J4" toJunction="J7" end="60" vehsPerHour="61.58753429951573" departLane="free"/>
  <flow id="JF50953" begin="0" fromJunction="J5" toJunction="J4" end="60" vehsPerHour="64.82541664667866" departLane="free"/>
  <flow id="JF50954" begin="0" fromJunction="J5" toJunction="J6" end="60" vehsPerHour="29.767364684655497" departLane="free"/>
  <flow id="JF50955" begin="0" fromJunction="J5" toJunction="J7" end="60" vehsPerHour="62.076307723290306" departLane="free"/>
  <flow id="JF50956" begin="0" fromJunction="J6" toJunction="J4" end="60" vehsPerHour="36.69886750554093" departLane="free"/>
  <flow id="JF50957" begin="0" fromJunction="J6" toJunction="J5" end="60" vehsPerHour="14.036631630139563" departLane="free"/>
  <flow id="JF50958" begin="0" fromJunction="J6" toJunction="J7" end="60" vehsPerHour="3.385743056245408" departLane="free"/>
  <flow id="JF50959" begin="0" fromJunction="J7" toJunction="J4" end="60" vehsPerHour="52.916819696545765" departLane="free"/>
  <flow id="JF50960" begin="0" fromJunction="J7" toJunction="J5" end="60" vehsPerHour="10.254059118998832" departLane="free"/>
  <flow id="JF50961" begin="0" fromJunction="J7" toJunction="J6" end="60" vehsPerHour="10.706156413543454" departLane="free"/>
  <flow id="JF50962" begin="0" fromJunction="J4" toJunction="J0" end="60" vehsPerHour="24.14290997035786" departLane="free"/>
  <flow id="JF50963" begin="0" fromJunction="J4" toJunction="J3" end="60" vehsPerHour="6.558083347475217" departLane="free"/>
  <flow id="JF50964" begin="0" fromJunction="J5" toJunction="J0" end="60" vehsPerHour="7.66072380578154" departLane="free"/>
  <flow id="JF50965" begin="0" fromJunction="J5" toJunction="J3" end="60" vehsPerHour="2.1701030699401063" departLane="free"/>
  <flow id="JF50966" begin="0" fromJunction="J6" toJunction="J0" end="60" vehsPerHour="61.24550268834036" departLane="free"/>
  <flow id="JF50967" begin="0" fromJunction="J6" toJunction="J3" end="60" vehsPerHour="57.08355067608096" departLane="free"/>
  <flow id="JF50968" begin="0" fromJunction="J7" toJunction="J0" end="60" vehsPerHour="8.788556744930872" departLane="free"/>
  <flow id="JF50969" begin="0" fromJunction="J7" toJunction="J3" end="60" vehsPerHour="30.218435829715677" departLane="free"/>
  <flow id="JF50970" begin="60" fromJunction="J0" toJunction="J3" end="120" vehsPerHour="130.8744130765414" departLane="free"/>
  <flow id="JF50971" begin="60" fromJunction="J3" toJunction="J0" end="120" vehsPerHour="120.38855272465617" departLane="free"/>
  <flow id="JF50972" begin="60" fromJunction="J0" toJunction="J4" end="120" vehsPerHour="53.12473281951945" departLane="free"/>
  <flow id="JF50973" begin="60" fromJunction="J0" toJunction="J5" end="120" vehsPerHour="29.980776921434337" departLane="free"/>
  <flow id="JF50974" begin="60" fromJunction="J0" toJunction="J6" end="120" vehsPerHour="126.91102986118503" departLane="free"/>
  <flow id="JF50975" begin="60" fromJunction="J0" toJunction="J7" end="120" vehsPerHour="21.922593281979438" departLane="free"/>
  <flow id="JF50976" begin="60" fromJunction="J3" toJunction="J4" end="120" vehsPerHour="130.53222135215265" departLane="free"/>
  <flow id="JF50977" begin="60" fromJunction="J3" toJunction="J5" end="120" vehsPerHour="123.72147785041226" departLane="free"/>
  <flow id="JF50978" begin="60" fromJunction="J3" toJunction="J6" end="120" vehsPerHour="75.22442741775338" departLane="free"/>
  <flow id="JF50979" begin="60" fromJunction="J3" toJunction="J7" end="120" vehsPerHour="2.830350623381987" departLane="free"/>
  <flow id="JF50980" begin="120" fromJunction="J0" toJunction="J3" end="180" vehsPerHour="27.936364458215532" departLane="free"/>
  <flow id="JF50981" begin="120" fromJunction="J3" toJunction="J0" end="180" vehsPerHour="127.90826776267856" departLane="free"/>
  <flow id="JF50982" begin="120" fromJunction="J0" toJunction="J4" end="180" vehsPerHour="75.83670360834692" departLane="free"/>
  <flow id="JF50983" begin="120" fromJunction="J0" toJunction="J5" end="180" vehsPerHour="20.034481067160566" departLane="free"/>
  <flow id="JF50984" begin="120" fromJunction="J0" toJunction="J6" end="180" vehsPerHour="77.23718710175616" departLane="free"/>
  <flow id="JF50985" begin="120" fromJunction="J0" toJunction="J7" end="180" vehsPerHour="84.60890090965569" departLane="free"/>
  <flow id="JF50986" begin="120" fromJunction="J3" toJunction="J4" end="180" vehsPerHour="131.94279262425104" departLane="free"/>
  <flow id="JF50987" begin="120" fromJunction="J3" toJunction="J5" end="180" vehsPerHour="22.94330125355119" departLane="free"/>
  <flow id="JF50988" begin="120" fromJunction="J3" toJunction="J6" end="180" vehsPerHour="87.09833126788595" departLane="free"/>
  <flow id="JF50989" begin="120" fromJunction="J3" toJunction="J7" end="180" vehsPerHour="48.41817674092763" departLane="free"/>
  <flow id="JF50990" begin="120" fromJunction="J4" toJunction="J5" end="180" vehsPerHour="7.577430137145109" departLane="free"/>
  <flow id="JF50991" begin="120" fromJunction="J4" toJunction="J6" end="180" vehsPerHour="67.47778215620522" departLane="free"/>
  <flow id="JF50992" begin="120" fromJunction="J4" toJunction="J7" end="180" vehsPerHour="63.11717111753915" departLane="free"/>
  <flow id="JF50993" begin="120" fromJunction="J5" toJunction="J4" end="180" vehsPerHour="34.761743394366185" departLane="free"/>
  <flow id="JF50994" begin="120" fromJunction="J5" toJunction="J6" end="180" vehsPerHour="7.655678287573351" departLane="free"/>
  <flow id="JF50995" begin="120" fromJunction="J5" toJunction="J7" end="180" vehsPerHour="26.083032958300787" departLane="free"/>
  <flow id="JF50996" begin="120" fromJunction="J6" toJunction="J4" end="180" vehsPerHour="60.490205423085825" departLane="free"/>
  <flow id="JF50997" begin="120" fromJunction="J6" toJunction="J5" end="180" vehsPerHour="55.57943831343644" departLane="free"/>
  <flow id="JF50998" begin="120" fromJunction="J6" toJunction="J7" end="180" vehsPerHour="43.486922959784984" departLane="free"/>
  <flow id="JF50999" begin="120" fromJunction="J7" toJunction="J4" end="180" vehsPerHour="22.132625934840313" departLane="free"/>
  <flow id="JF51000" begin="120" fromJunction="J7" toJunction="J5" end="180" vehsPerHour="56.22650349700006" departLane="free"/>
  <flow id="JF51001" begin="120" fromJunction="J7" toJunction="J6" end="180" vehsPerHour="20.292823854906995" departLane="free"/>
  <flow id="JF51002" begin="120" fromJunction="J4" toJunction="J0" end="180" vehsPerHour="54.8587085173724" departLane="free"/>
  <flow id="JF51003" begin="120" fromJunction="J4" toJunction="J3" end="180" vehsPerHour="0.4736807964038193" departLane="free"/>
  <flow id="JF51004" begin="120" fromJunction="J5" toJunction="J0" end="180" vehsPerHour="12.905571758838489" departLane="free"/>
  <flow id="JF51005" begin="120" fromJunction="J5" toJunction="J3" end="180" vehsPerHour="23.28797419101298" departLane="free"/>
  <flow id="JF51006" begin="120" fromJunction="J6" toJunction="J0" end="180" vehsPerHour="60.58137852730095" departLane="free"/>
  <flow id="JF51007" begin="120" fromJunction="J6" toJunction="J3" end="180" vehsPerHour="27.631393845032186" departLane="free"/>
  <flow id="JF51008" begin="120" fromJunction="J7" toJunction="J0" end="180" vehsPerHour="48.89359643303916" departLane="free"/>
  <flow id="JF51009" begin="120" fromJunction="J7" toJunction="J3" end="180" vehsPerHour="9.070161192555702" departLane="free"/>
  <flow id="JF51010" begin="180" fromJunction="J0" toJunction="J3" end="240" vehsPerHour="90.425783832641" departLane="free"/>
  <flow id="JF51011" begin="180" fromJunction="J3" toJunction="J0" end="240" vehsPerHour="27.1110420963343" departLane="free"/>
  <flow id="JF51012" begin="180" fromJunction="J0" toJunction="J4" end="240" vehsPerHour="135.64564476730013" departLane="free"/>
  <flow id="JF51013" begin="180" fromJunction="J0" toJunction="J5" end="240" vehsPerHour="95.1995495704544" departLane="free"/>
  <flow id="JF51014" begin="180" fromJunction="J0" toJunction="J6" end="240" vehsPerHour="8.279819757781665" departLane="free"/>
  <flow id="JF51015" begin="180" fromJunction="J0" toJunction="J7" end="240" vehsPerHour="108.02549775169477" departLane="free"/>
  <flow id="JF51016" begin="180" fromJunction="J3" toJunction="J4" end="240" vehsPerHour="107.69202864916599" departLane="free"/>
  <flow id="JF51017" begin="180" fromJunction="J3" toJunction="J5" end="240" vehsPerHour="79.00685518354389" departLane="free"/>
  <flow id="JF51018" begin="180" fromJunction="J3" toJunction="J6" end="240" vehsPerHour="66.84264961094746" departLane="free"/>
  <flow id="JF51019" begin="180" fromJunction="J3" toJunction="J7" end="240" vehsPerHour="74.69357549148002" departLane="free"/>
  <flow id="JF51020" begin="180" fromJunction="J4" toJunction="J5" end="240" vehsPerHour="48.09003623886647" departLane="free"/>
  <flow id="JF51021" begin="180" fromJunction="J4" toJunction="J6" end="240" vehsPerHour="63.41353410731636" departLane="free"/>
  <flow id="JF51022" begin="180" fromJunction="J4" toJunction="J7" end="240" vehsPerHour="43.74584752362577" departLane="free"/>
  <flow id="JF51023" begin="180" fromJunction="J5" toJunction="J4" end="240" vehsPerHour="38.0581656808239" departLane="free"/>
  <flow id="JF51024" begin="180" fromJunction="J5" toJunction="J6" end="240" vehsPerHour="40.528556564216174" departLane="free"/>
  <flow id="JF51025" begin="180" fromJunction="J5" toJunction="J7" end="240" vehsPerHour="24.714216262177242" departLane="free"/>
  <flow id="JF51026" begin="180" fromJunction="J6" toJunction="J4" end="240" vehsPerHour="28.778948295569194" departLane="free"/>
  <flow id="JF51027" begin="180" fromJunction="J6" toJunction="J5" end="240" vehsPerHour="21.73859713864083" departLane="free"/>
  <flow id="JF51028" begin="180" fromJunction="J6" toJunction="J7" end="240" vehsPerHour="17.820069251019564" departLane="free"/>
  <flow id="JF51029" begin="180" fromJunction="J7" toJunction="J4" end="240" vehsPerHour="64.87385152065252" departLane="free"/>
  <flow id="JF51030" begin="180" fromJunction="J7" toJunction="J5" end="240" vehsPerHour="65.75928069031039" departLane="free"/>
  <flow id="JF51031" begin="180" fromJunction="J7" toJunction="J6" end="240" vehsPerHour="1.5455014767842377" departLane="free"/>
  <flow id="JF51032" begin="180" fromJunction="J4" toJunction="J0" end="240" vehsPerHour="12.816373361735431" departLane="free"/>
  <flow id="JF51033" begin="180" fromJunction="J4" toJunction="J3" end="240" vehsPerHour="46.41968842290766" departLane="free"/>
  <flow id="JF51034" begin="180" fromJunction="J5" toJunction="J0" end="240" vehsPerHour="50.24180578722063" departLane="free"/>
  <flow id="JF51035" begin="180" fromJunction="J5" toJunction="J3" end="240" vehsPerHour="29.902252163507907" departLane="free"/>
  <flow id="JF51036" begin="180" fromJunction="J6" toJunction="J0" end="240" vehsPerHour="17.216245066593515" departLane="free"/>
  <flow id="JF51037" begin="180" fromJunction="J6" toJunction="J3" end="240" vehsPerHour="58.76759785806896" departLane="free"/>
  <flow id="JF51038" begin="180" fromJunction="J7" toJunction="J0" end="240" vehsPerHour="20.183297730756603" departLane="free"/>
  <flow id="JF51039" begin="180" fromJunction="J7" toJunction="J3" end="240" vehsPerHour="42.604575456168696" departLane="free"/>
  <flow id="JF51040" begin="240" fromJunction="J0" toJunction="J3" end="300" vehsPerHour="128.49903581959163" departLane="free"/>
  <flow id="JF51041" begin="240" fromJunction="J3" toJunction="J0" end="300" vehsPerHour="88.04951121278368" departLane="free"/>
  <flow id="JF51042" begin="240" fromJunction="J0" toJunction="J4" end="300" vehsPerHour="20.258696029353107" departLane="free"/>
  <flow id="JF51043" begin="240" fromJunction="J0" toJunction="J5" end="300" vehsPerHour="41.1936685533355" departLane="free"/>
  <flow id="JF51044" begin="240" fromJunction="J0" toJunction="J6" end="300" vehsPerHour="67.39728194891826" departLane="free"/>
  <flow id="JF51045" begin="240" fromJunction="J0" toJunction="J7" end="300" vehsPerHour="68.26614909845205" departLane="free"/>
  <flow id="JF51046" begin="240" fromJunction="J3" toJunction="J4" end="300" vehsPerHour="123.78273844490661" departLane="free"/>
  <flow id="JF51047" begin="240" fromJunction="J3" toJunction="J5" end="300" vehsPerHour="71.61013325751497" departLane="free"/>
  <flow id="JF51048" begin="240" fromJunction="J3" toJunction="J6" end="300" vehsPerHour="134.90343889151808" departLane="free"/>
  <flow id="JF51049" begin="240" fromJunction="J3" toJunction="J7" end="300" vehsPerHour="58.80058936590795" departLane="free"/>
  <flow id="JF51050" begin="240" fromJunction="J4" toJunction="J5" end="300" vehsPerHour="41.65329888076514" departLane="free"/>
  <flow id="JF51051" begin="240" fromJunction="J4" toJunction="J6" end="300" vehsPerHour="28.827269271727143" departLane="free"/>
  <flow id="JF51052" begin="240" fromJunction="J4" toJunction="J7" end="300" vehsPerHour="51.41391968898442" departLane="free"/>
  <flow id="JF51053" begin="240" fromJunction="J5" toJunction="J4" end="300" vehsPerHour="3.6972319126777355" departLane="free"/>
  <flow id="JF51054" begin="240" fromJunction="J5" toJunction="J6" end="300" vehsPerHour="23.49601144073217" departLane="free"/>
  <flow id="JF51055" begin="240" fromJunction="J5" toJunction="J7" end="300" vehsPerHour="61.882191748583736" departLane="free"/>
  <flow id="JF51056" begin="240" fromJunction="J6" toJunction="J4" end="300" vehsPerHour="22.627206540417188" departLane="free"/>
  <flow id="JF51057" begin="240" fromJunction="J6" toJunction="J5" end="300" vehsPerHour="36.76222990352746" departLane="free"/>
  <flow id="JF51058" begin="240" fromJunction="J6" toJunction="J7" end="300" vehsPerHour="62.810193131715" departLane="free"/>
  <flow id="JF51059" begin="240" fromJunction="J7" toJunction="J4" end="300" vehsPerHour="61.6505044755963" departLane="free"/>
  <flow id="JF51060" begin="240" fromJunction="J7" toJunction="J5" end="300" vehsPerHour="42.92829713541143" departLane="free"/>
  <flow id="JF51061" begin="240" fromJunction="J7" toJunction="J6" end="300" vehsPerHour="60.83995823005171" departLane="free"/>
  <flow id="JF51062" begin="240" fromJunction="J4" toJunction="J0" end="300" vehsPerHour="19.507158705817684" departLane="free"/>
  <flow id="JF51063" begin="240" fromJunction="J4" toJunction="J3" end="300" vehsPerHour="27.44443257334154" departLane="free"/>
  <flow id="JF51064" begin="240" fromJunction="J5" toJunction="J0" end="300" vehsPerHour="25.859779736377245" departLane="free"/>
  <flow id="JF51065" begin="240" fromJunction="J5" toJunction="J3" end="300" vehsPerHour="24.714743325229435" departLane="free"/>
  <flow id="JF51066" begin="240" fromJunction="J6" toJunction="J0" end="300" vehsPerHour="52.17072641888501" departLane="free"/>
  <flow id="JF51067" begin="240" fromJunction="J6" toJunction="J3" end="300" vehsPerHour="59.73590281164393" departLane="free"/>
  <flow id="JF51068" begin="240" fromJunction="J7" toJunction="J0" end="300" vehsPerHour="65.62795241965328" departLane="free"/>
  <flow id="JF51069" begin="240" fromJunction="J7" toJunction="J3" end="300" vehsPerHour="39.51450146204391" departLane="free"/>
  <flow id="JF51070" begin="300" fromJunction="J0" toJunction="J3" end="360" vehsPerHour="136.98810960257845" departLane="free"/>
  <flow id="JF51071" begin="300" fromJunction="J3" toJunction="J0" end="360" vehsPerHour="99.82786060331087" departLane="free"/>
  <flow id="JF51072" begin="300" fromJunction="J0" toJunction="J4" end="360" vehsPerHour="16.441879801142704" departLane="free"/>
  <flow id="JF51073" begin="300" fromJunction="J0" toJunction="J5" end="360" vehsPerHour="132.7926686026493" departLane="free"/>
  <flow id="JF51074" begin="300" fromJunction="J0" toJunction="J6" end="360" vehsPerHour="12.978206532685633" departLane="free"/>
  <flow id="JF51075" begin="300" fromJunction="J0" toJunction="J7" end="360" vehsPerHour="31.706286117990633" departLane="free"/>
  <flow id="JF51076" begin="300" fromJunction="J3" toJunction="J4" end="360" vehsPerHour="132.1217938093617" departLane="free"/>
  <flow id="JF51077" begin="300" fromJunction="J3" toJunction="J5" end="360" vehsPerHour="34.38320591048628" departLane="free"/>
  <flow id="JF51078" begin="300" fromJunction="J3" toJunction="J6" end="360" vehsPerHour="38.67428479497195" departLane="free"/>
  <flow id="JF51079" begin="300" fromJunction="J3" toJunction="J7" end="360" vehsPerHour="75.92133786671009" departLane="free"/>
  <flow id="JF51080" begin="360" fromJunction="J0" toJunction="J3" end="420" vehsPerHour="129.33222096471695" departLane="free"/>
  <flow id="JF51081" begin="360" fromJunction="J3" toJunction="J0" end="420" vehsPerHour="37.12051157756581" departLane="free"/>
  <flow id="JF51082" begin="360" fromJunction="J0" toJunction="J4" end="420" vehsPerHour="113.21419127813826" departLane="free"/>
  <flow id="JF51083" begin="360" fromJunction="J0" toJunction="J5" end="420" vehsPerHour="98.84947346278372" departLane="free"/>
  <flow id="JF51084" begin="360" fromJunction="J0" toJunction="J6" end="420" vehsPerHour="7.177919748101774" departLane="free"/>
  <flow id="JF51085" begin="360" fromJunction="J0" toJunction="J7" end="420" vehsPerHour="6.8116512272366" departLane="free"/>
  <flow id="JF51086" begin="360" fromJunction="J3" toJunction="J4" end="420" vehsPerHour="102.21675925541564" departLane="free"/>
  <flow id="JF51087" begin="360" fromJunction="J3" toJunction="J5" end="420" vehsPerHour="14.202588377309194" departLane="free"/>
  <flow id="JF51088" begin="360" fromJunction="J3" toJunction="J6" end="420" vehsPerHour="99.90661268174351" departLane="free"/>
  <flow id="JF51089" begin="360" fromJunction="J3" toJunction="J7" end="420" vehsPerHour="65.11327318330835" departLane="free"/>
  <flow id="JF51090" begin="360" fromJunction="J4" toJunction="J5" end="420" vehsPerHour="44.6978192333685" departLane="free"/>
  <flow id="JF51091" begin="360" fromJunction="J4" toJunction="J6" end="420" vehsPerHour="53.45371408720158" departLane="free"/>
  <flow id="JF51092" begin="360" fromJunction="J4" toJunction="J7" end="420" vehsPerHour="5.85779993938064" departLane="free"/>
  <flow id="JF51093" begin="360" fromJunction="J5" toJunction="J4" end="420" vehsPerHour="56.057893156180874" departLane="free"/>
  <flow id="JF51094" begin="360" fromJunction="J5" toJunction="J6" end="420" vehsPerHour="11.100775919138016" departLane="free"/>
  <flow id="JF51095" begin="360" fromJunction="J5" toJunction="J7" end="420" vehsPerHour="27.481290224854078" departLane="free"/>
  <flow id="JF51096" begin="360" fromJunction="J6" toJunction="J4" end="420" vehsPerHour="68.01986907984947" departLane="free"/>
  <flow id="JF51097" begin="360" fromJunction="J6" toJunction="J5" end="420" vehsPerHour="2.830844370855678" departLane="free"/>
  <flow id="JF51098" begin="360" fromJunction="J6" toJunction="J7" end="420" vehsPerHour="6.219452040961297" departLane="free"/>
  <flow id="JF51099" begin="360" fromJunction="J7" toJunction="J4" end="420" vehsPerHour="35.6811440031599" departLane="free"/>
  <flow id="JF51100" begin="360" fromJunction="J7" toJunction="J5" end="420" vehsPerHour="9.753737707658471" departLane="free"/>
  <flow id="JF51101" begin="360" fromJunction="J7" toJunction="J6" end="420" vehsPerHour="4.1505379931130815" departLane="free"/>
  <flow id="JF51102" begin="360" fromJunction="J4" toJunction="J0" end="420" vehsPerHour="64.11550529249773" departLane="free"/>
  <flow id="JF51103" begin="360" fromJunction="J4" toJunction="J3" end="420" vehsPerHour="1.5081614727942867" departLane="free"/>
  <flow id="JF51104" begin="360" fromJunction="J5" toJunction="J0" end="420" vehsPerHour="20.06509642116098" departLane="free"/>
  <flow id="JF51105" begin="360" fromJunction="J5" toJunction="J3" end="420" vehsPerHour="12.915904905942666" departLane="free"/>
  <flow id="JF51106" begin="360" fromJunction="J6" toJunction="J0" end="420" vehsPerHour="16.703612897353572" departLane="free"/>
  <flow id="JF51107" begin="360" fromJunction="J6" toJunction="J3" end="420" vehsPerHour="10.102847001697157" departLane="free"/>
  <flow id="JF51108" begin="360" fromJunction="J7" toJunction="J0" end="420" vehsPerHour="61.26347575786506" departLane="free"/>
  <flow id="JF51109" begin="360" fromJunction="J7" toJunction="J3" end="420" vehsPerHour="56.19335047948936" departLane="free"/>
  <flow id="JF51110" begin="420" fromJunction="J0" toJunction="J3" end="480" vehsPerHour="69.61489355832227" departLane="free"/>
  <flow id="JF51111" begin="420" fromJunction="J3" toJunction="J0" end="480" vehsPerHour="100.51902127216177" departLane="free"/>
  <flow id="JF51112" begin="420" fromJunction="J0" toJunction="J4" end="480" vehsPerHour="105.7690215642676" departLane="free"/>
  <flow id="JF51113" begin="420" fromJunction="J0" toJunction="J5" end="480" vehsPerHour="2.458280282051023" departLane="free"/>
  <flow id="JF51114" begin="420" fromJunction="J0" toJunction="J6" end="480" vehsPerHour="94.30000154938327" departLane="free"/>
  <flow id="JF51115" begin="420" fromJunction="J0" toJunction="J7" end="480" vehsPerHour="105.09152885499479" departLane="free"/>
  <flow id="JF51116" begin="420" fromJunction="J3" toJunction="J4" end="480" vehsPerHour="9.386725970306706" departLane="free"/>
  <flow id="JF51117" begin="420" fromJunction="J3" toJunction="J5" end="480" vehsPerHour="2.4801889491305316" departLane="free"/>
  <flow id="JF51118" begin="420" fromJunction="J3" toJunction="J6" end="480" vehsPerHour="16.57327447561246" departLane="free"/>
  <flow id="JF51119" begin="420" fromJunction="J3" toJunction="J7" end="480" vehsPerHour="53.58338001611222" departLane="free"/>
  <flow id="JF51120" begin="420" fromJunction="J4" toJunction="J5" end="480" vehsPerHour="64.25334088822054" departLane="free"/>
  <flow id="JF51121" begin="420" fromJunction="J4" toJunction="J6" end="480" vehsPerHour="40.965202751611486" departLane="free"/>
  <flow id="JF51122" begin="420" fromJunction="J4" toJunction="J7" end="480" vehsPerHour="42.49240038763622" departLane="free"/>
  <flow id="JF51123" begin="420" fromJunction="J5" toJunction="J4" end="480" vehsPerHour="49.82479943121189" departLane="free"/>
  <flow id="JF51124" begin="420" fromJunction="J5" toJunction="J6" end="480" vehsPerHour="13.244336445112323" departLane="free"/>
  <flow id="JF51125" begin="420" fromJunction="J5" toJunction="J7" end="480" vehsPerHour="42.476222331356965" departLane="free"/>
  <flow id="JF51126" begin="420" fromJunction="J6" toJunction="J4" end="480" vehsPerHour="32.504945407980536" departLane="free"/>
  <flow id="JF51127" begin="420" fromJunction="J6" toJunction="J5" end="480" vehsPerHour="68.34824001437427" departLane="free"/>
  <flow id="JF51128" begin="420" fromJunction="J6" toJunction="J7" end="480" vehsPerHour="10.319368379560862" departLane="free"/>
  <flow id="JF51129" begin="420" fromJunction="J7" toJunction="J4" end="480" vehsPerHour="67.39339853361855" departLane="free"/>
  <flow id="JF51130" begin="420" fromJunction="J7" toJunction="J5" end="480" vehsPerHour="40.39481843537994" departLane="free"/>
  <flow id="JF51131" begin="420" fromJunction="J7" toJunction="J6" end="480" vehsPerHour="35.53486923540151" departLane="free"/>
  <flow id="JF51132" begin="420" fromJunction="J4" toJunction="J0" end="480" vehsPerHour="26.191227259055598" departLane="free"/>
  <flow id="JF51133" begin="420" fromJunction="J4" toJunction="J3" end="480" vehsPerHour="52.788786001227464" departLane="free"/>
  <flow id="JF51134" begin="420" fromJunction="J5" toJunction="J0" end="480" vehsPerHour="43.17399364133583" departLane="free"/>
  <flow id="JF51135" begin="420" fromJunction="J5" toJunction="J3" end="480" vehsPerHour="10.716659171211164" departLane="free"/>
  <flow id="JF51136" begin="420" fromJunction="J6" toJunction="J0" end="480" vehsPerHour="17.474653106953784" departLane="free"/>
  <flow id="JF51137" begin="420" fromJunction="J6" toJunction="J3" end="480" vehsPerHour="8.874768764812186" departLane="free"/>
  <flow id="JF51138" begin="420" fromJunction="J7" toJunction="J0" end="480" vehsPerHour="17.22420732961319" departLane="free"/>
  <flow id="JF51139" begin="420" fromJunction="J7" toJunction="J3" end="480" vehsPerHour="7.9406096352147335" departLane="free"/>
  <flow id="JF51140" begin="480" fromJunction="J0" toJunction="J3" end="540" vehsPerHour="96.90474486475598" departLane="free"/>
  <flow id="JF51141" begin="480" fromJunction="J3" toJunction="J0" end="540" vehsPerHour="118.87853481351459" departLane="free"/>
  <flow id="JF51142" begin="480" fromJunction="J0" toJunction="J4" end="540" vehsPerHour="136.27810600413338" departLane="free"/>
  <flow id="JF51143" begin="480" fromJunction="J0" toJunction="J5" end="540" vehsPerHour="17.703611042622583" departLane="free"/>
  <flow id="JF51144" begin="480" fromJunction="J0" toJunction="J6" end="540" vehsPerHour="99.59371384380341" departLane="free"/>
  <flow id="JF51145" begin="480" fromJunction="J0" toJunction="J7" end="540" vehsPerHour="39.883337044919365" departLane="free"/>
  <flow id="JF51146" begin="480" fromJunction="J3" toJunction="J4" end="540" vehsPerHour="123.9399906741462" departLane="free"/>
  <flow id="JF51147" begin="480" fromJunction="J3" toJunction="J5" end="540" vehsPerHour="13.151557040977437" departLane="free"/>
  <flow id="JF51148" begin="480" fromJunction="J3" toJunction="J6" end="540" vehsPerHour="131.91240994709182" departLane="free"/>
  <flow id="JF51149" begin="480" fromJunction="J3" toJunction="J7" end="540" vehsPerHour="117.45299948560329" departLane="free"/>
  <flow id="JF51150" begin="480" fromJunction="J4" toJunction="J5" end="540" vehsPerHour="18.36626480378535" departLane="free"/>
  <flow id="JF51151" begin="480" fromJunction="J4" toJunction="J6" end="540" vehsPerHour="60.653992375473514" departLane="free"/>
  <flow id="JF51152" begin="480" fromJunction="J4" toJunction="J7" end="540" vehsPerHour="57.45265501110138" departLane="free"/>
  <flow id="JF51153" begin="480" fromJunction="J5" toJunction="J4" end="540" vehsPerHour="4.339485056308988" departLane="free"/>
  <flow id="JF51154" begin="480" fromJunction="J5" toJunction="J6" end="540" vehsPerHour="30.29675147628354" departLane="free"/>
  <flow id="JF51155" begin="480" fromJunction="J5" toJunction="J7" end="540" vehsPerHour="26.528814434055345" departLane="free"/>
  <flow id="JF51156" begin="480" fromJunction="J6" toJunction="J4" end="540" vehsPerHour="45.82842666843626" departLane="free"/>
  <flow id="JF51157" begin="480" fromJunction="J6" toJunction="J5" end="540" vehsPerHour="48.57639278272081" departLane="free"/>
  <flow id="JF51158" begin="480" fromJunction="J6" toJunction="J7" end="540" vehsPerHour="4.799773967212473" departLane="free"/>
  <flow id="JF51159" begin="480" fromJunction="J7" toJunction="J4" end="540" vehsPerHour="58.48721236644554" departLane="free"/>
  <flow id="JF51160" begin="480" fromJunction="J7" toJunction="J5" end="540" vehsPerHour="33.570478353135385" departLane="free"/>
  <flow id="JF51161" begin="480" fromJunction="J7" toJunction="J6" end="540" vehsPerHour="26.60168694373052" departLane="free"/>
  <flow id="JF51162" begin="480" fromJunction="J4" toJunction="J0" end="540" vehsPerHour="1.375616039244715" departLane="free"/>
  <flow id="JF51163" begin="480" fromJunction="J4" toJunction="J3" end="540" vehsPerHour="6.5893908177143246" departLane="free"/>
  <flow id="JF51164" begin="480" fromJunction="J5" toJunction="J0" end="540" vehsPerHour="59.35368772033429" departLane="free"/>
  <flow id="JF51165" begin="480" fromJunction="J5" toJunction="J3" end="540" vehsPerHour="30.788153576734857" departLane="free"/>
  <flow id="JF51166" begin="480" fromJunction="J6" toJunction="J0" end="540" vehsPerHour="61.78594401727463" departLane="free"/>
  <flow id="JF51167" begin="480" fromJunction="J6" toJunction="J3" end="540" vehsPerHour="51.67389021445222" departLane="free"/>
  <flow id="JF51168" begin="480" fromJunction="J7" toJunction="J0" end="540" vehsPerHour="22.936835609903703" departLane="free"/>
  <flow id="JF51169" begin="480" fromJunction="J7" toJunction="J3" end="540" vehsPerHour="65.00900611581879" departLane="free"/>
  <flow id="JF51170" begin="540" fromJunction="J0" toJunction="J3" end="600" vehsPerHour="51.68108329848092" departLane="free"/>