<?xml version="1.0" encoding="UTF-8"?>
<routes xmlns:xsi="http://www.w3.org/2001/XMLSchema-instance" xsi:noNamespaceSchemaLocation="http://sumo.dlr.de/xsd/routes_file.xsd">
  <flow id="JF24320" begin="0" fromJunction="J3" toJunction="J0" end="60" vehsPerHour="59.05460997876324" departLane="free"/>
  <flow id="JF24321" begin="0" fromJunction="J0" toJunction="J3" end="60" vehsPerHour="58.55797286735362" departLane="free"/>
  <flow id="JF24322" begin="0" fromJunction="J3" toJunction="J4" end="60" vehsPerHour="482.7173321783259" departLane="free"/>
  <flow id="JF24323" begin="0" fromJunction="J3" toJunction="J5" end="60" vehsPerHour="543.2139747110502" departLane="free"/>
  <flow id="JF24324" begin="0" fromJunction="J3" toJunction="J6" end="60" vehsPerHour="228.88346984117106" departLane="free"/>
  <flow id="JF24325" begin="0" fromJunction="J3" toJunction="J7" end="60" vehsPerHour="13.175671644114246" departLane="free"/>
  <flow id="JF24326" begin="0" fromJunction="J0" toJunction="J4" end="60" vehsPerHour="226.25299000087847" departLane="free"/>
  <flow id="JF24327" begin="0" fromJunction="J0" toJunction="J5" end="60" vehsPerHour="528.1929068282942" departLane="free"/>
  <flow id="JF24328" begin="0" fromJunction="J0" toJunction="J6" end="60" vehsPerHour="290.88915950353686" departLane="free"/>
  <flow id="JF24329" begin="0" fromJunction="J0" toJunction="J7" end="60" vehsPerHour="516.9868427745174" departLane="free"/>
  <flow id="JF24330" begin="60" fromJunction="J3" toJunction="J0" end="120" vehsPerHour="133.4276509348355" departLane="free"/>
  <flow id="JF24331" begin="60" fromJunction="J0" toJunction="J3" end="120" vehsPerHour="44.258636535199905" departLane="free"/>
  <flow id="JF24332" begin="60" fromJunction="J3" toJunction="J4" end="120" vehsPerHour="106.89079693847009" departLane="free"/>
  <flow id="JF24333" begin="60" fromJunction="J3" toJunction="J5" end="120" vehsPerHour="71.23196116143441" departLane="free"/>
  <flow id="JF24334" begin="60" fromJunction="J3" toJunction="J6" end="120" vehsPerHour="445.41693193821686" departLane="free"/>
  <flow id="JF24335" begin="60" fromJunction="J3" toJunction="J7" end="120" vehsPerHour="384.4034663820871" departLane="free"/>
  <flow id="JF24336" begin="60" fromJunction="J0" toJunction="J4" end="120" vehsPerHour="156.36019041251862" departLane="free"/>
  <flow id="JF24337" begin="60" fromJunction="J0" toJunction="J5" end="120" vehsPerHour="362.40434865388124" departLane="free"/>
  <flow id="JF24338" begin="60" fromJunction="J0" toJunction="J6" end="120" vehsPerHour="89.0315198611272" departLane="free"/>
  <flow id="JF24339" begin="60" fromJunction="J0" toJunction="J7" end="120" vehsPerHour="284.97517601100355" departLane="free"/>
  <flow id="JF24340" begin="60" fromJunction="J4" toJunction="J5" end="120" vehsPerHour="52.654085146260584" departLane="free"/>
  <flow id="JF24341" begin="60" fromJunction="J4" toJunction="J6" end="120" vehsPerHour="30.755605442853078" departLane="free"/>
  <flow id="JF24342" begin="60" fromJunction="J4" toJunction="J7" end="120" vehsPerHour="33.26077297037408" departLane="free"/>
  <flow id="JF24343" begin="60" fromJunction="J5" toJunction="J4" end="120" vehsPerHour="38.64804841699391" departLane="free"/>
  <flow id="JF24344" begin="60" fromJunction="J5" toJunction="J6" end="120" vehsPerHour="31.146297418512972" departLane="free"/>
  <flow id="JF24345" begin="60" fromJunction="J5" toJunction="J7" end="120" vehsPerHour="42.77526544884473" departLane="free"/>
  <flow id="JF24346" begin="60" fromJunction="J6" toJunction="J4" end="120" vehsPerHour="9.419705283699104" departLane="free"/>
  <flow id="JF24347" begin="60" fromJunction="J6" toJunction="J5" end="120" vehsPerHour="37.99304902966238" departLane="free"/>
  <flow id="JF24348" begin="60" fromJunction="J6" toJunction="J7" end="120" vehsPerHour="39.340570316167025" departLane="free"/>
  <flow id="JF24349" begin="60" fromJunction="J7" toJunction="J4" end="120" vehsPerHour="41.147991280598966" departLane="free"/>
  <flow id="JF24350" begin="60" fromJunction="J7" toJunction="J5" end="120" vehsPerHour="3.1025519804650745" departLane="free"/>
  <flow id="JF24351" begin="60" fromJunction="J7" toJunction="J6" end="120" vehsPerHour="68.29372716666943" departLane="free"/>
  <flow id="JF24352" begin="60" fromJunction="J4" toJunction="J3" end="120" vehsPerHour="232.8265187753738" departLane="free"/>
  <flow id="JF24353" begin="60" fromJunction="J4" toJunction="J0" end="120" vehsPerHour="221.9112905393965" departLane="free"/>
  <flow id="JF24354" begin="60" fromJunction="J5" toJunction="J3" end="120" vehsPerHour="101.07816134238861" departLane="free"/>
  <flow id="JF24355" begin="60" fromJunction="J5" toJunction="J0" end="120" vehsPerHour="184.84721833980112" departLane="free"/>
  <flow id="JF24356" begin="60" fromJunction="J6" toJunction="J3" end="120" vehsPerHour="215.23295144934033" departLane="free"/>
  <flow id="JF24357" begin="60" fromJunction="J6" toJunction="J0" end="120" vehsPerHour="158.4347764007735" departLane="free"/>
  <flow id="JF24358" begin="60" fromJunction="J7" toJunction="J3" end="120" vehsPerHour="263.8398130655789" departLane="free"/>
  <flow id="JF24359" begin="60" fromJunction="J7" toJunction="J0" end="120" vehsPerHour="204.6336619683795" departLane="free"/>
  <flow id="JF24360" begin="120" fromJunction="J3" toJunction="J0" end="180" vehsPerHour="122.60799705582829" departLane="free"/>
  <flow id="JF24361" begin="120" fromJunction="J0" toJunction="J3" end="180" vehsPerHour="75.24331321738201" departLane="free"/>
  <flow id="JF24362" begin="120" fromJunction="J3" toJunction="J4" end="180" vehsPerHour="285.3071227711393" departLane="free"/>
  <flow id="JF24363" begin="120" fromJunction="J3" toJunction="J5" end="180" vehsPerHour="478.0612162676735" departLane="free"/>
  <flow id="JF24364" begin="120" fromJunction="J3" toJunction="J6" end="180" vehsPerHour="436.6211483347777" departLane="free"/>
  <flow id="JF24365" begin="120" fromJunction="J3" toJunction="J7" end="180" vehsPerHour="195.98327651527063" departLane="free"/>
  <flow id="JF24366" begin="120" fromJunction="J0" toJunction="J4" end="180" vehsPerHour="407.67751486736705" departLane="free"/>
  <flow id="JF24367" begin="120" fromJunction="J0" toJunction="J5" end="180" vehsPerHour="388.64030743313464" departLane="free"/>
  <flow id="JF24368" begin="120" fromJunction="J0" toJunction="J6" end="180" vehsPerHour="213.400696224557" departLane="free"/>
  <flow id="JF24369" begin="120" fromJunction="J0" toJunction="J7" end="180" vehsPerHour="454.98689538220435" departLane="free"/>
  <flow id="JF24370" begin="180" fromJunction="J3" toJunction="J0" end="240" vehsPerHour="3.3373426246402356" departLane="free"/>
  <flow id="JF24371" begin="180" fromJunction="J0" toJunction="J3" end="240" vehsPerHour="79.93956599527719" departLane="free"/>
  <flow id="JF24372" begin="180" fromJunction="J3" toJunction="J4" end="240" vehsPerHour="361.85726286960517" departLane="free"/>
  <flow id="JF24373" begin="180" fromJunction="J3" toJunction="J5" end="240" vehsPerHour="512.0326307163702" departLane="free"/>
  <flow id="JF24374" begin="180" fromJunction="J3" toJunction="J6" end="240" vehsPerHour="420.13904853152025" departLane="free"/>
  <flow id="JF24375" begin="180" fromJunction="J3" toJunction="J7" end="240" vehsPerHour="147.69410816821264" departLane="free"/>
  <flow id="JF24376" begin="180" fromJunction="J0" toJunction="J4" end="240" vehsPerHour="300.013903932333" departLane="free"/>
  <flow id="JF24377" begin="180" fromJunction="J0" toJunction="J5" end="240" vehsPerHour="85.40201114010364" departLane="free"/>
  <flow id="JF24378" begin="180" fromJunction="J0" toJunction="J6" end="240" vehsPerHour="422.33048986233496" departLane="free"/>
  <flow id="JF24379" begin="180" fromJunction="J0" toJunction="J7" end="240" vehsPerHour="352.0133994747733" departLane="free"/>
  <flow id="JF24380" begin="240" fromJunction="J3" toJunction="J0" end="300" vehsPerHour="53.35111654545427" departLane="free"/>
  <flow id="JF24381" begin="240" fromJunction="J0" toJunction="J3" end="300" vehsPerHour="66.28284781727531" departLane="free"/>
  <flow id="JF24382" begin="240" fromJunction="J3" toJunction="J4" end="300" vehsPerHour="470.7251966173188" departLane="free"/>
  <flow id="JF24383" begin="240" fromJunction="J3" toJunction="J5" end="300" vehsPerHour="188.33461405209235" departLane="free"/>
  <flow id="JF24384" begin="240" fromJunction="J3" toJunction="J6" end="300" vehsPerHour="119.94826810199791" departLane="free"/>
  <flow id="JF24385" begin="240" fromJunction="J3" toJunction="J7" end="300" vehsPerHour="202.20081691931364" departLane="free"/>
  <flow id="JF24386" begin="240" fromJunction="J0" toJunction="J4" end="300" vehsPerHour="245.46776963869164" departLane="free"/>
  <flow id="JF24387" begin="240" fromJunction="J0" toJunction="J5" end="300" vehsPerHour="266.85384617193165" departLane="free"/>
  <flow id="JF24388" begin="240" fromJunction="J0" toJunction="J6" end="300" vehsPerHour="480.9334245464327" departLane="free"/>
  <flow id="JF24389" begin="240" fromJunction="J0" toJunction="J7" end="300" vehsPerHour="416.628242894152" departLane="free"/>
  <flow id="JF24390" begin="240" fromJunction="J4" toJunction="J5" end="300" vehsPerHour="35.318963727033555" departLane="free"/>
  <flow id="JF24391" begin="240" fromJunction="J4" toJunction="J6" end="300" vehsPerHour="21.107021759378576" departLane="free"/>
  <flow id="JF24392" begin="240" fromJunction="J4" toJunction="J7" end="300" vehsPerHour="51.912554978905725" departLane="free"/>
  <flow id="JF24393" begin="240" fromJunction="J5" toJunction="J4" end="300" vehsPerHour="20.80348528883229" departLane="free"/>
  <flow id="JF24394" begin="240" fromJunction="J5" toJunction="J6" end="300" vehsPerHour="13.020404672491363" departLane="free"/>
  <flow id="JF24395" begin="240" fromJunction="J5" toJunction="J7" end="300" vehsPerHour="54.62659499984916" departLane="free"/>
  <flow id="JF24396" begin="240" fromJunction="J6" toJunction="J4" end="300" vehsPerHour="18.686519412777383" departLane="free"/>
  <flow id="JF24397" begin="240" fromJunction="J6" toJunction="J5" end="300" vehsPerHour="36.05865693931504" departLane="free"/>
  <flow id="JF24398" begin="240" fromJunction="J6" toJunction="J7" end="300" vehsPerHour="3.8771591601936937" departLane="free"/>
  <flow id="JF24399" begin="240" fromJunction="J7" toJunction="J4" end="300" vehsPerHour="20.769949985789044" departLane="free"/>
  <flow id="JF24400" begin="240" fromJunction="J7" toJunction="J5" end="300" vehsPerHour="61.397734442400704" departLane="free"/>
  <flow id="JF24401" begin="240" fromJunction="J7" toJunction="J6" end="300" vehsPerHour="27.65548651925795" departLane="free"/>
  <flow id="JF24402" begin="240" fromJunction="J4" toJunction="J3" end="300" vehsPerHour="218.45099535086348" departLane="free"/>
  <flow id="JF24403" begin="240" fromJunction="J4" toJunction="J0" end="300" vehsPerHour="180.60275341145675" departLane="free"/>
  <flow id="JF24404" begin="240" fromJunction="J5" toJunction="J3" end="300" vehsPerHour="263.1062304882074" departLane="free"/>
  <flow id="JF24405" begin="240" fromJunction="J5" toJunction="J0" end="300" vehsPerHour="15.836087336745239" departLane="free"/>
  <flow id="JF24406" begin="240" fromJunction="J6" toJunction="J3" end="300" vehsPerHour="64.66915308236429" departLane="free"/>
  <flow id="JF24407" begin="240" fromJunction="J6" toJunction="J0" end="300" vehsPerHour="15.544415755954192" departLane="free"/>
  <flow id="JF24408" begin="240" fromJunction="J7" toJunction="J3" end="300" vehsPerHour="219.93595045409697" departLane="free"/>
  <flow id="JF24409" begin="240" fromJunction="J7" toJunction="J0" end="300" vehsPerHour="73.80970139342821" departLane="free"/>
  <flow id="JF24410" begin="300" fromJunction="J3" toJunction="J0" end="360" vehsPerHour="18.191893102732436" departLane="free"/>
  <flow id="JF24411" begin="300" fromJunction="J0" toJunction="J3" end="360" vehsPerHour="0.3575340949304102" departLane="free"/>
  <flow id="JF24412" begin="300" fromJunction="J3" toJunction="J4" end="360" vehsPerHour="334.2647708268027" departLane="free"/>
  <flow id="JF24413" begin="300" fromJunction="J3" toJunction="J5" end="360" vehsPerHour="454.92471948038224" departLane="free"/>
  <flow id="JF24414" begin="300" fromJunction="J3" toJunction="J6" end="360" vehsPerHour="4.544812209881674" departLane="free"/>
  <flow id="JF24415" begin="300" fromJunction="J3" toJunction="J7" end="360" vehsPerHour="184.31933318575327" departLane="free"/>
  <flow id="JF24416" begin="300" fromJunction="J0" toJunction="J4" end="360" vehsPerHour="34.824209356837926" departLane="free"/>
  <flow id="JF24417" begin="300" fromJunction="J0" toJunction="J5" end="360" vehsPerHour="6.152244465262433" departLane="free"/>
  <flow id="JF24418" begin="300" fromJunction="J0" toJunction="J6" end="360" vehsPerHour="325.5423386632649" departLane="free"/>
  <flow id="JF24419" begin="300" fromJunction="J0" toJunction="J7" end="360" vehsPerHour="73.06497728786076" departLane="free"/>
  <flow id="JF24420" begin="300" fromJunction="J4" toJunction="J5" end="360" vehsPerHour="15.162260519997501" departLane="free"/>
  <flow id="JF24421" begin="300" fromJunction="J4" toJunction="J6" end="360" vehsPerHour="30.09557882839296" departLane="free"/>
  <flow id="JF24422" begin="300" fromJunction="J4" toJunction="J7" end="360" vehsPerHour="25.033846703643693" departLane="free"/>
  <flow id="JF24423" begin="300" fromJunction="J5" toJunction="J4" end="360" vehsPerHour="7.343149461253176" departLane="free"/>
  <flow id="JF24424" begin="300" fromJunction="J5" toJunction="J6" end="360" vehsPerHour="40.911831092651454" departLane="free"/>
  <flow id="JF24425" begin="300" fromJunction="J5" toJunction="J7" end="360" vehsPerHour="49.42057448728987" departLane="free"/>
  <flow id="JF24426" begin="300" fromJunction="J6" toJunction="J4" end="360" vehsPerHour="64.005172078148" departLane="free"/>
  <flow id="JF24427" begin="300" fromJunction="J6" toJunction="J5" end="360" vehsPerHour="64.91863931721146" departLane="free"/>
  <flow id="JF24428" begin="300" fromJunction="J6" toJunction="J7" end="360" vehsPerHour="37.587656450024404" departLane="free"/>
  <flow id="JF24429" begin="300" fromJunction="J7" toJunction="J4" end="360" vehsPerHour="0.12632022877888147" departLane="free"/>
  <flow id="JF24430" begin="300" fromJunction="J7" toJunction="J5" end="360" vehsPerHour="65.01586567097763" departLane="free"/>
  <flow id="JF24431" begin="300" fromJunction="J7" toJunction="J6" end="360" vehsPerHour="29.598232589385063" departLane="free"/>
  <flow id="JF24432" begin="300" fromJunction="J4" toJunction="J3" end="360" vehsPerHour="249.63821346200893" departLane="free"/>
  <flow id="JF24433" begin="300" fromJunction="J4" toJunction="J0" end="360" vehsPerHour="163.8066452954102" departLane="free"/>
  <flow id="JF24434" begin="300" fromJunction="J5" toJunction="J3" end="360" vehsPerHour="31.93686302219261" departLane="free"/>
  <flow id="JF24435" begin="300" fromJunction="J5" toJunction="J0" end="360" vehsPerHour="180.44730646637845" departLane="free"/>
  <flow id="JF24436" begin="300" fromJunction="J6" toJunction="J3" end="360" vehsPerHour="102.88493891771999" departLane="free"/>
  <flow id="JF24437" begin="300" fromJunction="J6" toJunction="J0" end="360" vehsPerHour="266.2081023506294" departLane="free"/>
  <flow id="JF24438" begin="300" fromJunction="J7" toJunction="J3" end="360" vehsPerHour="70.74661553756769" departLane="free"/>
  <flow id="JF24439" begin="300" fromJunction="J7" toJunction="J0" end="360" vehsPerHour="228.22146030525371" departLane="free"/>
  <flow id="JF24440" begin="360" fromJunction="J3" toJunction="J0" end="420" vehsPerHour="55.24696124433913" departLane="free"/>
  <flow id="JF24441" begin="360" fromJunction="J0" toJunction="J3" end="420" vehsPerHour="55.25225344251479" departLane="free"/>
  <flow id="JF24442" begin="360" fromJunction="J3" toJunction="J4" end="420" vehsPerHour="516.5391719777293" departLane="free"/>
  <flow id="JF24443" begin="360" fromJunction="J3" toJunction="J5" end="420" vehsPerHour="267.4347839298052" departLane="free"/>
  <flow id="JF24444" begin="360" fromJunction="J3" toJunction="J6" end="420" vehsPerHour="273.0407639590461" departLane="free"/>
  <flow id="JF24445" begin="360" fromJunction="J3" toJunction="J7" end="420" vehsPerHour="522.9647908824504" departLane="free"/>
  <flow id="JF24446" begin="360" fromJunction="J0" toJunction="J4" end="420" vehsPerHour="286.95771243598347" departLane="free"/>
  <flow id="JF24447" begin="360" fromJunction="J0" toJunction="J5" end="420" vehsPerHour="403.54727321291074" departLane="free"/>
  <flow id="JF24448" begin="360" fromJunction="J0" toJunction="J6" end="420" vehsPerHour="453.00292625460673" departLane="free"/>
  <flow id="JF24449" begin="360" fromJunction="J0" toJunction="J7" end="420" vehsPerHour="224.51316289957285" departLane="free"/>
  <flow id="JF24450" begin="420" fromJunction="J3" toJunction="J0" end="480" vehsPerHour="73.28110588738002" departLane="free"/>
  <flow id="JF24451" begin="420" fromJunction="J0" toJunction="J3" end="480" vehsPerHour="104.81694212072048" departLane="free"/>
  <flow id="JF24452" begin="420" fromJunction="J3" toJunction="J4" end="480" vehsPerHour="138.68013288116114" departLane="free"/>
  <flow id="JF24453" begin="420" fromJunction="J3" toJunction="J5" end="480" vehsPerHour="389.14183612776634" departLane="free"/>
  <flow id="JF24454" begin="420" fromJunction="J3" toJunction="J6" end="480" vehsPerHour="217.1583406125034" departLane="free"/>
  <flow id="JF24455" begin="420" fromJunction="J3" toJunction="J7" end="480" vehsPerHour="406.1757546428423" departLane="free"/>
  <flow id="JF24456" begin="420" fromJunction="J0" toJunction="J4" end="480" vehsPerHour="377.97665540529545" departLane="free"/>
  <flow id="JF24457" begin="420" fromJunction="J0" toJunction="J5" end="480" vehsPerHour="46.36319735802125" departLane="free"/>
  <flow id="JF24458" begin="420" fromJunction="J0" toJunction="J6" end="480" vehsPerHour="113.0835353088115" departLane="free"/>
  <flow id="JF24459" begin="420" fromJunction="J0" toJunction="J7" end="480" vehsPerHour="197.24277799016014" departLane="free"/>
  <flow id="JF24460" begin="420" fromJunction="J4" toJunction="J5" end="480" vehsPerHour="33.39569863870626" departLane="free"/>
  <flow id="JF24461" begin="420" fromJunction="J4" toJunction="J6" end="480" vehsPerHour="31.08791876315574" departLane="free"/>
  <flow id="JF24462" begin="420" fromJunction="J4" toJunction="J7" end="480" vehsPerHour="45.96405052624804" departLane="free"/>
  <flow id="JF24463" begin="420" fromJunction="J5" toJunction="J4" end="480" vehsPerHour="58.36608729562716" departLane="free"/>
  <flow id="JF24464" begin="420" fromJunction="J5" toJunction="J6" end="480" vehsPerHour="0.3407575207015412" departLane="free"/>
  <flow id="JF24465" begin="420" fromJunction="J5" toJunction="J7" end="480" vehsPerHour="37.85016222778814" departLane="free"/>
  <flow id="JF24466" begin="420" fromJunction="J6" toJunction="J4" end="480" vehsPerHour="46.95094501610162" departLane="free"/>
  <flow id="JF24467" begin="420" fromJunction="J6" toJunction="J5" end="480" vehsPerHour="49.46549474527488" departLane="free"/>
  <flow id="JF24468" begin="420" fromJunction="J6" toJunction="J7" end="480" vehsPerHour="56.517484768555846" departLane="free"/>
  <flow id="JF24469" begin="420" fromJunction="J7" toJunction="J4" end="480" vehsPerHour="1.702327809303985" departLane="free"/>
  <flow id="JF24470" begin="420" fromJunction="J7" toJunction="J5" end="480" vehsPerHour="19.062274387880155" departLane="free"/>
  <flow id="JF24471" begin="420" fromJunction="J7" toJunction="J6" end="480" vehsPerHour="23.567482009028584" departLane="free"/>
  <flow id="JF24472" begin="420" fromJunction="J4" toJunction="J3" end="480" vehsPerHour="192.09393974506213" departLane="free"/>
  <flow id="JF24473" begin="420" fromJunction="J4" toJunction="J0" end="480" vehsPerHour="14.959845359009554" departLane="free"/>
  <flow id="JF24474" begin="420" fromJunction="J5" toJunction="J3" end="480" vehsPerHour="260.8613229006911" departLane="free"/>
  <flow id="JF24475" begin="420" fromJunction="J5" toJunction="J0" end="480" vehsPerHour="228.24581221125243" departLane="free"/>
  <flow id="JF24476" begin="420" fromJunction="J6" toJunction="J3" end="480" vehsPerHour="150.3113343559275" departLane="free"/>
  <flow id="JF24477" begin="420" fromJunction="J6" toJunction="J0" end="480" vehsPerHour="49.4655843100189" departLane="free"/>
  <flow id="JF24478" begin="420" fromJunction="J7" toJunction="J3" end="480" vehsPerHour="204.74536149276625" departLane="free"/>
  <flow id="JF24479" begin="420" fromJunction="J7" toJunction="J0" end="480" vehsPerHour="185.15314484917602" departLane="free"/>
  <flow id="JF24480" begin="480" fromJunction="J3" toJunction="J0" end="540" vehsPerHour="2.70718203188286" departLane="free"/>
  <flow id="JF24481" begin="480" fromJunction="J0" toJunction="J3" end="540" vehsPerHour="36.98536162817168" departLane="free"/>
  <flow id="JF24482" begin="480" fromJunction="J3" toJunction="J4" end="540" vehsPerHour="509.4624254156167" departLane="free"/>
  <flow id="JF24483" begin="480" fromJunction="J3" toJunction="J5" end="540" vehsPerHour="524.7189544278054" departLane="free"/>
  <flow id="JF24484" begin="480" fromJunction="J3" toJunction="J6" end="540" vehsPerHour="155.10066284975318" departLane="free"/>
  <flow id="JF24485" begin="480" fromJunction="J3" toJunction="J7" end="540" vehsPerHour="268.6496584473988" departLane="free"/>
  <flow id="JF24486" begin="480" fromJunction="J0" toJunction="J4" end="540" vehsPerHour="177.95012990003264" departLane="free"/>
  <flow id="JF24487" begin="480" fromJunction="J0" toJunction="J5" end="540" vehsPerHour="499.7080723923803" departLane="free"/>
  <flow id="JF24488" begin="480" fromJunction="J0" toJunction="J6" end="540" vehsPerHour="351.9811045697388" departLane="free"/>
  <flow id="JF24489" begin="480" fromJunction="J0" toJunction="J7" end="540" vehsPerHour="510.9485862836522" departLane="free"/>
  <flow id="JF24490" begin="480" fromJunction="J4" toJunction="J5" end="540" vehsPerHour="60.52977308167088" departLane="free"/>
  <flow id="JF24491" begin="480" fromJunction="J4" toJunction="J6" end="540" vehsPerHour="51.87867825996814" departLane="free"/>
  <flow id="JF24492" begin="480" fromJunction="J4" toJunction="J7" end="540" vehsPerHour="42.89724366695012" departLane="free"/>
  <flow id="JF24493" begin="480" fromJunction="J5" toJunction="J4" end="540" vehsPerHour="18.14748568848454" departLane="free"/>
  <flow id="JF24494" begin="480" fromJunction="J5" toJunction="J6" end="540" vehsPerHour="17.717595100924232" departLane="free"/>
  <flow id="JF24495" begin="480" fromJunction="J5" toJunction="J7" end="540" vehsPerHour="25.354234772384288" departLane="free"/>
  <flow id="JF24496" begin="480" fromJunction="J6" toJunction="J4" end="540" vehsPerHour="67.68378520706521" departLane="free"/>
  <flow id="JF24497" begin="480" fromJunction="J6" toJunction="J5" end="540" vehsPerHour="46.972348808649336" departLane="free"/>
  <flow id="JF24498" begin="480" fromJunction="J6" toJunction="J7" end="540" vehsPerHour="38.481593210650146" departLane="free"/>
  <flow id="JF24499" begin="480" fromJunction="J7" toJunction="J4" end="540" vehsPerHour="51.769457605593004" departLane="free"/>
  <flow id="JF24500" begin="480" fromJunction="J7" toJunction="J5" end="540" vehsPerHour="1.7040779876120469" departLane="free"/>
  <flow id="JF24501" begin="480" fromJunction="J7" toJunction="J6" end="540" vehsPerHour="42.9963707983076" departLane="free"/>
  <flow id="JF24502" begin="480" fromJunction="J4" toJunction="J3" end="540" vehsPerHour="85.44563338697029" departLane="free"/>
  <flow id="JF24503" begin="480" fromJunction="J4" toJunction="J0" end="540" vehsPerHour="180.16510634526603" departLane="free"/>
  <flow id="JF24504" begin="480" fromJunction="J5" toJunction="J3" end="540" vehsPerHour="117.41143867606026" departLane="free"/>
  <flow id="JF24505" begin="480" fromJunction="J5" toJunction="J0" end="540" vehsPerHour="252.30227457808027" departLane="free"/>
  <flow id="JF24506" begin="480" fromJunction="J6" toJunction="J3" end="540" vehsPerHour="261.28298728144387" departLane="free"/>
  <flow id="JF24507" begin="480" fromJunction="J6" toJunction="J0" end="540" vehsPerHour="182.84000062047588" departLane="free"/>
  <flow id="JF24508" begin="480" fromJunction="J7" toJunction="J3" end="540" vehsPerHour="261.09189025154654" departLane="free"/>
  <flow id="JF24509" begin="480" fromJunction="J7" toJunction="J0" end="540" vehsPerHour="190.0749718164138" departLane="free"/>
  <flow id="JF24510" begin="540" fromJunction="J3" toJunction="J0" end="600" vehsPerHour="22.427678938832702" departLane="free"/>
  <flow id="JF24511" begin="540" fromJunction="J0" toJunction="J3" end="600" vehsPerHour="113.38193992195706" departLane="free"/>
  <flow id="JF24512" begin="540" fromJunction="J3" toJunction="J4" end="600" vehsPerHour="332.38570469768473" departLane="free"/>
  <flow id="JF24513" begin="540" fromJunction="J3" toJunction="J5" end="600" vehsPerHour="440.34884806735437" departLane="free"/>
  <flow id="JF24514" begin="540" fromJunction="J3" toJunction="J6" end="600" vehsPerHour="259.51955615637263" departLane="free"/>
  <flow id="JF24515" begin="540" fromJunction="J3" toJunction="J7" end="600" vehsPerHour="536.8040989112775" departLane="free"/>
  <flow id="JF24516" begin="540" fromJunction="J0" toJunction="J4" end="600" vehsPerHour="136.0020279020965" departLane="free"/>
  <flow id="JF24517" begin="540" fromJunction="J0" toJunction="J5" end="600" vehsPerHour="161.8086875128891" departLane="free"/>
  <flow id="JF24518" begin="540" fromJunction="J0" toJunction="J6" end="600" vehsPerHour="359.7482905542153" departLane="free"/>
  <flow id="JF24519" begin="540" fromJunction="J0" toJunction="J7" end="600" vehsPerHour="144.1763323826071" departLane="free"/>
  <flow id="JF24520" begin="540" fromJunction="J4" toJunction="J5" end="600" vehsPerHour="51.84814558368402" departLane="free"/>
  <flow id="JF24521" begin="540" fromJunction="J4" toJunction="J6" end="600" vehsPerHour="26.18516850922444" departLane="free"/>
  <flow id="JF24522" begin="540" fromJunction="J4" toJunction="J7" end="600" vehsPerHour="35.7138202367743" departLane="free"/>
  <flow id="JF24523" begin="540" fromJunction="J5" toJunction="J4" end="600" vehsPerHour="29.77344575621753" departLane="free"/>
  <flow id="JF24524" begin="540" fromJunction="J5" toJunction="J6" end="600" vehsPerHour="59.509559749999376" departLane="free"/>
  <flow id="JF24525" begin="540" fromJunction="J5" toJunction="J7" end="600" vehsPerHour="18.48658285681126" departLane="free"/>
  <flow id="JF24526" begin="540" fromJunction="J6" toJunction="J4" end="600" vehsPerHour="9.980897761168277" departLane="free"/>
  <flow id="JF24527" begin="540" fromJunction="J6" toJunction="J5" end="600" vehsPerHour="23.859891007372394" departLane="free"/>
  <flow id="JF24528" begin="540" fromJunction="J6" toJunction="J7" end="600" vehsPerHour="7.727097353362596" departLane="free"/>
  <flow id="JF24529" begin="540" fromJunction="J7" toJunction="J4" end="600" vehsPerHour="56.82058032334941" departLane="free"/>
  <flow id="JF24530" begin="540" fromJunction="J7" toJunction="J5" end="600" vehsPerHour="54.77845033272125" departLane="free"/>
  <flow id="JF24531" begin="540" fromJunction="J7" toJunction="J6" end="600" vehsPerHour="34.82098100027487" departLane="free"/>
  <flow id="JF24532" begin="540" fromJunction="J4" toJunction="J3" end="600" vehsPerHour="99.58064191901299" departLane="free"/>
  <flow id="JF24533" begin="540" fromJunction="J4" toJunction="J0" end="600" vehsPerHour="197.89952351198244" departLane="free"/>
  <flow id="JF24534" begin="540" fromJunction="J5" toJunction="J3" end="600" vehsPerHour="33.14939349740219" departLane="free"/>
  <flow id="JF24535" begin="540" fromJunction="J5" toJunction="J0" end="600" vehsPerHour="177.7007256809319" departLane="free"/>
  <flow id="JF24536" begin="540" fromJunction="J6" toJunction="J3" end="600" vehsPerHour="270.9697904986158" departLane="free"/>
  <flow id="JF24537" begin="540" fromJunction="J6" toJunction="J0" end="600" vehsPerHour="124.94520879801325" departLane="free"/>
  <flow id="JF24538" begin="540" fromJunction="J7" toJunction="J3" end="600" vehsPerHour="102.19116834206888" departLane="free"/>
  <flow id="JF24539" begin="540" fromJunction="J7" toJunction="J0" end="600" vehsPerHour="74.48253155009289" departLane="free"/>
  <flow id="JF24540" begin="600" fromJunction="J3" toJunction="J0" end="660" vehsPerHour="123.74690229471096" departLane="free"/>
  <flow id="JF24541" begin="600" fromJunction="J0" toJunction="J3" end="660" vehsPerHour="75.45447184668664" departLane="free"/>
  <flow id="JF24542" begin="600" fromJunction="J3" toJunction="J4" end="660" vehsPerHour="454.92031873418614" departLane="free"/>
  <flow id="JF24543" begin="600" fromJunction="J3" toJunction="J5" end="660" vehsPerHour="326.3409154720409" departLane="free"/>
  <flow id="JF24544" begin="600" fromJunction="J3" toJunction="J6" end="660" vehsPerHour="177.44821691139623" departLane="free"/>
  <flow id="JF24545" begin="600" fromJunction="J3" toJunction="J7" end="660" vehsPerHour="23.31806824368224" departLane="free"/>
  <flow id="JF24546" begin="600" fromJunction="J0" toJunction="J4" end="660" vehsPerHour="113.46645888572476" departLane="free"/>
  <flow id="JF24547" begin="600" fromJunction="J0" toJunction="J5" end="660" vehsPerHour="35.71983291986171" departLane="free"/>
  <flow id="JF24548" begin="600" fromJunction="J0" toJunction="J6" end="660" vehsPerHour="351.20983917570726" departLane="free"/>
  <flow id="JF24549" begin="600" fromJunction="J0" toJunction="J7" end="660" vehsPerHour="137.7251391275315" departLane="free"/>