<?xml version="1.0" encoding="UTF-8"?>
<routes xmlns:xsi="http://www.w3.org/2001/XMLSchema-instance" xsi:noNamespaceSchemaLocation="http://sumo.dlr.de/xsd/routes_file.xsd">
  <flow id="JF58295" begin="0" fromJunction="J0" toJunction="J15" end="360" vehsPerHour="46.082503300004795" departLane="free" arrivalSpeed="0.0"/>
  <flow id="JF58296" begin="0" fromJunction="J0" toJunction="J2" end="360" vehsPerHour="7.37321497287157" departLane="free" arrivalSpeed="0.0"/>
  <flow id="JF58297" begin="0" fromJunction="J0" toJunction="J7" end="360" vehsPerHour="50.44753842746157" departLane="free" arrivalSpeed="0.0"/>
  <flow id="JF58298" begin="0" fromJunction="J0" toJunction="J8" end="360" vehsPerHour="61.80353825056815" departLane="free" arrivalSpeed="0.0"/>
  <flow id="JF58299" begin="0" fromJunction="J0" toJunction="J9" end="360" vehsPerHour="8.372365139424263" departLane="free" arrivalSpeed="0.0"/>
  <flow id="JF58300" begin="0" fromJunction="J12" toJunction="J13" end="360" vehsPerHour="66.29679985156501" departLane="free" arrivalSpeed="0.0"/>
  <flow id="JF58301" begin="0" fromJunction="J12" toJunction="J14" end="360" vehsPerHour="47.48419108634684" departLane="free" arrivalSpeed="0.0"/>
  <flow id="JF58302" begin="0" fromJunction="J12" toJunction="J15" end="360" vehsPerHour="12.449699801181378" departLane="free" arrivalSpeed="0.0"/>
  <flow id="JF58303" begin="0" fromJunction="J12" toJunction="J16" end="360" vehsPerHour="33.95603060808868" departLane="free" arrivalSpeed="0.0"/>
  <flow id="JF58304" begin="0" fromJunction="J12" toJunction="J2" end="360" vehsPerHour="9.212425919829458" departLane="free" arrivalSpeed="0.0"/>
  <flow id="JF58305" begin="0" fromJunction="J12" toJunction="J3" end="360" vehsPerHour="18.07781918269813" departLane="free" arrivalSpeed="0.0"/>
  <flow id="JF58306" begin="0" fromJunction="J12" toJunction="J6" end="360" vehsPerHour="0.9960373115523012" departLane="free" arrivalSpeed="0.0"/>
  <flow id="JF58307" begin="0" fromJunction="J12" toJunction="J7" end="360" vehsPerHour="62.71085446596916" departLane="free" arrivalSpeed="0.0"/>
  <flow id="JF58308" begin="0" fromJunction="J12" toJunction="J9" end="360" vehsPerHour="54.0168929611395" departLane="free" arrivalSpeed="0.0"/>
  <flow id="JF58309" begin="0" fromJunction="J13" toJunction="J0" end="360" vehsPerHour="8.919093211480163" departLane="free" arrivalSpeed="0.0"/>
  <flow id="JF58310" begin="0" fromJunction="J13" toJunction="J14" end="360" vehsPerHour="37.92225731345921" departLane="free" arrivalSpeed="0.0"/>
  <flow id="JF58311" begin="0" fromJunction="J13" toJunction="J2" end="360" vehsPerHour="58.332689904964525" departLane="free" arrivalSpeed="0.0"/>
  <flow id="JF58312" begin="0" fromJunction="J13" toJunction="J3" end="360" vehsPerHour="65.80612570152819" departLane="free" arrivalSpeed="0.0"/>
  <flow id="JF58313" begin="0" fromJunction="J13" toJunction="J6" end="360" vehsPerHour="29.21695863924119" departLane="free" arrivalSpeed="0.0"/>
  <flow id="JF58314" begin="0" fromJunction="J13" toJunction="J9" end="360" vehsPerHour="35.163551312089105" departLane="free" arrivalSpeed="0.0"/>
  <flow id="JF58315" begin="0" fromJunction="J14" toJunction="J0" end="360" vehsPerHour="66.17685371877342" departLane="free" arrivalSpeed="0.0"/>
  <flow id="JF58316" begin="0" fromJunction="J14" toJunction="J12" end="360" vehsPerHour="10.213478684251248" departLane="free" arrivalSpeed="0.0"/>
  <flow id="JF58317" begin="0" fromJunction="J14" toJunction="J2" end="360" vehsPerHour="4.252200495582741" departLane="free" arrivalSpeed="0.0"/>
  <flow id="JF58318" begin="0" fromJunction="J14" toJunction="J3" end="360" vehsPerHour="36.028977288103974" departLane="free" arrivalSpeed="0.0"/>
  <flow id="JF58319" begin="0" fromJunction="J14" toJunction="J6" end="360" vehsPerHour="12.019050146166602" departLane="free" arrivalSpeed="0.0"/>
  <flow id="JF58320" begin="0" fromJunction="J14" toJunction="J7" end="360" vehsPerHour="29.606926722663296" departLane="free" arrivalSpeed="0.0"/>
  <flow id="JF58321" begin="0" fromJunction="J14" toJunction="J8" end="360" vehsPerHour="50.29028311300536" departLane="free" arrivalSpeed="0.0"/>
  <flow id="JF58322" begin="0" fromJunction="J14" toJunction="J9" end="360" vehsPerHour="22.277580332911523" departLane="free" arrivalSpeed="0.0"/>
  <flow id="JF58323" begin="0" fromJunction="J15" toJunction="J0" end="360" vehsPerHour="50.339149146434345" departLane="free" arrivalSpeed="0.0"/>
  <flow id="JF58324" begin="0" fromJunction="J15" toJunction="J14" end="360" vehsPerHour="64.39748203963228" departLane="free" arrivalSpeed="0.0"/>
  <flow id="JF58325" begin="0" fromJunction="J15" toJunction="J16" end="360" vehsPerHour="45.082192190352536" departLane="free" arrivalSpeed="0.0"/>
  <flow id="JF58326" begin="0" fromJunction="J15" toJunction="J6" end="360" vehsPerHour="51.32211381488541" departLane="free" arrivalSpeed="0.0"/>
  <flow id="JF58327" begin="0" fromJunction="J15" toJunction="J7" end="360" vehsPerHour="47.36996472717402" departLane="free" arrivalSpeed="0.0"/>
  <flow id="JF58328" begin="0" fromJunction="J15" toJunction="J8" end="360" vehsPerHour="59.7675910216267" departLane="free" arrivalSpeed="0.0"/>
  <flow id="JF58329" begin="0" fromJunction="J16" toJunction="J12" end="360" vehsPerHour="90.66633350597404" departLane="free" arrivalSpeed="0.0"/>
  <flow id="JF58330" begin="0" fromJunction="J16" toJunction="J13" end="360" vehsPerHour="45.777226747020805" departLane="free" arrivalSpeed="0.0"/>
  <flow id="JF58331" begin="0" fromJunction="J16" toJunction="J14" end="360" vehsPerHour="18.366101344946244" departLane="free" arrivalSpeed="0.0"/>
  <flow id="JF58332" begin="0" fromJunction="J16" toJunction="J15" end="360" vehsPerHour="119.5640370840736" departLane="free" arrivalSpeed="0.0"/>
  <flow id="JF58333" begin="0" fromJunction="J16" toJunction="J2" end="360" vehsPerHour="50.35432881157204" departLane="free" arrivalSpeed="0.0"/>
  <flow id="JF58334" begin="0" fromJunction="J16" toJunction="J6" end="360" vehsPerHour="135.2982879263028" departLane="free" arrivalSpeed="0.0"/>
  <flow id="JF58335" begin="0" fromJunction="J16" toJunction="J7" end="360" vehsPerHour="24.96359303804622" departLane="free" arrivalSpeed="0.0"/>
  <flow id="JF58336" begin="0" fromJunction="J16" toJunction="J8" end="360" vehsPerHour="97.50848944738426" departLane="free" arrivalSpeed="0.0"/>
  <flow id="JF58337" begin="0" fromJunction="J16" toJunction="J9" end="360" vehsPerHour="38.794868465812264" departLane="free" arrivalSpeed="0.0"/>
  <flow id="JF58338" begin="0" fromJunction="J2" toJunction="J12" end="360" vehsPerHour="116.39295114818175" departLane="free" arrivalSpeed="0.0"/>
  <flow id="JF58339" begin="0" fromJunction="J2" toJunction="J13" end="360" vehsPerHour="106.34638831350951" departLane="free" arrivalSpeed="0.0"/>
  <flow id="JF58340" begin="0" fromJunction="J2" toJunction="J14" end="360" vehsPerHour="62.587325418551764" departLane="free" arrivalSpeed="0.0"/>
  <flow id="JF58341" begin="0" fromJunction="J2" toJunction="J15" end="360" vehsPerHour="96.26701549332803" departLane="free" arrivalSpeed="0.0"/>
  <flow id="JF58342" begin="0" fromJunction="J2" toJunction="J6" end="360" vehsPerHour="127.32421004299623" departLane="free" arrivalSpeed="0.0"/>
  <flow id="JF58343" begin="0" fromJunction="J2" toJunction="J7" end="360" vehsPerHour="25.008140222701588" departLane="free" arrivalSpeed="0.0"/>
  <flow id="JF58344" begin="0" fromJunction="J3" toJunction="J0" end="360" vehsPerHour="39.35797030838635" departLane="free" arrivalSpeed="0.0"/>
  <flow id="JF58345" begin="0" fromJunction="J3" toJunction="J12" end="360" vehsPerHour="68.18198940402141" departLane="free" arrivalSpeed="0.0"/>
  <flow id="JF58346" begin="0" fromJunction="J3" toJunction="J14" end="360" vehsPerHour="47.448844114204604" departLane="free" arrivalSpeed="0.0"/>
  <flow id="JF58347" begin="0" fromJunction="J3" toJunction="J2" end="360" vehsPerHour="13.78433269957351" departLane="free" arrivalSpeed="0.0"/>
  <flow id="JF58348" begin="0" fromJunction="J3" toJunction="J6" end="360" vehsPerHour="10.828356313852398" departLane="free" arrivalSpeed="0.0"/>
  <flow id="JF58349" begin="0" fromJunction="J3" toJunction="J7" end="360" vehsPerHour="6.1655089600813975" departLane="free" arrivalSpeed="0.0"/>
  <flow id="JF58350" begin="0" fromJunction="J3" toJunction="J8" end="360" vehsPerHour="66.9103889054211" departLane="free" arrivalSpeed="0.0"/>
  <flow id="JF58351" begin="0" fromJunction="J3" toJunction="J9" end="360" vehsPerHour="44.254420609597155" departLane="free" arrivalSpeed="0.0"/>
  <flow id="JF58352" begin="0" fromJunction="J6" toJunction="J13" end="360" vehsPerHour="44.818341684513626" departLane="free" arrivalSpeed="0.0"/>
  <flow id="JF58353" begin="0" fromJunction="J6" toJunction="J14" end="360" vehsPerHour="22.903749559818223" departLane="free" arrivalSpeed="0.0"/>
  <flow id="JF58354" begin="0" fromJunction="J6" toJunction="J15" end="360" vehsPerHour="45.817007763700566" departLane="free" arrivalSpeed="0.0"/>
  <flow id="JF58355" begin="0" fromJunction="J6" toJunction="J16" end="360" vehsPerHour="1.5617482107811096" departLane="free" arrivalSpeed="0.0"/>
  <flow id="JF58356" begin="0" fromJunction="J6" toJunction="J2" end="360" vehsPerHour="60.13087966083467" departLane="free" arrivalSpeed="0.0"/>
  <flow id="JF58357" begin="0" fromJunction="J6" toJunction="J3" end="360" vehsPerHour="35.46385314992522" departLane="free" arrivalSpeed="0.0"/>
  <flow id="JF58358" begin="0" fromJunction="J6" toJunction="J8" end="360" vehsPerHour="14.961657525787237" departLane="free" arrivalSpeed="0.0"/>
  <flow id="JF58359" begin="0" fromJunction="J6" toJunction="J9" end="360" vehsPerHour="48.727443011065795" departLane="free" arrivalSpeed="0.0"/>
  <flow id="JF58360" begin="0" fromJunction="J7" toJunction="J0" end="360" vehsPerHour="24.089707390215626" departLane="free" arrivalSpeed="0.0"/>
  <flow id="JF58361" begin="0" fromJunction="J7" toJunction="J13" end="360" vehsPerHour="33.79143052331426" departLane="free" arrivalSpeed="0.0"/>
  <flow id="JF58362" begin="0" fromJunction="J7" toJunction="J14" end="360" vehsPerHour="17.43809144054057" departLane="free" arrivalSpeed="0.0"/>
  <flow id="JF58363" begin="0" fromJunction="J7" toJunction="J15" end="360" vehsPerHour="34.389918295460376" departLane="free" arrivalSpeed="0.0"/>
  <flow id="JF58364" begin="0" fromJunction="J7" toJunction="J9" end="360" vehsPerHour="0.19829061375011978" departLane="free" arrivalSpeed="0.0"/>
  <flow id="JF58365" begin="0" fromJunction="J8" toJunction="J13" end="360" vehsPerHour="17.270043819593205" departLane="free" arrivalSpeed="0.0"/>
  <flow id="JF58366" begin="0" fromJunction="J8" toJunction="J14" end="360" vehsPerHour="45.8386742862146" departLane="free" arrivalSpeed="0.0"/>
  <flow id="JF58367" begin="0" fromJunction="J8" toJunction="J15" end="360" vehsPerHour="24.09637659490605" departLane="free" arrivalSpeed="0.0"/>
  <flow id="JF58368" begin="0" fromJunction="J8" toJunction="J16" end="360" vehsPerHour="9.088444487817718" departLane="free" arrivalSpeed="0.0"/>
  <flow id="JF58369" begin="0" fromJunction="J8" toJunction="J2" end="360" vehsPerHour="41.119252329978075" departLane="free" arrivalSpeed="0.0"/>
  <flow id="JF58370" begin="0" fromJunction="J8" toJunction="J3" end="360" vehsPerHour="68.0529442877838" departLane="free" arrivalSpeed="0.0"/>
  <flow id="JF58371" begin="0" fromJunction="J8" toJunction="J6" end="360" vehsPerHour="59.69387706564499" departLane="free" arrivalSpeed="0.0"/>
  <flow id="JF58372" begin="0" fromJunction="J9" toJunction="J0" end="360" vehsPerHour="26.819039179936293" departLane="free" arrivalSpeed="0.0"/>
  <flow id="JF58373" begin="0" fromJunction="J9" toJunction="J12" end="360" vehsPerHour="38.60691621764192" departLane="free" arrivalSpeed="0.0"/>
  <flow id="JF58374" begin="0" fromJunction="J9" toJunction="J14" end="360" vehsPerHour="55.19260350619233" departLane="free" arrivalSpeed="0.0"/>
  <flow id="JF58375" begin="0" fromJunction="J9" toJunction="J2" end="360" vehsPerHour="67.3577990296543" departLane="free" arrivalSpeed="0.0"/>
  <flow id="JF58376" begin="0" fromJunction="J9" toJunction="J3" end="360" vehsPerHour="47.69573646454517" departLane="free" arrivalSpeed="0.0"/>
  <flow id="JF58377" begin="0" fromJunction="J9" toJunction="J6" end="360" vehsPerHour="40.30822601526025" departLane="free" arrivalSpeed="0.0"/>
  <flow id="JF58378" begin="360" fromJunction="J0" toJunction="J12" end="720" vehsPerHour="11.547767992406042" departLane="free" arrivalSpeed="0.0"/>
  <flow id="JF58379" begin="360" fromJunction="J0" toJunction="J13" end="720" vehsPerHour="62.536301301289676" departLane="free" arrivalSpeed="0.0"/>
  <flow id="JF58380" begin="360" fromJunction="J0" toJunction="J15" end="720" vehsPerHour="20.499148455560817" departLane="free" arrivalSpeed="0.0"/>
  <flow id="JF58381" begin="360" fromJunction="J0" toJunction="J16" end="720" vehsPerHour="62.673755691802924" departLane="free" arrivalSpeed="0.0"/>
  <flow id="JF58382" begin="360" fromJunction="J0" toJunction="J2" end="720" vehsPerHour="20.7775591947338" departLane="free" arrivalSpeed="0.0"/>
  <flow id="JF58383" begin="360" fromJunction="J0" toJunction="J3" end="720" vehsPerHour="3.666165643026594" departLane="free" arrivalSpeed="0.0"/>
  <flow id="JF58384" begin="360" fromJunction="J0" toJunction="J6" end="720" vehsPerHour="32.786227615980444" departLane="free" arrivalSpeed="0.0"/>
  <flow id="JF58385" begin="360" fromJunction="J0" toJunction="J7" end="720" vehsPerHour="59.63986521188352" departLane="free" arrivalSpeed="0.0"/>
  <flow id="JF58386" begin="360" fromJunction="J0" toJunction="J8" end="720" vehsPerHour="24.31629044148735" departLane="free" arrivalSpeed="0.0"/>
  <flow id="JF58387" begin="360" fromJunction="J0" toJunction="J9" end="720" vehsPerHour="7.676287000168116" departLane="free" arrivalSpeed="0.0"/>
  <flow id="JF58388" begin="360" fromJunction="J12" toJunction="J0" end="720" vehsPerHour="62.89763977642903" departLane="free" arrivalSpeed="0.0"/>
  <flow id="JF58389" begin="360" fromJunction="J12" toJunction="J14" end="720" vehsPerHour="44.254500897764366" departLane="free" arrivalSpeed="0.0"/>
  <flow id="JF58390" begin="360" fromJunction="J12" toJunction="J15" end="720" vehsPerHour="62.905102662236395" departLane="free" arrivalSpeed="0.0"/>
  <flow id="JF58391" begin="360" fromJunction="J12" toJunction="J16" end="720" vehsPerHour="45.47684254144961" departLane="free" arrivalSpeed="0.0"/>
  <flow id="JF58392" begin="360" fromJunction="J12" toJunction="J2" end="720" vehsPerHour="4.250050795298864" departLane="free" arrivalSpeed="0.0"/>
  <flow id="JF58393" begin="360" fromJunction="J12" toJunction="J3" end="720" vehsPerHour="1.1912781284478378" departLane="free" arrivalSpeed="0.0"/>
  <flow id="JF58394" begin="360" fromJunction="J12" toJunction="J6" end="720" vehsPerHour="18.349099657509747" departLane="free" arrivalSpeed="0.0"/>
  <flow id="JF58395" begin="360" fromJunction="J12" toJunction="J7" end="720" vehsPerHour="52.86314059484978" departLane="free" arrivalSpeed="0.0"/>
  <flow id="JF58396" begin="360" fromJunction="J13" toJunction="J12" end="720" vehsPerHour="29.53307511140161" departLane="free" arrivalSpeed="0.0"/>
  <flow id="JF58397" begin="360" fromJunction="J13" toJunction="J14" end="720" vehsPerHour="39.742054857284444" departLane="free" arrivalSpeed="0.0"/>
  <flow id="JF58398" begin="360" fromJunction="J13" toJunction="J15" end="720" vehsPerHour="48.91627687439454" departLane="free" arrivalSpeed="0.0"/>
  <flow id="JF58399" begin="360" fromJunction="J13" toJunction="J16" end="720" vehsPerHour="2.749553897640745" departLane="free" arrivalSpeed="0.0"/>
  <flow id="JF58400" begin="360" fromJunction="J13" toJunction="J3" end="720" vehsPerHour="24.259244298366383" departLane="free" arrivalSpeed="0.0"/>
  <flow id="JF58401" begin="360" fromJunction="J13" toJunction="J6" end="720" vehsPerHour="59.30270343757316" departLane="free" arrivalSpeed="0.0"/>
  <flow id="JF58402" begin="360" fromJunction="J13" toJunction="J7" end="720" vehsPerHour="20.26898421154154" departLane="free" arrivalSpeed="0.0"/>
  <flow id="JF58403" begin="360" fromJunction="J13" toJunction="J8" end="720" vehsPerHour="11.87832202918055" departLane="free" arrivalSpeed="0.0"/>
  <flow id="JF58404" begin="360" fromJunction="J13" toJunction="J9" end="720" vehsPerHour="12.244801555596156" departLane="free" arrivalSpeed="0.0"/>
  <flow id="JF58405" begin="360" fromJunction="J14" toJunction="J0" end="720" vehsPerHour="25.9671617022971" departLane="free" arrivalSpeed="0.0"/>
  <flow id="JF58406" begin="360" fromJunction="J14" toJunction="J12" end="720" vehsPerHour="48.39716186007452" departLane="free" arrivalSpeed="0.0"/>
  <flow id="JF58407" begin="360" fromJunction="J14" toJunction="J13" end="720" vehsPerHour="24.48881900130534" departLane="free" arrivalSpeed="0.0"/>
  <flow id="JF58408" begin="360" fromJunction="J14" toJunction="J3" end="720" vehsPerHour="21.015945154763948" departLane="free" arrivalSpeed="0.0"/>
  <flow id="JF58409" begin="360" fromJunction="J14" toJunction="J6" end="720" vehsPerHour="39.715677226847795" departLane="free" arrivalSpeed="0.0"/>
  <flow id="JF58410" begin="360" fromJunction="J14" toJunction="J7" end="720" vehsPerHour="22.59197459318473" departLane="free" arrivalSpeed="0.0"/>
  <flow id="JF58411" begin="360" fromJunction="J14" toJunction="J8" end="720" vehsPerHour="29.692121608923276" departLane="free" arrivalSpeed="0.0"/>
  <flow id="JF58412" begin="360" fromJunction="J15" toJunction="J12" end="720" vehsPerHour="59.071227386288214" departLane="free" arrivalSpeed="0.0"/>
  <flow id="JF58413" begin="360" fromJunction="J15" toJunction="J14" end="720" vehsPerHour="57.10172949444735" departLane="free" arrivalSpeed="0.0"/>
  <flow id="JF58414" begin="360" fromJunction="J15" toJunction="J2" end="720" vehsPerHour="8.698929284161252" departLane="free" arrivalSpeed="0.0"/>
  <flow id="JF58415" begin="360" fromJunction="J15" toJunction="J3" end="720" vehsPerHour="57.5821348403153" departLane="free" arrivalSpeed="0.0"/>
  <flow id="JF58416" begin="360" fromJunction="J15" toJunction="J7" end="720" vehsPerHour="31.105798353942966" departLane="free" arrivalSpeed="0.0"/>
  <flow id="JF58417" begin="360" fromJunction="J15" toJunction="J9" end="720" vehsPerHour="48.78105191012134" departLane="free" arrivalSpeed="0.0"/>
  <flow id="JF58418" begin="360" fromJunction="J16" toJunction="J0" end="720" vehsPerHour="38.19987763826087" departLane="free" arrivalSpeed="0.0"/>
  <flow id="JF58419" begin="360" fromJunction="J16" toJunction="J13" end="720" vehsPerHour="1.2668368928819842" departLane="free" arrivalSpeed="0.0"/>
  <flow id="JF58420" begin="360" fromJunction="J16" toJunction="J15" end="720" vehsPerHour="127.33837692522881" departLane="free" arrivalSpeed="0.0"/>
  <flow id="JF58421" begin="360" fromJunction="J16" toJunction="J2" end="720" vehsPerHour="3.9184109816331465" departLane="free" arrivalSpeed="0.0"/>
  <flow id="JF58422" begin="360" fromJunction="J16" toJunction="J3" end="720" vehsPerHour="92.53705016539014" departLane="free" arrivalSpeed="0.0"/>
  <flow id="JF58423" begin="360" fromJunction="J16" toJunction="J6" end="720" vehsPerHour="130.6524247406723" departLane="free" arrivalSpeed="0.0"/>
  <flow id="JF58424" begin="360" fromJunction="J16" toJunction="J7" end="720" vehsPerHour="64.88508642519938" departLane="free" arrivalSpeed="0.0"/>
  <flow id="JF58425" begin="360" fromJunction="J16" toJunction="J8" end="720" vehsPerHour="30.488987586630184" departLane="free" arrivalSpeed="0.0"/>
  <flow id="JF58426" begin="360" fromJunction="J2" toJunction="J13" end="720" vehsPerHour="15.321049502526717" departLane="free" arrivalSpeed="0.0"/>
  <flow id="JF58427" begin="360" fromJunction="J2" toJunction="J16" end="720" vehsPerHour="65.04882321522004" departLane="free" arrivalSpeed="0.0"/>
  <flow id="JF58428" begin="360" fromJunction="J2" toJunction="J7" end="720" vehsPerHour="71.77301890627147" departLane="free" arrivalSpeed="0.0"/>
  <flow id="JF58429" begin="360" fromJunction="J2" toJunction="J8" end="720" vehsPerHour="34.17813769921325" departLane="free" arrivalSpeed="0.0"/>
  <flow id="JF58430" begin="360" fromJunction="J2" toJunction="J9" end="720" vehsPerHour="79.77306725305813" departLane="free" arrivalSpeed="0.0"/>
  <flow id="JF58431" begin="360" fromJunction="J3" toJunction="J0" end="720" vehsPerHour="18.27689008720729" departLane="free" arrivalSpeed="0.0"/>
  <flow id="JF58432" begin="360" fromJunction="J3" toJunction="J12" end="720" vehsPerHour="32.62594029847517" departLane="free" arrivalSpeed="0.0"/>
  <flow id="JF58433" begin="360" fromJunction="J3" toJunction="J14" end="720" vehsPerHour="21.75855717747298" departLane="free" arrivalSpeed="0.0"/>
  <flow id="JF58434" begin="360" fromJunction="J3" toJunction="J15" end="720" vehsPerHour="37.47090416667264" departLane="free" arrivalSpeed="0.0"/>
  <flow id="JF58435" begin="360" fromJunction="J3" toJunction="J16" end="720" vehsPerHour="65.24900015384507" departLane="free" arrivalSpeed="0.0"/>
  <flow id="JF58436" begin="360" fromJunction="J3" toJunction="J2" end="720" vehsPerHour="59.300422134514726" departLane="free" arrivalSpeed="0.0"/>
  <flow id="JF58437" begin="360" fromJunction="J3" toJunction="J6" end="720" vehsPerHour="52.87936004353042" departLane="free" arrivalSpeed="0.0"/>
  <flow id="JF58438" begin="360" fromJunction="J3" toJunction="J8" end="720" vehsPerHour="22.64412125166321" departLane="free" arrivalSpeed="0.0"/>
  <flow id="JF58439" begin="360" fromJunction="J6" toJunction="J0" end="720" vehsPerHour="67.60158947949952" departLane="free" arrivalSpeed="0.0"/>
  <flow id="JF58440" begin="360" fromJunction="J6" toJunction="J12" end="720" vehsPerHour="6.258011564167857" departLane="free" arrivalSpeed="0.0"/>
  <flow id="JF58441" begin="360" fromJunction="J6" toJunction="J13" end="720" vehsPerHour="37.38473468380402" departLane="free" arrivalSpeed="0.0"/>
  <flow id="JF58442" begin="360" fromJunction="J6" toJunction="J16" end="720" vehsPerHour="8.32853522440188" departLane="free" arrivalSpeed="0.0"/>
  <flow id="JF58443" begin="360" fromJunction="J6" toJunction="J3" end="720" vehsPerHour="54.841837567359995" departLane="free" arrivalSpeed="0.0"/>
  <flow id="JF58444" begin="360" fromJunction="J6" toJunction="J7" end="720" vehsPerHour="66.00344775070525" departLane="free" arrivalSpeed="0.0"/>
  <flow id="JF58445" begin="360" fromJunction="J6" toJunction="J8" end="720" vehsPerHour="18.009988818418933" departLane="free" arrivalSpeed="0.0"/>
  <flow id="JF58446" begin="360" fromJunction="J7" toJunction="J0" end="720" vehsPerHour="32.23234961021285" departLane="free" arrivalSpeed="0.0"/>
  <flow id="JF58447" begin="360" fromJunction="J7" toJunction="J12" end="720" vehsPerHour="62.95446325532052" departLane="free" arrivalSpeed="0.0"/>
  <flow id="JF58448" begin="360" fromJunction="J7" toJunction="J13" end="720" vehsPerHour="6.351695143811939" departLane="free" arrivalSpeed="0.0"/>
  <flow id="JF58449" begin="360" fromJunction="J7" toJunction="J15" end="720" vehsPerHour="16.954258091288207" departLane="free" arrivalSpeed="0.0"/>
  <flow id="JF58450" begin="360" fromJunction="J7" toJunction="J8" end="720" vehsPerHour="47.88103827694739" departLane="free" arrivalSpeed="0.0"/>
  <flow id="JF58451" begin="360" fromJunction="J8" toJunction="J12" end="720" vehsPerHour="31.189304267362477" departLane="free" arrivalSpeed="0.0"/>
  <flow id="JF58452" begin="360" fromJunction="J8" toJunction="J14" end="720" vehsPerHour="44.54279145706299" departLane="free" arrivalSpeed="0.0"/>
  <flow id="JF58453" begin="360" fromJunction="J8" toJunction="J15" end="720" vehsPerHour="42.506460827672996" departLane="free" arrivalSpeed="0.0"/>
  <flow id="JF58454" begin="360" fromJunction="J8" toJunction="J16" end="720" vehsPerHour="27.07039293042365" departLane="free" arrivalSpeed="0.0"/>
  <flow id="JF58455" begin="360" fromJunction="J8" toJunction="J2" end="720" vehsPerHour="52.40716047267147" departLane="free" arrivalSpeed="0.0"/>
  <flow id="JF58456" begin="360" fromJunction="J8" toJunction="J6" end="720" vehsPerHour="5.924231800384599" departLane="free" arrivalSpeed="0.0"/>
  <flow id="JF58457" begin="360" fromJunction="J8" toJunction="J9" end="720" vehsPerHour="46.63416962947188" departLane="free" arrivalSpeed="0.0"/>
  <flow id="JF58458" begin="360" fromJunction="J9" toJunction="J0" end="720" vehsPerHour="4.7202188105916525" departLane="free" arrivalSpeed="0.0"/>
  <flow id="JF58459" begin="360" fromJunction="J9" toJunction="J12" end="720" vehsPerHour="16.431380194513203" departLane="free" arrivalSpeed="0.0"/>
  <flow id="JF58460" begin="360" fromJunction="J9" toJunction="J13" end="720" vehsPerHour="49.778939370869246" departLane="free" arrivalSpeed="0.0"/>
  <flow id="JF58461" begin="360" fromJunction="J9" toJunction="J14" end="720" vehsPerHour="48.3814020721844" departLane="free" arrivalSpeed="0.0"/>
  <flow id="JF58462" begin="360" fromJunction="J9" toJunction="J15" end="720" vehsPerHour="39.65008817480831" departLane="free" arrivalSpeed="0.0"/>
  <flow id="JF58463" begin="360" fromJunction="J9" toJunction="J16" end="720" vehsPerHour="12.28627357423519" departLane="free" arrivalSpeed="0.0"/>
  <flow id="JF58464" begin="360" fromJunction="J9" toJunction="J6" end="720" vehsPerHour="6.69706609405581" departLane="free" arrivalSpeed="0.0"/>
  <flow id="JF58465" begin="360" fromJunction="J9" toJunction="J8" end="720" vehsPerHour="65.06192638632614" departLane="free" arrivalSpeed="0.0"/>
  <flow id="JF58466" begin="720" fromJunction="J0" toJunction="J14" end="1080" vehsPerHour="20.893262245125854" departLane="free" arrivalSpeed="0.0"/>
  <flow id="JF58467" begin="720" fromJunction="J0" toJunction="J15" end="1080" vehsPerHour="28.051999405849504" departLane="free" arrivalSpeed="0.0"/>
  <flow id="JF58468" begin="720" fromJunction="J0" toJunction="J2" end="1080" vehsPerHour="47.512084817553024" departLane="free" arrivalSpeed="0.0"/>
  <flow id="JF58469" begin="720" fromJunction="J0" toJunction="J3" end="1080" vehsPerHour="24.544005501548597" departLane="free" arrivalSpeed="0.0"/>
  <flow id="JF58470" begin="720" fromJunction="J0" toJunction="J6" end="1080" vehsPerHour="54.64270697359897" departLane="free" arrivalSpeed="0.0"/>
  <flow id="JF58471" begin="720" fromJunction="J0" toJunction="J7" end="1080" vehsPerHour="61.00498786623543" departLane="free" arrivalSpeed="0.0"/>
  <flow id="JF58472" begin="720" fromJunction="J0" toJunction="J9" end="1080" vehsPerHour="7.891508002843083" departLane="free" arrivalSpeed="0.0"/>
  <flow id="JF58473" begin="720" fromJunction="J12" toJunction="J0" end="1080" vehsPerHour="67.83010028637808" departLane="free" arrivalSpeed="0.0"/>
  <flow id="JF58474" begin="720" fromJunction="J12" toJunction="J13" end="1080" vehsPerHour="29.11066227936536" departLane="free" arrivalSpeed="0.0"/>
  <flow id="JF58475" begin="720" fromJunction="J12" toJunction="J14" end="1080" vehsPerHour="50.47418036449123" departLane="free" arrivalSpeed="0.0"/>
  <flow id="JF58476" begin="720" fromJunction="J12" toJunction="J15" end="1080" vehsPerHour="63.429247859458016" departLane="free" arrivalSpeed="0.0"/>
  <flow id="JF58477" begin="720" fromJunction="J12" toJunction="J2" end="1080" vehsPerHour="50.7146314629127" departLane="free" arrivalSpeed="0.0"/>
  <flow id="JF58478" begin="720" fromJunction="J12" toJunction="J3" end="1080" vehsPerHour="18.876347811270236" departLane="free" arrivalSpeed="0.0"/>
  <flow id="JF58479" begin="720" fromJunction="J12" toJunction="J6" end="1080" vehsPerHour="20.05540166743904" departLane="free" arrivalSpeed="0.0"/>
  <flow id="JF58480" begin="720" fromJunction="J12" toJunction="J7" end="1080" vehsPerHour="29.072190366276985" departLane="free" arrivalSpeed="0.0"/>
  <flow id="JF58481" begin="720" fromJunction="J12" toJunction="J9" end="1080" vehsPerHour="8.333037731592134" departLane="free" arrivalSpeed="0.0"/>
  <flow id="JF58482" begin="720" fromJunction="J13" toJunction="J0" end="1080" vehsPerHour="55.41101009248822" departLane="free" arrivalSpeed="0.0"/>
  <flow id="JF58483" begin="720" fromJunction="J13" toJunction="J14" end="1080" vehsPerHour="44.39635435136667" departLane="free" arrivalSpeed="0.0"/>
  <flow id="JF58484" begin="720" fromJunction="J13" toJunction="J16" end="1080" vehsPerHour="11.838785402268858" departLane="free" arrivalSpeed="0.0"/>
  <flow id="JF58485" begin="720" fromJunction="J13" toJunction="J2" end="1080" vehsPerHour="29.969381194518267" departLane="free" arrivalSpeed="0.0"/>
  <flow id="JF58486" begin="720" fromJunction="J13" toJunction="J3" end="1080" vehsPerHour="41.17160549429328" departLane="free" arrivalSpeed="0.0"/>
  <flow id="JF58487" begin="720" fromJunction="J13" toJunction="J6" end="1080" vehsPerHour="65.30078604809707" departLane="free" arrivalSpeed="0.0"/>
  <flow id="JF58488" begin="720" fromJunction="J13" toJunction="J7" end="1080" vehsPerHour="18.016578143684498" departLane="free" arrivalSpeed="0.0"/>
  <flow id="JF58489" begin="720" fromJunction="J14" toJunction="J13" end="1080" vehsPerHour="34.99819013699728" departLane="free" arrivalSpeed="0.0"/>
  <flow id="JF58490" begin="720" fromJunction="J14" toJunction="J15" end="1080" vehsPerHour="30.02407919986012" departLane="free" arrivalSpeed="0.0"/>
  <flow id="JF58491" begin="720" fromJunction="J14" toJunction="J16" end="1080" vehsPerHour="25.789977751449637" departLane="free" arrivalSpeed="0.0"/>
  <flow id="JF58492" begin="720" fromJunction="J14" toJunction="J2" end="1080" vehsPerHour="31.265674413523904" departLane="free" arrivalSpeed="0.0"/>
  <flow id="JF58493" begin="720" fromJunction="J14" toJunction="J3" end="1080" vehsPerHour="59.070759116038346" departLane="free" arrivalSpeed="0.0"/>
  <flow id="JF58494" begin="720" fromJunction="J14" toJunction="J6" end="1080" vehsPerHour="38.69406193998918" departLane="free" arrivalSpeed="0.0"/>