<?xml version="1.0" encoding="UTF-8"?>
<routes xmlns:xsi="http://www.w3.org/2001/XMLSchema-instance" xsi:noNamespaceSchemaLocation="http://sumo.dlr.de/xsd/routes_file.xsd">
  <flow id="JF54303" begin="0" fromJunction="J3" toJunction="J0" end="60" vehsPerHour="36.77259111367603" departLane="free"/>
  <flow id="JF54304" begin="0" fromJunction="J0" toJunction="J3" end="60" vehsPerHour="514.8130282784837" departLane="free"/>
  <flow id="JF54305" begin="0" fromJunction="J3" toJunction="J4" end="60" vehsPerHour="113.26087343664754" departLane="free"/>
  <flow id="JF54306" begin="0" fromJunction="J3" toJunction="J7" end="60" vehsPerHour="72.23564177442937" departLane="free"/>
  <flow id="JF54307" begin="0" fromJunction="J3" toJunction="J6" end="60" vehsPerHour="49.87791846864573" departLane="free"/>
  <flow id="JF54308" begin="0" fromJunction="J3" toJunction="J5" end="60" vehsPerHour="118.23029841269074" departLane="free"/>
  <flow id="JF54309" begin="0" fromJunction="J0" toJunction="J4" end="60" vehsPerHour="5.591171450625603" departLane="free"/>
  <flow id="JF54310" begin="0" fromJunction="J0" toJunction="J7" end="60" vehsPerHour="109.14772327820884" departLane="free"/>
  <flow id="JF54311" begin="0" fromJunction="J0" toJunction="J6" end="60" vehsPerHour="94.15827641808187" departLane="free"/>
  <flow id="JF54312" begin="0" fromJunction="J0" toJunction="J5" end="60" vehsPerHour="16.764848028576925" departLane="free"/>
  <flow id="JF54313" begin="0" fromJunction="J4" toJunction="J7" end="60" vehsPerHour="53.39380438778345" departLane="free"/>
  <flow id="JF54314" begin="0" fromJunction="J4" toJunction="J6" end="60" vehsPerHour="57.57398092387961" departLane="free"/>
  <flow id="JF54315" begin="0" fromJunction="J4" toJunction="J5" end="60" vehsPerHour="36.22762256956907" departLane="free"/>
  <flow id="JF54316" begin="0" fromJunction="J7" toJunction="J4" end="60" vehsPerHour="23.73489208032785" departLane="free"/>
  <flow id="JF54317" begin="0" fromJunction="J7" toJunction="J6" end="60" vehsPerHour="21.639365123157003" departLane="free"/>
  <flow id="JF54318" begin="0" fromJunction="J7" toJunction="J5" end="60" vehsPerHour="10.676357435170308" departLane="free"/>
  <flow id="JF54319" begin="0" fromJunction="J6" toJunction="J4" end="60" vehsPerHour="27.743442075976468" departLane="free"/>
  <flow id="JF54320" begin="0" fromJunction="J6" toJunction="J7" end="60" vehsPerHour="39.92923413608721" departLane="free"/>
  <flow id="JF54321" begin="0" fromJunction="J6" toJunction="J5" end="60" vehsPerHour="19.150992867917083" departLane="free"/>
  <flow id="JF54322" begin="0" fromJunction="J5" toJunction="J4" end="60" vehsPerHour="19.236505066814804" departLane="free"/>
  <flow id="JF54323" begin="0" fromJunction="J5" toJunction="J7" end="60" vehsPerHour="46.545492033463056" departLane="free"/>
  <flow id="JF54324" begin="0" fromJunction="J5" toJunction="J6" end="60" vehsPerHour="1.3848499641093541" departLane="free"/>
  <flow id="JF54325" begin="0" fromJunction="J4" toJunction="J3" end="60" vehsPerHour="15.28159869858435" departLane="free"/>
  <flow id="JF54326" begin="0" fromJunction="J4" toJunction="J0" end="60" vehsPerHour="30.20989713332093" departLane="free"/>
  <flow id="JF54327" begin="0" fromJunction="J7" toJunction="J3" end="60" vehsPerHour="5.987650793966424" departLane="free"/>
  <flow id="JF54328" begin="0" fromJunction="J7" toJunction="J0" end="60" vehsPerHour="19.328383648423685" departLane="free"/>
  <flow id="JF54329" begin="0" fromJunction="J6" toJunction="J3" end="60" vehsPerHour="31.954785634719453" departLane="free"/>
  <flow id="JF54330" begin="0" fromJunction="J6" toJunction="J0" end="60" vehsPerHour="26.942128372509764" departLane="free"/>
  <flow id="JF54331" begin="0" fromJunction="J5" toJunction="J3" end="60" vehsPerHour="28.0319743278121" departLane="free"/>
  <flow id="JF54332" begin="0" fromJunction="J5" toJunction="J0" end="60" vehsPerHour="24.192320034830292" departLane="free"/>
  <flow id="JF54333" begin="60" fromJunction="J3" toJunction="J0" end="120" vehsPerHour="24.558949885745147" departLane="free"/>
  <flow id="JF54334" begin="60" fromJunction="J0" toJunction="J3" end="120" vehsPerHour="376.6352426333516" departLane="free"/>
  <flow id="JF54335" begin="60" fromJunction="J3" toJunction="J4" end="120" vehsPerHour="17.462611619256048" departLane="free"/>
  <flow id="JF54336" begin="60" fromJunction="J3" toJunction="J7" end="120" vehsPerHour="118.00010561128146" departLane="free"/>
  <flow id="JF54337" begin="60" fromJunction="J3" toJunction="J6" end="120" vehsPerHour="130.52664125554784" departLane="free"/>
  <flow id="JF54338" begin="60" fromJunction="J3" toJunction="J5" end="120" vehsPerHour="55.29648535504274" departLane="free"/>
  <flow id="JF54339" begin="60" fromJunction="J0" toJunction="J4" end="120" vehsPerHour="47.11667810748226" departLane="free"/>
  <flow id="JF54340" begin="60" fromJunction="J0" toJunction="J7" end="120" vehsPerHour="59.636637167075904" departLane="free"/>
  <flow id="JF54341" begin="60" fromJunction="J0" toJunction="J6" end="120" vehsPerHour="30.879651121457346" departLane="free"/>
  <flow id="JF54342" begin="60" fromJunction="J0" toJunction="J5" end="120" vehsPerHour="130.23382796965964" departLane="free"/>
  <flow id="JF54343" begin="120" fromJunction="J3" toJunction="J0" end="180" vehsPerHour="51.46088284698682" departLane="free"/>
  <flow id="JF54344" begin="120" fromJunction="J0" toJunction="J3" end="180" vehsPerHour="365.0375443377419" departLane="free"/>
  <flow id="JF54345" begin="120" fromJunction="J3" toJunction="J4" end="180" vehsPerHour="72.74464909673185" departLane="free"/>
  <flow id="JF54346" begin="120" fromJunction="J3" toJunction="J7" end="180" vehsPerHour="71.7751565778249" departLane="free"/>
  <flow id="JF54347" begin="120" fromJunction="J3" toJunction="J6" end="180" vehsPerHour="134.74953372446024" departLane="free"/>
  <flow id="JF54348" begin="120" fromJunction="J3" toJunction="J5" end="180" vehsPerHour="63.308201777838214" departLane="free"/>
  <flow id="JF54349" begin="120" fromJunction="J0" toJunction="J4" end="180" vehsPerHour="134.29617015234558" departLane="free"/>
  <flow id="JF54350" begin="120" fromJunction="J0" toJunction="J7" end="180" vehsPerHour="107.13289861285622" departLane="free"/>
  <flow id="JF54351" begin="120" fromJunction="J0" toJunction="J6" end="180" vehsPerHour="49.03123362861757" departLane="free"/>
  <flow id="JF54352" begin="120" fromJunction="J0" toJunction="J5" end="180" vehsPerHour="24.00784123281083" departLane="free"/>
  <flow id="JF54353" begin="120" fromJunction="J4" toJunction="J7" end="180" vehsPerHour="5.50655108152557" departLane="free"/>
  <flow id="JF54354" begin="120" fromJunction="J4" toJunction="J6" end="180" vehsPerHour="35.275799079942345" departLane="free"/>
  <flow id="JF54355" begin="120" fromJunction="J4" toJunction="J5" end="180" vehsPerHour="44.731628536878354" departLane="free"/>
  <flow id="JF54356" begin="120" fromJunction="J7" toJunction="J4" end="180" vehsPerHour="19.026205014956435" departLane="free"/>
  <flow id="JF54357" begin="120" fromJunction="J7" toJunction="J6" end="180" vehsPerHour="16.06939515771464" departLane="free"/>
  <flow id="JF54358" begin="120" fromJunction="J7" toJunction="J5" end="180" vehsPerHour="6.207122073253518" departLane="free"/>
  <flow id="JF54359" begin="120" fromJunction="J6" toJunction="J4" end="180" vehsPerHour="15.477276598810114" departLane="free"/>
  <flow id="JF54360" begin="120" fromJunction="J6" toJunction="J7" end="180" vehsPerHour="4.1500938411128026" departLane="free"/>
  <flow id="JF54361" begin="120" fromJunction="J6" toJunction="J5" end="180" vehsPerHour="27.858258746470636" departLane="free"/>
  <flow id="JF54362" begin="120" fromJunction="J5" toJunction="J4" end="180" vehsPerHour="23.096495480844684" departLane="free"/>
  <flow id="JF54363" begin="120" fromJunction="J5" toJunction="J7" end="180" vehsPerHour="11.370817605528298" departLane="free"/>
  <flow id="JF54364" begin="120" fromJunction="J5" toJunction="J6" end="180" vehsPerHour="65.03358321128027" departLane="free"/>
  <flow id="JF54365" begin="120" fromJunction="J4" toJunction="J3" end="180" vehsPerHour="4.973650310013523" departLane="free"/>
  <flow id="JF54366" begin="120" fromJunction="J4" toJunction="J0" end="180" vehsPerHour="32.624217514691104" departLane="free"/>
  <flow id="JF54367" begin="120" fromJunction="J7" toJunction="J3" end="180" vehsPerHour="21.707550902510448" departLane="free"/>
  <flow id="JF54368" begin="120" fromJunction="J7" toJunction="J0" end="180" vehsPerHour="0.7734895709545325" departLane="free"/>
  <flow id="JF54369" begin="120" fromJunction="J6" toJunction="J3" end="180" vehsPerHour="16.220800909879664" departLane="free"/>
  <flow id="JF54370" begin="120" fromJunction="J6" toJunction="J0" end="180" vehsPerHour="22.07327331240152" departLane="free"/>
  <flow id="JF54371" begin="120" fromJunction="J5" toJunction="J3" end="180" vehsPerHour="24.770743826590923" departLane="free"/>
  <flow id="JF54372" begin="120" fromJunction="J5" toJunction="J0" end="180" vehsPerHour="31.010120818446808" departLane="free"/>
  <flow id="JF54373" begin="180" fromJunction="J3" toJunction="J0" end="240" vehsPerHour="70.9628444681056" departLane="free"/>
  <flow id="JF54374" begin="180" fromJunction="J0" toJunction="J3" end="240" vehsPerHour="96.4941003699395" departLane="free"/>
  <flow id="JF54375" begin="180" fromJunction="J3" toJunction="J4" end="240" vehsPerHour="55.335234962788725" departLane="free"/>
  <flow id="JF54376" begin="180" fromJunction="J3" toJunction="J7" end="240" vehsPerHour="19.550994884859026" departLane="free"/>
  <flow id="JF54377" begin="180" fromJunction="J3" toJunction="J6" end="240" vehsPerHour="118.67926004394853" departLane="free"/>
  <flow id="JF54378" begin="180" fromJunction="J3" toJunction="J5" end="240" vehsPerHour="95.88092020860175" departLane="free"/>
  <flow id="JF54379" begin="180" fromJunction="J0" toJunction="J4" end="240" vehsPerHour="124.02256680184763" departLane="free"/>
  <flow id="JF54380" begin="180" fromJunction="J0" toJunction="J7" end="240" vehsPerHour="116.19694705447836" departLane="free"/>
  <flow id="JF54381" begin="180" fromJunction="J0" toJunction="J6" end="240" vehsPerHour="82.08044668364826" departLane="free"/>
  <flow id="JF54382" begin="180" fromJunction="J0" toJunction="J5" end="240" vehsPerHour="129.3004460570275" departLane="free"/>
  <flow id="JF54383" begin="180" fromJunction="J4" toJunction="J7" end="240" vehsPerHour="39.849209773270395" departLane="free"/>
  <flow id="JF54384" begin="180" fromJunction="J4" toJunction="J6" end="240" vehsPerHour="46.284286447266766" departLane="free"/>
  <flow id="JF54385" begin="180" fromJunction="J4" toJunction="J5" end="240" vehsPerHour="34.93034904590059" departLane="free"/>
  <flow id="JF54386" begin="180" fromJunction="J7" toJunction="J4" end="240" vehsPerHour="16.13560918490147" departLane="free"/>
  <flow id="JF54387" begin="180" fromJunction="J7" toJunction="J6" end="240" vehsPerHour="4.001946099015889" departLane="free"/>
  <flow id="JF54388" begin="180" fromJunction="J7" toJunction="J5" end="240" vehsPerHour="26.429061557902955" departLane="free"/>
  <flow id="JF54389" begin="180" fromJunction="J6" toJunction="J4" end="240" vehsPerHour="20.801834973807807" departLane="free"/>
  <flow id="JF54390" begin="180" fromJunction="J6" toJunction="J7" end="240" vehsPerHour="50.41711559715515" departLane="free"/>
  <flow id="JF54391" begin="180" fromJunction="J6" toJunction="J5" end="240" vehsPerHour="33.87695059961516" departLane="free"/>
  <flow id="JF54392" begin="180" fromJunction="J5" toJunction="J4" end="240" vehsPerHour="3.3730568393670124" departLane="free"/>
  <flow id="JF54393" begin="180" fromJunction="J5" toJunction="J7" end="240" vehsPerHour="0.28167400991804925" departLane="free"/>
  <flow id="JF54394" begin="180" fromJunction="J5" toJunction="J6" end="240" vehsPerHour="47.89899581377144" departLane="free"/>
  <flow id="JF54395" begin="180" fromJunction="J4" toJunction="J3" end="240" vehsPerHour="8.629940790774036" departLane="free"/>
  <flow id="JF54396" begin="180" fromJunction="J4" toJunction="J0" end="240" vehsPerHour="25.468220123354303" departLane="free"/>
  <flow id="JF54397" begin="180" fromJunction="J7" toJunction="J3" end="240" vehsPerHour="9.012608539364065" departLane="free"/>
  <flow id="JF54398" begin="180" fromJunction="J7" toJunction="J0" end="240" vehsPerHour="8.673971106367008" departLane="free"/>
  <flow id="JF54399" begin="180" fromJunction="J6" toJunction="J3" end="240" vehsPerHour="17.95988648479962" departLane="free"/>
  <flow id="JF54400" begin="180" fromJunction="J6" toJunction="J0" end="240" vehsPerHour="1.8932512206729932" departLane="free"/>
  <flow id="JF54401" begin="180" fromJunction="J5" toJunction="J3" end="240" vehsPerHour="6.800513649710251" departLane="free"/>
  <flow id="JF54402" begin="180" fromJunction="J5" toJunction="J0" end="240" vehsPerHour="10.779023895682908" departLane="free"/>
  <flow id="JF54403" begin="240" fromJunction="J3" toJunction="J0" end="300" vehsPerHour="74.72176637124905" departLane="free"/>
  <flow id="JF54404" begin="240" fromJunction="J0" toJunction="J3" end="300" vehsPerHour="446.4121437703969" departLane="free"/>
  <flow id="JF54405" begin="240" fromJunction="J3" toJunction="J4" end="300" vehsPerHour="107.41709359974134" departLane="free"/>
  <flow id="JF54406" begin="240" fromJunction="J3" toJunction="J7" end="300" vehsPerHour="108.7026083440899" departLane="free"/>
  <flow id="JF54407" begin="240" fromJunction="J3" toJunction="J6" end="300" vehsPerHour="18.288308503973987" departLane="free"/>
  <flow id="JF54408" begin="240" fromJunction="J3" toJunction="J5" end="300" vehsPerHour="87.59166636623529" departLane="free"/>
  <flow id="JF54409" begin="240" fromJunction="J0" toJunction="J4" end="300" vehsPerHour="8.507877033641776" departLane="free"/>
  <flow id="JF54410" begin="240" fromJunction="J0" toJunction="J7" end="300" vehsPerHour="20.226746916093227" departLane="free"/>
  <flow id="JF54411" begin="240" fromJunction="J0" toJunction="J6" end="300" vehsPerHour="69.6811621251408" departLane="free"/>
  <flow id="JF54412" begin="240" fromJunction="J0" toJunction="J5" end="300" vehsPerHour="77.35271758505424" departLane="free"/>
  <flow id="JF54413" begin="240" fromJunction="J4" toJunction="J7" end="300" vehsPerHour="39.34428534999375" departLane="free"/>
  <flow id="JF54414" begin="240" fromJunction="J4" toJunction="J6" end="300" vehsPerHour="34.563928758289045" departLane="free"/>
  <flow id="JF54415" begin="240" fromJunction="J4" toJunction="J5" end="300" vehsPerHour="51.72957853155916" departLane="free"/>
  <flow id="JF54416" begin="240" fromJunction="J7" toJunction="J4" end="300" vehsPerHour="20.386493322242504" departLane="free"/>
  <flow id="JF54417" begin="240" fromJunction="J7" toJunction="J6" end="300" vehsPerHour="6.551739516485681" departLane="free"/>
  <flow id="JF54418" begin="240" fromJunction="J7" toJunction="J5" end="300" vehsPerHour="23.476108417405463" departLane="free"/>
  <flow id="JF54419" begin="240" fromJunction="J6" toJunction="J4" end="300" vehsPerHour="26.900617057855726" departLane="free"/>
  <flow id="JF54420" begin="240" fromJunction="J6" toJunction="J7" end="300" vehsPerHour="15.031541860102934" departLane="free"/>
  <flow id="JF54421" begin="240" fromJunction="J6" toJunction="J5" end="300" vehsPerHour="31.916699158210406" departLane="free"/>
  <flow id="JF54422" begin="240" fromJunction="J5" toJunction="J4" end="300" vehsPerHour="12.958131176139913" departLane="free"/>
  <flow id="JF54423" begin="240" fromJunction="J5" toJunction="J7" end="300" vehsPerHour="31.676469223845167" departLane="free"/>
  <flow id="JF54424" begin="240" fromJunction="J5" toJunction="J6" end="300" vehsPerHour="54.91050115024638" departLane="free"/>
  <flow id="JF54425" begin="240" fromJunction="J4" toJunction="J3" end="300" vehsPerHour="4.451893879144049" departLane="free"/>
  <flow id="JF54426" begin="240" fromJunction="J4" toJunction="J0" end="300" vehsPerHour="13.380000624492245" departLane="free"/>
  <flow id="JF54427" begin="240" fromJunction="J7" toJunction="J3" end="300" vehsPerHour="25.683859771863958" departLane="free"/>
  <flow id="JF54428" begin="240" fromJunction="J7" toJunction="J0" end="300" vehsPerHour="1.8925190784746213" departLane="free"/>
  <flow id="JF54429" begin="240" fromJunction="J6" toJunction="J3" end="300" vehsPerHour="2.761285726079362" departLane="free"/>
  <flow id="JF54430" begin="240" fromJunction="J6" toJunction="J0" end="300" vehsPerHour="20.31182010672883" departLane="free"/>
  <flow id="JF54431" begin="240" fromJunction="J5" toJunction="J3" end="300" vehsPerHour="4.385151579724114" departLane="free"/>
  <flow id="JF54432" begin="240" fromJunction="J5" toJunction="J0" end="300" vehsPerHour="3.274494227994914" departLane="free"/>
  <flow id="JF54433" begin="300" fromJunction="J3" toJunction="J0" end="360" vehsPerHour="187.62316548284386" departLane="free"/>
  <flow id="JF54434" begin="300" fromJunction="J0" toJunction="J3" end="360" vehsPerHour="279.55258452118477" departLane="free"/>
  <flow id="JF54435" begin="300" fromJunction="J3" toJunction="J4" end="360" vehsPerHour="59.45484518118755" departLane="free"/>
  <flow id="JF54436" begin="300" fromJunction="J3" toJunction="J7" end="360" vehsPerHour="121.10905164601783" departLane="free"/>
  <flow id="JF54437" begin="300" fromJunction="J3" toJunction="J6" end="360" vehsPerHour="114.96573897723358" departLane="free"/>
  <flow id="JF54438" begin="300" fromJunction="J3" toJunction="J5" end="360" vehsPerHour="2.71160917594072" departLane="free"/>
  <flow id="JF54439" begin="300" fromJunction="J0" toJunction="J4" end="360" vehsPerHour="119.19374340521806" departLane="free"/>
  <flow id="JF54440" begin="300" fromJunction="J0" toJunction="J7" end="360" vehsPerHour="50.219130517342876" departLane="free"/>
  <flow id="JF54441" begin="300" fromJunction="J0" toJunction="J6" end="360" vehsPerHour="87.65413847680443" departLane="free"/>
  <flow id="JF54442" begin="300" fromJunction="J0" toJunction="J5" end="360" vehsPerHour="8.711987561346874" departLane="free"/>
  <flow id="JF54443" begin="300" fromJunction="J4" toJunction="J7" end="360" vehsPerHour="58.97262415022571" departLane="free"/>
  <flow id="JF54444" begin="300" fromJunction="J4" toJunction="J6" end="360" vehsPerHour="7.556085993298852" departLane="free"/>
  <flow id="JF54445" begin="300" fromJunction="J4" toJunction="J5" end="360" vehsPerHour="37.06039580475131" departLane="free"/>
  <flow id="JF54446" begin="300" fromJunction="J7" toJunction="J4" end="360" vehsPerHour="8.768608228114298" departLane="free"/>
  <flow id="JF54447" begin="300" fromJunction="J7" toJunction="J6" end="360" vehsPerHour="33.96644053277672" departLane="free"/>
  <flow id="JF54448" begin="300" fromJunction="J7" toJunction="J5" end="360" vehsPerHour="5.954823948558956" departLane="free"/>
  <flow id="JF54449" begin="300" fromJunction="J6" toJunction="J4" end="360" vehsPerHour="20.964922041810784" departLane="free"/>
  <flow id="JF54450" begin="300" fromJunction="J6" toJunction="J7" end="360" vehsPerHour="45.824985309603" departLane="free"/>
  <flow id="JF54451" begin="300" fromJunction="J6" toJunction="J5" end="360" vehsPerHour="6.793526726338595" departLane="free"/>
  <flow id="JF54452" begin="300" fromJunction="J5" toJunction="J4" end="360" vehsPerHour="8.168869800615408" departLane="free"/>
  <flow id="JF54453" begin="300" fromJunction="J5" toJunction="J7" end="360" vehsPerHour="61.845926484438706" departLane="free"/>
  <flow id="JF54454" begin="300" fromJunction="J5" toJunction="J6" end="360" vehsPerHour="54.83525125308648" departLane="free"/>
  <flow id="JF54455" begin="300" fromJunction="J4" toJunction="J3" end="360" vehsPerHour="23.664511880128398" departLane="free"/>
  <flow id="JF54456" begin="300" fromJunction="J4" toJunction="J0" end="360" vehsPerHour="24.80506190106603" departLane="free"/>
  <flow id="JF54457" begin="300" fromJunction="J7" toJunction="J3" end="360" vehsPerHour="0.2774761286289106" departLane="free"/>
  <flow id="JF54458" begin="300" fromJunction="J7" toJunction="J0" end="360" vehsPerHour="15.452727612086994" departLane="free"/>
  <flow id="JF54459" begin="300" fromJunction="J6" toJunction="J3" end="360" vehsPerHour="16.263126431302172" departLane="free"/>
  <flow id="JF54460" begin="300" fromJunction="J6" toJunction="J0" end="360" vehsPerHour="17.53266227974978" departLane="free"/>
  <flow id="JF54461" begin="300" fromJunction="J5" toJunction="J3" end="360" vehsPerHour="18.368582055554597" departLane="free"/>
  <flow id="JF54462" begin="300" fromJunction="J5" toJunction="J0" end="360" vehsPerHour="25.76252251542969" departLane="free"/>
  <flow id="JF54463" begin="360" fromJunction="J3" toJunction="J0" end="420" vehsPerHour="51.125126894434224" departLane="free"/>
  <flow id="JF54464" begin="360" fromJunction="J0" toJunction="J3" end="420" vehsPerHour="327.0955666571944" departLane="free"/>
  <flow id="JF54465" begin="360" fromJunction="J3" toJunction="J4" end="420" vehsPerHour="15.030488966693419" departLane="free"/>
  <flow id="JF54466" begin="360" fromJunction="J3" toJunction="J7" end="420" vehsPerHour="57.752484035475455" departLane="free"/>
  <flow id="JF54467" begin="360" fromJunction="J3" toJunction="J6" end="420" vehsPerHour="8.489009525598687" departLane="free"/>
  <flow id="JF54468" begin="360" fromJunction="J3" toJunction="J5" end="420" vehsPerHour="56.56865606338112" departLane="free"/>
  <flow id="JF54469" begin="360" fromJunction="J0" toJunction="J4" end="420" vehsPerHour="20.332401679378062" departLane="free"/>
  <flow id="JF54470" begin="360" fromJunction="J0" toJunction="J7" end="420" vehsPerHour="78.19278788411772" departLane="free"/>
  <flow id="JF54471" begin="360" fromJunction="J0" toJunction="J6" end="420" vehsPerHour="29.536280443452874" departLane="free"/>
  <flow id="JF54472" begin="360" fromJunction="J0" toJunction="J5" end="420" vehsPerHour="14.864907693371022" departLane="free"/>
  <flow id="JF54473" begin="420" fromJunction="J3" toJunction="J0" end="480" vehsPerHour="7.011357731779818" departLane="free"/>
  <flow id="JF54474" begin="420" fromJunction="J0" toJunction="J3" end="480" vehsPerHour="261.4093506210943" departLane="free"/>
  <flow id="JF54475" begin="420" fromJunction="J3" toJunction="J4" end="480" vehsPerHour="93.06707293224683" departLane="free"/>
  <flow id="JF54476" begin="420" fromJunction="J3" toJunction="J7" end="480" vehsPerHour="33.99322606957653" departLane="free"/>
  <flow id="JF54477" begin="420" fromJunction="J3" toJunction="J6" end="480" vehsPerHour="113.97462286742103" departLane="free"/>
  <flow id="JF54478" begin="420" fromJunction="J3" toJunction="J5" end="480" vehsPerHour="76.45898090048692" departLane="free"/>
  <flow id="JF54479" begin="420" fromJunction="J0" toJunction="J4" end="480" vehsPerHour="68.7562915809329" departLane="free"/>
  <flow id="JF54480" begin="420" fromJunction="J0" toJunction="J7" end="480" vehsPerHour="26.908768640208933" departLane="free"/>
  <flow id="JF54481" begin="420" fromJunction="J0" toJunction="J6" end="480" vehsPerHour="29.936612295587658" departLane="free"/>
  <flow id="JF54482" begin="420" fromJunction="J0" toJunction="J5" end="480" vehsPerHour="24.975879310220776" departLane="free"/>
  <flow id="JF54483" begin="420" fromJunction="J4" toJunction="J7" end="480" vehsPerHour="43.8872995181536" departLane="free"/>
  <flow id="JF54484" begin="420" fromJunction="J4" toJunction="J6" end="480" vehsPerHour="57.076568643896444" departLane="free"/>
  <flow id="JF54485" begin="420" fromJunction="J4" toJunction="J5" end="480" vehsPerHour="48.16634579346252" departLane="free"/>
  <flow id="JF54486" begin="420" fromJunction="J7" toJunction="J4" end="480" vehsPerHour="18.85018736603195" departLane="free"/>
  <flow id="JF54487" begin="420" fromJunction="J7" toJunction="J6" end="480" vehsPerHour="31.614676809996265" departLane="free"/>
  <flow id="JF54488" begin="420" fromJunction="J7" toJunction="J5" end="480" vehsPerHour="22.160623141593067" departLane="free"/>
  <flow id="JF54489" begin="420" fromJunction="J6" toJunction="J4" end="480" vehsPerHour="14.26968265499776" departLane="free"/>
  <flow id="JF54490" begin="420" fromJunction="J6" toJunction="J7" end="480" vehsPerHour="38.26799118730988" departLane="free"/>
  <flow id="JF54491" begin="420" fromJunction="J6" toJunction="J5" end="480" vehsPerHour="22.13126375103892" departLane="free"/>
  <flow id="JF54492" begin="420" fromJunction="J5" toJunction="J4" end="480" vehsPerHour="32.360129376568985" departLane="free"/>
  <flow id="JF54493" begin="420" fromJunction="J5" toJunction="J7" end="480" vehsPerHour="0.5523601801283681" departLane="free"/>
  <flow id="JF54494" begin="420" fromJunction="J5" toJunction="J6" end="480" vehsPerHour="54.53675189883917" departLane="free"/>
  <flow id="JF54495" begin="420" fromJunction="J4" toJunction="J3" end="480" vehsPerHour="31.492852179778716" departLane="free"/>
  <flow id="JF54496" begin="420" fromJunction="J4" toJunction="J0" end="480" vehsPerHour="11.461510406323836" departLane="free"/>
  <flow id="JF54497" begin="420" fromJunction="J7" toJunction="J3" end="480" vehsPerHour="22.421973971606157" departLane="free"/>
  <flow id="JF54498" begin="420" fromJunction="J7" toJunction="J0" end="480" vehsPerHour="1.3686059321323563" departLane="free"/>
  <flow id="JF54499" begin="420" fromJunction="J6" toJunction="J3" end="480" vehsPerHour="16.16562292507491" departLane="free"/>
  <flow id="JF54500" begin="420" fromJunction="J6" toJunction="J0" end="480" vehsPerHour="34.04545150539115" departLane="free"/>
  <flow id="JF54501" begin="420" fromJunction="J5" toJunction="J3" end="480" vehsPerHour="26.05737833595468" departLane="free"/>
  <flow id="JF54502" begin="420" fromJunction="J5" toJunction="J0" end="480" vehsPerHour="30.429183915440518" departLane="free"/>
  <flow id="JF54503" begin="480" fromJunction="J3" toJunction="J0" end="540" vehsPerHour="7.121028833686439" departLane="free"/>
  <flow id="JF54504" begin="480" fromJunction="J0" toJunction="J3" end="540" vehsPerHour="446.53204105612036" departLane="free"/>
  <flow id="JF54505" begin="480" fromJunction="J3" toJunction="J4" end="540" vehsPerHour="21.310553545528162" departLane="free"/>
  <flow id="JF54506" begin="480" fromJunction="J3" toJunction="J7" end="540" vehsPerHour="61.759753625393785" departLane="free"/>
  <flow id="JF54507" begin="480" fromJunction="J3" toJunction="J6" end="540" vehsPerHour="67.10136903446276" departLane="free"/>
  <flow id="JF54508" begin="480" fromJunction="J3" toJunction="J5" end="540" vehsPerHour="106.1463566479082" departLane="free"/>
  <flow id="JF54509" begin="480" fromJunction="J0" toJunction="J4" end="540" vehsPerHour="25.210923948252375" departLane="free"/>
  <flow id="JF54510" begin="480" fromJunction="J0" toJunction="J7" end="540" vehsPerHour="115.78015757388111" departLane="free"/>
  <flow id="JF54511" begin="480" fromJunction="J0" toJunction="J6" end="540" vehsPerHour="90.37326311620689" departLane="free"/>
  <flow id="JF54512" begin="480" fromJunction="J0" toJunction="J5" end="540" vehsPerHour="126.75972876914979" departLane="free"/>
  <flow id="JF54513" begin="480" fromJunction="J4" toJunction="J7" end="540" vehsPerHour="36.49865949372365" departLane="free"/>
  <flow id="JF54514" begin="480" fromJunction="J4" toJunction="J6" end="540" vehsPerHour="26.412826827446892" departLane="free"/>
  <flow id="JF54515" begin="480" fromJunction="J4" toJunction="J5" end="540" vehsPerHour="46.63947206929414" departLane="free"/>
  <flow id="JF54516" begin="480" fromJunction="J7" toJunction="J4" end="540" vehsPerHour="17.811138993835357" departLane="free"/>
  <flow id="JF54517" begin="480" fromJunction="J7" toJunction="J6" end="540" vehsPerHour="0.12150262367320618" departLane="free"/>
  <flow id="JF54518" begin="480" fromJunction="J7" toJunction="J5" end="540" vehsPerHour="26.67364397135207" departLane="free"/>
  <flow id="JF54519" begin="480" fromJunction="J6" toJunction="J4" end="540" vehsPerHour="13.595589400543307" departLane="free"/>
  <flow id="JF54520" begin="480" fromJunction="J6" toJunction="J7" end="540" vehsPerHour="68.30916406086955" departLane="free"/>
  <flow id="JF54521" begin="480" fromJunction="J6" toJunction="J5" end="540" vehsPerHour="14.125260804038517" departLane="free"/>
  <flow id="JF54522" begin="480" fromJunction="J5" toJunction="J4" end="540" vehsPerHour="10.846231234040369" departLane="free"/>
  <flow id="JF54523" begin="480" fromJunction="J5" toJunction="J7" end="540" vehsPerHour="35.730183177072355" departLane="free"/>
  <flow id="JF54524" begin="480" fromJunction="J5" toJunction="J6" end="540" vehsPerHour="10.097391246712434" departLane="free"/>
  <flow id="JF54525" begin="480" fromJunction="J4" toJunction="J3" end="540" vehsPerHour="25.947157702913795" departLane="free"/>
  <flow id="JF54526" begin="480" fromJunction="J4" toJunction="J0" end="540" vehsPerHour="15.605609805959444" departLane="free"/>
  <flow id="JF54527" begin="480" fromJunction="J7" toJunction="J3" end="540" vehsPerHour="31.6426431794731" departLane="free"/>
  <flow id="JF54528" begin="480" fromJunction="J7" toJunction="J0" end="540" vehsPerHour="21.315740796811994" departLane="free"/>
  <flow id="JF54529" begin="480" fromJunction="J6" toJunction="J3" end="540" vehsPerHour="5.644264968386768" departLane="free"/>
  <flow id="JF54530" begin="480" fromJunction="J6" toJunction="J0" end="540" vehsPerHour="16.98597740136912" departLane="free"/>
  <flow id="JF54531" begin="480" fromJunction="J5" toJunction="J3" end="540" vehsPerHour="12.796229334174422" departLane="free"/>
  <flow id="JF54532" begin="480" fromJunction="J5" toJunction="J0" end="540" vehsPerHour="10.507782421568058" departLane="free"/>
  <flow id="JF54533" begin="540" fromJunction="J3" toJunction="J0" end="600" vehsPerHour="99.10409804330365" departLane="free"/>