<?xml version="1.0" encoding="UTF-8"?>
<routes xmlns:xsi="http://www.w3.org/2001/XMLSchema-instance" xsi:noNamespaceSchemaLocation="http://sumo.dlr.de/xsd/routes_file.xsd">
  <flow id="JF43355" begin="0" fromJunction="J0" toJunction="J3" end="60" vehsPerHour="19.21526752604627" departLane="free"/>
  <flow id="JF43356" begin="0" fromJunction="J0" toJunction="J6" end="60" vehsPerHour="121.47256430631434" departLane="free"/>
  <flow id="JF43357" begin="0" fromJunction="J0" toJunction="J7" end="60" vehsPerHour="58.633307299130855" departLane="free"/>
  <flow id="JF43358" begin="0" fromJunction="J3" toJunction="J0" end="60" vehsPerHour="133.89225305290302" departLane="free"/>
  <flow id="JF43359" begin="0" fromJunction="J3" toJunction="J4" end="60" vehsPerHour="120.82199637577942" departLane="free"/>
  <flow id="JF43360" begin="0" fromJunction="J3" toJunction="J6" end="60" vehsPerHour="97.86397831296169" departLane="free"/>
  <flow id="JF43361" begin="0" fromJunction="J4" toJunction="J3" end="60" vehsPerHour="2.006653040888856" departLane="free"/>
  <flow id="JF43362" begin="0" fromJunction="J4" toJunction="J5" end="60" vehsPerHour="9.980695809525681" departLane="free"/>
  <flow id="JF43363" begin="0" fromJunction="J4" toJunction="J6" end="60" vehsPerHour="15.405804758207834" departLane="free"/>
  <flow id="JF43364" begin="0" fromJunction="J4" toJunction="J7" end="60" vehsPerHour="21.335793151590064" departLane="free"/>
  <flow id="JF43365" begin="0" fromJunction="J5" toJunction="J3" end="60" vehsPerHour="68.61255941283046" departLane="free"/>
  <flow id="JF43366" begin="0" fromJunction="J5" toJunction="J7" end="60" vehsPerHour="30.513152623734197" departLane="free"/>
  <flow id="JF43367" begin="0" fromJunction="J6" toJunction="J0" end="60" vehsPerHour="52.39508097560118" departLane="free"/>
  <flow id="JF43368" begin="0" fromJunction="J6" toJunction="J3" end="60" vehsPerHour="30.90339472836859" departLane="free"/>
  <flow id="JF43369" begin="0" fromJunction="J6" toJunction="J4" end="60" vehsPerHour="40.12519530418527" departLane="free"/>
  <flow id="JF43370" begin="0" fromJunction="J6" toJunction="J7" end="60" vehsPerHour="46.90915843430099" departLane="free"/>
  <flow id="JF43371" begin="0" fromJunction="J7" toJunction="J0" end="60" vehsPerHour="27.056546341600196" departLane="free"/>
  <flow id="JF43372" begin="0" fromJunction="J7" toJunction="J3" end="60" vehsPerHour="23.82288818489596" departLane="free"/>
  <flow id="JF43373" begin="0" fromJunction="J7" toJunction="J4" end="60" vehsPerHour="40.71689783928521" departLane="free"/>
  <flow id="JF43374" begin="0" fromJunction="J7" toJunction="J5" end="60" vehsPerHour="68.18150612713079" departLane="free"/>
  <flow id="JF43375" begin="0" fromJunction="J7" toJunction="J6" end="60" vehsPerHour="55.415757213121715" departLane="free"/>
  <flow id="JF43376" begin="60" fromJunction="J0" toJunction="J3" end="120" vehsPerHour="132.55237471166845" departLane="free"/>
  <flow id="JF43377" begin="60" fromJunction="J0" toJunction="J4" end="120" vehsPerHour="91.77560187688636" departLane="free"/>
  <flow id="JF43378" begin="60" fromJunction="J0" toJunction="J5" end="120" vehsPerHour="123.48453377169555" departLane="free"/>
  <flow id="JF43379" begin="60" fromJunction="J3" toJunction="J4" end="120" vehsPerHour="29.201392096016033" departLane="free"/>
  <flow id="JF43380" begin="60" fromJunction="J3" toJunction="J5" end="120" vehsPerHour="26.338142869352257" departLane="free"/>
  <flow id="JF43381" begin="60" fromJunction="J3" toJunction="J7" end="120" vehsPerHour="114.5617869796954" departLane="free"/>
  <flow id="JF43382" begin="60" fromJunction="J4" toJunction="J0" end="120" vehsPerHour="54.94817960782712" departLane="free"/>
  <flow id="JF43383" begin="60" fromJunction="J4" toJunction="J3" end="120" vehsPerHour="18.84596392717932" departLane="free"/>
  <flow id="JF43384" begin="60" fromJunction="J4" toJunction="J5" end="120" vehsPerHour="59.52450617669265" departLane="free"/>
  <flow id="JF43385" begin="60" fromJunction="J4" toJunction="J6" end="120" vehsPerHour="25.95358296804332" departLane="free"/>
  <flow id="JF43386" begin="60" fromJunction="J5" toJunction="J0" end="120" vehsPerHour="67.9227544741062" departLane="free"/>
  <flow id="JF43387" begin="60" fromJunction="J5" toJunction="J3" end="120" vehsPerHour="46.1408361733313" departLane="free"/>
  <flow id="JF43388" begin="60" fromJunction="J5" toJunction="J6" end="120" vehsPerHour="44.10462890504132" departLane="free"/>
  <flow id="JF43389" begin="60" fromJunction="J5" toJunction="J7" end="120" vehsPerHour="13.121022577359653" departLane="free"/>
  <flow id="JF43390" begin="60" fromJunction="J6" toJunction="J0" end="120" vehsPerHour="26.73319350555615" departLane="free"/>
  <flow id="JF43391" begin="60" fromJunction="J6" toJunction="J3" end="120" vehsPerHour="17.959954920088318" departLane="free"/>
  <flow id="JF43392" begin="60" fromJunction="J6" toJunction="J4" end="120" vehsPerHour="30.877127550322175" departLane="free"/>
  <flow id="JF43393" begin="60" fromJunction="J6" toJunction="J5" end="120" vehsPerHour="6.0139572319786545" departLane="free"/>
  <flow id="JF43394" begin="60" fromJunction="J6" toJunction="J7" end="120" vehsPerHour="22.92751790391986" departLane="free"/>
  <flow id="JF43395" begin="60" fromJunction="J7" toJunction="J0" end="120" vehsPerHour="12.851164391845478" departLane="free"/>
  <flow id="JF43396" begin="60" fromJunction="J7" toJunction="J3" end="120" vehsPerHour="61.589727903345654" departLane="free"/>
  <flow id="JF43397" begin="60" fromJunction="J7" toJunction="J5" end="120" vehsPerHour="12.76169789613103" departLane="free"/>
  <flow id="JF43398" begin="60" fromJunction="J7" toJunction="J6" end="120" vehsPerHour="23.63172384545378" departLane="free"/>
  <flow id="JF43399" begin="120" fromJunction="J0" toJunction="J3" end="180" vehsPerHour="131.67277338583273" departLane="free"/>
  <flow id="JF43400" begin="120" fromJunction="J0" toJunction="J4" end="180" vehsPerHour="119.66971735265169" departLane="free"/>
  <flow id="JF43401" begin="120" fromJunction="J0" toJunction="J6" end="180" vehsPerHour="91.95489744325168" departLane="free"/>
  <flow id="JF43402" begin="120" fromJunction="J3" toJunction="J4" end="180" vehsPerHour="119.4175230796392" departLane="free"/>
  <flow id="JF43403" begin="120" fromJunction="J3" toJunction="J7" end="180" vehsPerHour="52.44587663706845" departLane="free"/>
  <flow id="JF43404" begin="120" fromJunction="J4" toJunction="J0" end="180" vehsPerHour="18.09310930233433" departLane="free"/>
  <flow id="JF43405" begin="120" fromJunction="J4" toJunction="J3" end="180" vehsPerHour="64.18090447106952" departLane="free"/>
  <flow id="JF43406" begin="120" fromJunction="J4" toJunction="J5" end="180" vehsPerHour="5.994739280329725" departLane="free"/>
  <flow id="JF43407" begin="120" fromJunction="J4" toJunction="J6" end="180" vehsPerHour="42.89772644486703" departLane="free"/>
  <flow id="JF43408" begin="120" fromJunction="J4" toJunction="J7" end="180" vehsPerHour="30.863372386209818" departLane="free"/>
  <flow id="JF43409" begin="120" fromJunction="J5" toJunction="J0" end="180" vehsPerHour="0.843622304928696" departLane="free"/>
  <flow id="JF43410" begin="120" fromJunction="J5" toJunction="J3" end="180" vehsPerHour="47.137626734558516" departLane="free"/>
  <flow id="JF43411" begin="120" fromJunction="J5" toJunction="J6" end="180" vehsPerHour="49.53080968357549" departLane="free"/>
  <flow id="JF43412" begin="120" fromJunction="J5" toJunction="J7" end="180" vehsPerHour="58.34978443685484" departLane="free"/>
  <flow id="JF43413" begin="120" fromJunction="J6" toJunction="J0" end="180" vehsPerHour="44.83047506989845" departLane="free"/>
  <flow id="JF43414" begin="120" fromJunction="J6" toJunction="J4" end="180" vehsPerHour="27.336043912068224" departLane="free"/>
  <flow id="JF43415" begin="120" fromJunction="J6" toJunction="J5" end="180" vehsPerHour="62.39489748454551" departLane="free"/>
  <flow id="JF43416" begin="120" fromJunction="J6" toJunction="J7" end="180" vehsPerHour="47.28768376003375" departLane="free"/>
  <flow id="JF43417" begin="120" fromJunction="J7" toJunction="J3" end="180" vehsPerHour="61.311133222693336" departLane="free"/>
  <flow id="JF43418" begin="120" fromJunction="J7" toJunction="J4" end="180" vehsPerHour="5.078062184712356" departLane="free"/>
  <flow id="JF43419" begin="180" fromJunction="J0" toJunction="J3" end="240" vehsPerHour="106.21757098061128" departLane="free"/>
  <flow id="JF43420" begin="180" fromJunction="J0" toJunction="J4" end="240" vehsPerHour="37.19212511171828" departLane="free"/>
  <flow id="JF43421" begin="180" fromJunction="J0" toJunction="J7" end="240" vehsPerHour="13.162959217832524" departLane="free"/>
  <flow id="JF43422" begin="180" fromJunction="J3" toJunction="J5" end="240" vehsPerHour="22.700167087379366" departLane="free"/>
  <flow id="JF43423" begin="180" fromJunction="J4" toJunction="J3" end="240" vehsPerHour="34.38237602079642" departLane="free"/>
  <flow id="JF43424" begin="180" fromJunction="J4" toJunction="J5" end="240" vehsPerHour="13.036860084750153" departLane="free"/>
  <flow id="JF43425" begin="180" fromJunction="J4" toJunction="J6" end="240" vehsPerHour="39.516088815338186" departLane="free"/>
  <flow id="JF43426" begin="180" fromJunction="J4" toJunction="J7" end="240" vehsPerHour="31.424583300970205" departLane="free"/>
  <flow id="JF43427" begin="180" fromJunction="J5" toJunction="J3" end="240" vehsPerHour="49.41509189457873" departLane="free"/>
  <flow id="JF43428" begin="180" fromJunction="J5" toJunction="J6" end="240" vehsPerHour="57.38665624567325" departLane="free"/>
  <flow id="JF43429" begin="180" fromJunction="J5" toJunction="J7" end="240" vehsPerHour="26.41362589669159" departLane="free"/>
  <flow id="JF43430" begin="180" fromJunction="J6" toJunction="J0" end="240" vehsPerHour="59.58797798443837" departLane="free"/>
  <flow id="JF43431" begin="180" fromJunction="J6" toJunction="J3" end="240" vehsPerHour="42.44366879265507" departLane="free"/>
  <flow id="JF43432" begin="180" fromJunction="J6" toJunction="J5" end="240" vehsPerHour="53.98813149949912" departLane="free"/>
  <flow id="JF43433" begin="180" fromJunction="J7" toJunction="J4" end="240" vehsPerHour="10.563395710657902" departLane="free"/>
  <flow id="JF43434" begin="180" fromJunction="J7" toJunction="J5" end="240" vehsPerHour="53.77787343701458" departLane="free"/>
  <flow id="JF43435" begin="180" fromJunction="J7" toJunction="J6" end="240" vehsPerHour="64.67994820367338" departLane="free"/>
  <flow id="JF43436" begin="240" fromJunction="J0" toJunction="J3" end="300" vehsPerHour="116.90234840352883" departLane="free"/>
  <flow id="JF43437" begin="240" fromJunction="J0" toJunction="J4" end="300" vehsPerHour="58.65912660847775" departLane="free"/>
  <flow id="JF43438" begin="240" fromJunction="J0" toJunction="J6" end="300" vehsPerHour="123.19324053747347" departLane="free"/>
  <flow id="JF43439" begin="240" fromJunction="J3" toJunction="J0" end="300" vehsPerHour="18.022293236696203" departLane="free"/>
  <flow id="JF43440" begin="240" fromJunction="J3" toJunction="J4" end="300" vehsPerHour="55.71146430689368" departLane="free"/>
  <flow id="JF43441" begin="240" fromJunction="J3" toJunction="J7" end="300" vehsPerHour="33.55072828086108" departLane="free"/>
  <flow id="JF43442" begin="240" fromJunction="J4" toJunction="J0" end="300" vehsPerHour="23.64426399384961" departLane="free"/>
  <flow id="JF43443" begin="240" fromJunction="J4" toJunction="J3" end="300" vehsPerHour="29.875075870432376" departLane="free"/>
  <flow id="JF43444" begin="240" fromJunction="J4" toJunction="J6" end="300" vehsPerHour="66.99526751191844" departLane="free"/>
  <flow id="JF43445" begin="240" fromJunction="J4" toJunction="J7" end="300" vehsPerHour="16.95574565005792" departLane="free"/>
  <flow id="JF43446" begin="240" fromJunction="J5" toJunction="J3" end="300" vehsPerHour="48.90861213901671" departLane="free"/>
  <flow id="JF43447" begin="240" fromJunction="J5" toJunction="J4" end="300" vehsPerHour="31.367861783085427" departLane="free"/>
  <flow id="JF43448" begin="240" fromJunction="J5" toJunction="J6" end="300" vehsPerHour="65.20796070781752" departLane="free"/>
  <flow id="JF43449" begin="240" fromJunction="J5" toJunction="J7" end="300" vehsPerHour="16.916642426161104" departLane="free"/>
  <flow id="JF43450" begin="240" fromJunction="J6" toJunction="J0" end="300" vehsPerHour="56.20289456990666" departLane="free"/>
  <flow id="JF43451" begin="240" fromJunction="J6" toJunction="J5" end="300" vehsPerHour="1.9623788874519654" departLane="free"/>
  <flow id="JF43452" begin="240" fromJunction="J6" toJunction="J7" end="300" vehsPerHour="12.185736252463853" departLane="free"/>
  <flow id="JF43453" begin="240" fromJunction="J7" toJunction="J0" end="300" vehsPerHour="55.399690877571395" departLane="free"/>
  <flow id="JF43454" begin="240" fromJunction="J7" toJunction="J3" end="300" vehsPerHour="51.06200488093883" departLane="free"/>
  <flow id="JF43455" begin="240" fromJunction="J7" toJunction="J4" end="300" vehsPerHour="31.12590481785647" departLane="free"/>
  <flow id="JF43456" begin="300" fromJunction="J0" toJunction="J3" end="360" vehsPerHour="74.92241259978447" departLane="free"/>
  <flow id="JF43457" begin="300" fromJunction="J0" toJunction="J5" end="360" vehsPerHour="51.814049002508874" departLane="free"/>
  <flow id="JF43458" begin="300" fromJunction="J0" toJunction="J6" end="360" vehsPerHour="61.26352468711957" departLane="free"/>
  <flow id="JF43459" begin="300" fromJunction="J0" toJunction="J7" end="360" vehsPerHour="8.426961560271769" departLane="free"/>
  <flow id="JF43460" begin="300" fromJunction="J3" toJunction="J0" end="360" vehsPerHour="43.331873079034764" departLane="free"/>
  <flow id="JF43461" begin="300" fromJunction="J3" toJunction="J4" end="360" vehsPerHour="106.73644899656786" departLane="free"/>
  <flow id="JF43462" begin="300" fromJunction="J3" toJunction="J5" end="360" vehsPerHour="41.689447372726974" departLane="free"/>
  <flow id="JF43463" begin="300" fromJunction="J4" toJunction="J3" end="360" vehsPerHour="24.672020332676684" departLane="free"/>
  <flow id="JF43464" begin="300" fromJunction="J4" toJunction="J6" end="360" vehsPerHour="2.529803095800855" departLane="free"/>
  <flow id="JF43465" begin="300" fromJunction="J4" toJunction="J7" end="360" vehsPerHour="9.952901849986606" departLane="free"/>
  <flow id="JF43466" begin="300" fromJunction="J5" toJunction="J0" end="360" vehsPerHour="68.26671933540392" departLane="free"/>
  <flow id="JF43467" begin="300" fromJunction="J5" toJunction="J3" end="360" vehsPerHour="56.51770485791762" departLane="free"/>
  <flow id="JF43468" begin="300" fromJunction="J5" toJunction="J4" end="360" vehsPerHour="39.34314273378954" departLane="free"/>
  <flow id="JF43469" begin="300" fromJunction="J5" toJunction="J6" end="360" vehsPerHour="20.87537498226264" departLane="free"/>
  <flow id="JF43470" begin="300" fromJunction="J5" toJunction="J7" end="360" vehsPerHour="40.65320966190964" departLane="free"/>
  <flow id="JF43471" begin="300" fromJunction="J6" toJunction="J3" end="360" vehsPerHour="32.30318992555385" departLane="free"/>
  <flow id="JF43472" begin="300" fromJunction="J6" toJunction="J4" end="360" vehsPerHour="19.113866092635973" departLane="free"/>
  <flow id="JF43473" begin="300" fromJunction="J6" toJunction="J5" end="360" vehsPerHour="51.68600894872093" departLane="free"/>
  <flow id="JF43474" begin="300" fromJunction="J7" toJunction="J0" end="360" vehsPerHour="33.74541646622459" departLane="free"/>
  <flow id="JF43475" begin="300" fromJunction="J7" toJunction="J3" end="360" vehsPerHour="36.09069948613313" departLane="free"/>
  <flow id="JF43476" begin="300" fromJunction="J7" toJunction="J4" end="360" vehsPerHour="46.14865006319475" departLane="free"/>
  <flow id="JF43477" begin="300" fromJunction="J7" toJunction="J5" end="360" vehsPerHour="5.06039663937747" departLane="free"/>
  <flow id="JF43478" begin="300" fromJunction="J7" toJunction="J6" end="360" vehsPerHour="29.368809870823085" departLane="free"/>
  <flow id="JF43479" begin="360" fromJunction="J0" toJunction="J4" end="420" vehsPerHour="115.79082805232474" departLane="free"/>
  <flow id="JF43480" begin="360" fromJunction="J0" toJunction="J5" end="420" vehsPerHour="31.790632639019268" departLane="free"/>
  <flow id="JF43481" begin="360" fromJunction="J3" toJunction="J4" end="420" vehsPerHour="53.29217245676337" departLane="free"/>
  <flow id="JF43482" begin="360" fromJunction="J3" toJunction="J6" end="420" vehsPerHour="115.97724317074304" departLane="free"/>
  <flow id="JF43483" begin="360" fromJunction="J3" toJunction="J7" end="420" vehsPerHour="129.74649601474513" departLane="free"/>
  <flow id="JF43484" begin="360" fromJunction="J4" toJunction="J3" end="420" vehsPerHour="21.15393488533876" departLane="free"/>
  <flow id="JF43485" begin="360" fromJunction="J4" toJunction="J5" end="420" vehsPerHour="50.96806238289937" departLane="free"/>
  <flow id="JF43486" begin="360" fromJunction="J4" toJunction="J6" end="420" vehsPerHour="19.705941144598235" departLane="free"/>
  <flow id="JF43487" begin="360" fromJunction="J4" toJunction="J7" end="420" vehsPerHour="14.69985948562476" departLane="free"/>
  <flow id="JF43488" begin="360" fromJunction="J5" toJunction="J0" end="420" vehsPerHour="48.20569251305744" departLane="free"/>
  <flow id="JF43489" begin="360" fromJunction="J5" toJunction="J3" end="420" vehsPerHour="44.43191602762949" departLane="free"/>
  <flow id="JF43490" begin="360" fromJunction="J5" toJunction="J4" end="420" vehsPerHour="31.627920243765267" departLane="free"/>
  <flow id="JF43491" begin="360" fromJunction="J5" toJunction="J6" end="420" vehsPerHour="32.04905216232984" departLane="free"/>
  <flow id="JF43492" begin="360" fromJunction="J6" toJunction="J7" end="420" vehsPerHour="4.798413945768246" departLane="free"/>
  <flow id="JF43493" begin="360" fromJunction="J7" toJunction="J3" end="420" vehsPerHour="38.03491057772171" departLane="free"/>
  <flow id="JF43494" begin="360" fromJunction="J7" toJunction="J4" end="420" vehsPerHour="63.6458900466835" departLane="free"/>
  <flow id="JF43495" begin="420" fromJunction="J0" toJunction="J3" end="480" vehsPerHour="120.96973763440675" departLane="free"/>
  <flow id="JF43496" begin="420" fromJunction="J0" toJunction="J4" end="480" vehsPerHour="14.624030316709236" departLane="free"/>
  <flow id="JF43497" begin="420" fromJunction="J0" toJunction="J7" end="480" vehsPerHour="92.86995014059227" departLane="free"/>
  <flow id="JF43498" begin="420" fromJunction="J3" toJunction="J4" end="480" vehsPerHour="69.10627854348543" departLane="free"/>
  <flow id="JF43499" begin="420" fromJunction="J3" toJunction="J5" end="480" vehsPerHour="4.52668195956256" departLane="free"/>
  <flow id="JF43500" begin="420" fromJunction="J3" toJunction="J6" end="480" vehsPerHour="106.58425977947356" departLane="free"/>
  <flow id="JF43501" begin="420" fromJunction="J3" toJunction="J7" end="480" vehsPerHour="116.25728258859726" departLane="free"/>
  <flow id="JF43502" begin="420" fromJunction="J4" toJunction="J0" end="480" vehsPerHour="35.62363345882426" departLane="free"/>
  <flow id="JF43503" begin="420" fromJunction="J4" toJunction="J3" end="480" vehsPerHour="0.1189358959067248" departLane="free"/>
  <flow id="JF43504" begin="420" fromJunction="J4" toJunction="J6" end="480" vehsPerHour="61.117019978356595" departLane="free"/>
  <flow id="JF43505" begin="420" fromJunction="J4" toJunction="J7" end="480" vehsPerHour="37.950718034146554" departLane="free"/>
  <flow id="JF43506" begin="420" fromJunction="J5" toJunction="J6" end="480" vehsPerHour="17.662225844685704" departLane="free"/>
  <flow id="JF43507" begin="420" fromJunction="J5" toJunction="J7" end="480" vehsPerHour="47.05595043809894" departLane="free"/>
  <flow id="JF43508" begin="420" fromJunction="J6" toJunction="J0" end="480" vehsPerHour="24.594249423533505" departLane="free"/>
  <flow id="JF43509" begin="420" fromJunction="J6" toJunction="J3" end="480" vehsPerHour="30.65140398541064" departLane="free"/>
  <flow id="JF43510" begin="420" fromJunction="J6" toJunction="J7" end="480" vehsPerHour="44.60709909498633" departLane="free"/>
  <flow id="JF43511" begin="420" fromJunction="J7" toJunction="J3" end="480" vehsPerHour="34.92792933502189" departLane="free"/>
  <flow id="JF43512" begin="420" fromJunction="J7" toJunction="J6" end="480" vehsPerHour="50.85632813344463" departLane="free"/>
  <flow id="JF43513" begin="480" fromJunction="J0" toJunction="J3" end="540" vehsPerHour="90.80111097719116" departLane="free"/>
  <flow id="JF43514" begin="480" fromJunction="J0" toJunction="J4" end="540" vehsPerHour="54.11153851343695" departLane="free"/>
  <flow id="JF43515" begin="480" fromJunction="J0" toJunction="J5" end="540" vehsPerHour="117.6086895647211" departLane="free"/>
  <flow id="JF43516" begin="480" fromJunction="J0" toJunction="J7" end="540" vehsPerHour="103.98395902957066" departLane="free"/>
  <flow id="JF43517" begin="480" fromJunction="J3" toJunction="J0" end="540" vehsPerHour="30.750692482041245" departLane="free"/>
  <flow id="JF43518" begin="480" fromJunction="J3" toJunction="J4" end="540" vehsPerHour="91.97892771770044" departLane="free"/>
  <flow id="JF43519" begin="480" fromJunction="J3" toJunction="J5" end="540" vehsPerHour="7.686478246023059" departLane="free"/>
  <flow id="JF43520" begin="480" fromJunction="J3" toJunction="J6" end="540" vehsPerHour="74.621161950807" departLane="free"/>
  <flow id="JF43521" begin="480" fromJunction="J3" toJunction="J7" end="540" vehsPerHour="83.46693244603236" departLane="free"/>
  <flow id="JF43522" begin="480" fromJunction="J4" toJunction="J0" end="540" vehsPerHour="15.274100114716585" departLane="free"/>
  <flow id="JF43523" begin="480" fromJunction="J4" toJunction="J6" end="540" vehsPerHour="54.774219782953296" departLane="free"/>
  <flow id="JF43524" begin="480" fromJunction="J4" toJunction="J7" end="540" vehsPerHour="53.85703334541864" departLane="free"/>
  <flow id="JF43525" begin="480" fromJunction="J5" toJunction="J0" end="540" vehsPerHour="5.176239372031935" departLane="free"/>
  <flow id="JF43526" begin="480" fromJunction="J5" toJunction="J3" end="540" vehsPerHour="7.570869859526521" departLane="free"/>
  <flow id="JF43527" begin="480" fromJunction="J5" toJunction="J4" end="540" vehsPerHour="22.560564042764888" departLane="free"/>
  <flow id="JF43528" begin="480" fromJunction="J5" toJunction="J6" end="540" vehsPerHour="19.958985485620858" departLane="free"/>
  <flow id="JF43529" begin="480" fromJunction="J5" toJunction="J7" end="540" vehsPerHour="39.81701969300297" departLane="free"/>
  <flow id="JF43530" begin="480" fromJunction="J6" toJunction="J0" end="540" vehsPerHour="2.952425241435656" departLane="free"/>
  <flow id="JF43531" begin="480" fromJunction="J6" toJunction="J3" end="540" vehsPerHour="7.118723405116633" departLane="free"/>
  <flow id="JF43532" begin="480" fromJunction="J6" toJunction="J4" end="540" vehsPerHour="19.2019194795108" departLane="free"/>
  <flow id="JF43533" begin="480" fromJunction="J6" toJunction="J5" end="540" vehsPerHour="29.350559094535242" departLane="free"/>
  <flow id="JF43534" begin="480" fromJunction="J7" toJunction="J0" end="540" vehsPerHour="55.91784209985401" departLane="free"/>
  <flow id="JF43535" begin="480" fromJunction="J7" toJunction="J3" end="540" vehsPerHour="50.214979443551115" departLane="free"/>
  <flow id="JF43536" begin="480" fromJunction="J7" toJunction="J4" end="540" vehsPerHour="42.685483009384086" departLane="free"/>
  <flow id="JF43537" begin="480" fromJunction="J7" toJunction="J6" end="540" vehsPerHour="56.51436096866394" departLane="free"/>
  <flow id="JF43538" begin="540" fromJunction="J0" toJunction="J3" end="600" vehsPerHour="74.94025882483766" departLane="free"/>
  <flow id="JF43539" begin="540" fromJunction="J0" toJunction="J7" end="600" vehsPerHour="97.61150964560069" departLane="free"/>
  <flow id="JF43540" begin="540" fromJunction="J3" toJunction="J4" end="600" vehsPerHour="94.80088130210359" departLane="free"/>
  <flow id="JF43541" begin="540" fromJunction="J3" toJunction="J5" end="600" vehsPerHour="60.25286510180549" departLane="free"/>
  <flow id="JF43542" begin="540" fromJunction="J3" toJunction="J7" end="600" vehsPerHour="2.6640176749106854" departLane="free"/>
  <flow id="JF43543" begin="540" fromJunction="J4" toJunction="J0" end="600" vehsPerHour="51.11346418033459" departLane="free"/>
  <flow id="JF43544" begin="540" fromJunction="J4" toJunction="J3" end="600" vehsPerHour="30.204915168904353" departLane="free"/>
  <flow id="JF43545" begin="540" fromJunction="J4" toJunction="J5" end="600" vehsPerHour="21.910756458849463" departLane="free"/>
  <flow id="JF43546" begin="540" fromJunction="J4" toJunction="J6" end="600" vehsPerHour="8.29841151154013" departLane="free"/>
  <flow id="JF43547" begin="540" fromJunction="J4" toJunction="J7" end="600" vehsPerHour="8.608159124726352" departLane="free"/>
  <flow id="JF43548" begin="540" fromJunction="J5" toJunction="J0" end="600" vehsPerHour="46.13097745039374" departLane="free"/>
  <flow id="JF43549" begin="540" fromJunction="J5" toJunction="J4" end="600" vehsPerHour="27.092359753113893" departLane="free"/>
  <flow id="JF43550" begin="540" fromJunction="J5" toJunction="J6" end="600" vehsPerHour="38.99530238144783" departLane="free"/>
  <flow id="JF43551" begin="540" fromJunction="J6" toJunction="J0" end="600" vehsPerHour="68.46285265677278" departLane="free"/>
  <flow id="JF43552" begin="540" fromJunction="J6" toJunction="J3" end="600" vehsPerHour="41.81165743482795" departLane="free"/>
  <flow id="JF43553" begin="540" fromJunction="J6" toJunction="J4" end="600" vehsPerHour="8.08712639914615" departLane="free"/>
  <flow id="JF43554" begin="540" fromJunction="J6" toJunction="J5" end="600" vehsPerHour="54.7100379404993" departLane="free"/>
  <flow id="JF43555" begin="540" fromJunction="J6" toJunction="J7" end="600" vehsPerHour="4.406704574624398" departLane="free"/>
  <flow id="JF43556" begin="540" fromJunction="J7" toJunction="J0" end="600" vehsPerHour="42.053552184027076" departLane="free"/>
  <flow id="JF43557" begin="540" fromJunction="J7" toJunction="J3" end="600" vehsPerHour="16.94717949897873" departLane="free"/>
  <flow id="JF43558" begin="540" fromJunction="J7" toJunction="J4" end="600" vehsPerHour="65.82991907908563" departLane="free"/>
  <flow id="JF43559" begin="540" fromJunction="J7" toJunction="J5" end="600" vehsPerHour="34.71884950223622" departLane="free"/>
  <flow id="JF43560" begin="600" fromJunction="J0" toJunction="J3" end="660" vehsPerHour="111.41605357007101" departLane="free"/>
  <flow id="JF43561" begin="600" fromJunction="J0" toJunction="J4" end="660" vehsPerHour="48.67090680115807" departLane="free"/>
  <flow id="JF43562" begin="600" fromJunction="J0" toJunction="J6" end="660" vehsPerHour="31.23113414291451" departLane="free"/>
  <flow id="JF43563" begin="600" fromJunction="J0" toJunction="J7" end="660" vehsPerHour="45.6498892512877" departLane="free"/>
  <flow id="JF43564" begin="600" fromJunction="J3" toJunction="J4" end="660" vehsPerHour="133.02112736644995" departLane="free"/>
  <flow id="JF43565" begin="600" fromJunction="J3" toJunction="J6" end="660" vehsPerHour="80.57853593182232" departLane="free"/>
  <flow id="JF43566" begin="600" fromJunction="J4" toJunction="J5" end="660" vehsPerHour="9.305644840890684" departLane="free"/>
  <flow id="JF43567" begin="600" fromJunction="J4" toJunction="J6" end="660" vehsPerHour="18.244060413599616" departLane="free"/>
  <flow id="JF43568" begin="600" fromJunction="J5" toJunction="J0" end="660" vehsPerHour="10.34462500995895" departLane="free"/>
  <flow id="JF43569" begin="600" fromJunction="J5" toJunction="J3" end="660" vehsPerHour="5.031886396678833" departLane="free"/>
  <flow id="JF43570" begin="600" fromJunction="J5" toJunction="J4" end="660" vehsPerHour="15.725193031796737" departLane="free"/>
  <flow id="JF43571" begin="600" fromJunction="J5" toJunction="J7" end="660" vehsPerHour="10.849220959779652" departLane="free"/>
  <flow id="JF43572" begin="600" fromJunction="J6" toJunction="J0" end="660" vehsPerHour="35.28642618465382" departLane="free"/>
  <flow id="JF43573" begin="600" fromJunction="J6" toJunction="J5" end="660" vehsPerHour="6.5302627127488995" departLane="free"/>
  <flow id="JF43574" begin="600" fromJunction="J6" toJunction="J7" end="660" vehsPerHour="38.43900120028424" departLane="free"/>
  <flow id="JF43575" begin="600" fromJunction="J7" toJunction="J0" end="660" vehsPerHour="27.48295555064388" departLane="free"/>
  <flow id="JF43576" begin="600" fromJunction="J7" toJunction="J3" end="660" vehsPerHour="39.666659873604615" departLane="free"/>
  <flow id="JF43577" begin="600" fromJunction="J7" toJunction="J4" end="660" vehsPerHour="1.3672676512244066" departLane="free"/>
  <flow id="JF43578" begin="600" fromJunction="J7" toJunction="J6" end="660" vehsPerHour="7.698217763387932" departLane="free"/>
  <flow id="JF43579" begin="660" fromJunction="J0" toJunction="J3" end="720" vehsPerHour="114.93136020429333" departLane="free"/>
  <flow id="JF43580" begin="660" fromJunction="J0" toJunction="J4" end="720" vehsPerHour="116.48581473128925" departLane="free"/>
  <flow id="JF43581" begin="660" fromJunction="J0" toJunction="J5" end="720" vehsPerHour="105.27378791725413" departLane="free"/>
  <flow id="JF43582" begin="660" fromJunction="J0" toJunction="J6" end="720" vehsPerHour="19.452645081948344" departLane="free"/>
  <flow id="JF43583" begin="660" fromJunction="J3" toJunction="J0" end="720" vehsPerHour="127.21791491954748" departLane="free"/>
  <flow id="JF43584" begin="660" fromJunction="J3" toJunction="J5" end="720" vehsPerHour="114.3975389598363" departLane="free"/>
  <flow id="JF43585" begin="660" fromJunction="J3" toJunction="J6" end="720" vehsPerHour="119.86238948724194" departLane="free"/>