<?xml version="1.0" encoding="UTF-8"?>
<routes xmlns:xsi="http://www.w3.org/2001/XMLSchema-instance" xsi:noNamespaceSchemaLocation="http://sumo.dlr.de/xsd/routes_file.xsd">
  <flow id="JF3527" begin="0" fromJunction="J0" toJunction="J3" end="360" vehsPerHour="105.62405404866345" departLane="free" arrivalSpeed="0.0"/>
  <flow id="JF3528" begin="0" fromJunction="J0" toJunction="J4" end="360" vehsPerHour="91.4052051683982" departLane="free" arrivalSpeed="0.0"/>
  <flow id="JF3529" begin="0" fromJunction="J0" toJunction="J5" end="360" vehsPerHour="44.727706183239825" departLane="free" arrivalSpeed="0.0"/>
  <flow id="JF3530" begin="0" fromJunction="J0" toJunction="J6" end="360" vehsPerHour="87.73934026997196" departLane="free" arrivalSpeed="0.0"/>
  <flow id="JF3531" begin="0" fromJunction="J0" toJunction="J7" end="360" vehsPerHour="5.331350482491338" departLane="free" arrivalSpeed="0.0"/>
  <flow id="JF3532" begin="0" fromJunction="J3" toJunction="J0" end="360" vehsPerHour="42.25203139418407" departLane="free" arrivalSpeed="0.0"/>
  <flow id="JF3533" begin="0" fromJunction="J3" toJunction="J4" end="360" vehsPerHour="36.14558949561429" departLane="free" arrivalSpeed="0.0"/>
  <flow id="JF3534" begin="0" fromJunction="J3" toJunction="J5" end="360" vehsPerHour="41.545764917833914" departLane="free" arrivalSpeed="0.0"/>
  <flow id="JF3535" begin="0" fromJunction="J3" toJunction="J6" end="360" vehsPerHour="59.86735711327789" departLane="free" arrivalSpeed="0.0"/>
  <flow id="JF3536" begin="0" fromJunction="J3" toJunction="J7" end="360" vehsPerHour="19.647864452042423" departLane="free" arrivalSpeed="0.0"/>
  <flow id="JF3537" begin="0" fromJunction="J4" toJunction="J0" end="360" vehsPerHour="56.762054731494175" departLane="free" arrivalSpeed="0.0"/>
  <flow id="JF3538" begin="0" fromJunction="J4" toJunction="J3" end="360" vehsPerHour="7.870651362848055" departLane="free" arrivalSpeed="0.0"/>
  <flow id="JF3539" begin="0" fromJunction="J4" toJunction="J5" end="360" vehsPerHour="51.41400031658384" departLane="free" arrivalSpeed="0.0"/>
  <flow id="JF3540" begin="0" fromJunction="J4" toJunction="J7" end="360" vehsPerHour="38.729419870222095" departLane="free" arrivalSpeed="0.0"/>
  <flow id="JF3541" begin="0" fromJunction="J5" toJunction="J0" end="360" vehsPerHour="16.349125544284117" departLane="free" arrivalSpeed="0.0"/>
  <flow id="JF3542" begin="0" fromJunction="J5" toJunction="J4" end="360" vehsPerHour="65.15427489957229" departLane="free" arrivalSpeed="0.0"/>
  <flow id="JF3543" begin="0" fromJunction="J6" toJunction="J0" end="360" vehsPerHour="13.74227426936597" departLane="free" arrivalSpeed="0.0"/>
  <flow id="JF3544" begin="0" fromJunction="J6" toJunction="J3" end="360" vehsPerHour="15.29063553439337" departLane="free" arrivalSpeed="0.0"/>
  <flow id="JF3545" begin="0" fromJunction="J6" toJunction="J7" end="360" vehsPerHour="31.94983328553433" departLane="free" arrivalSpeed="0.0"/>
  <flow id="JF3546" begin="0" fromJunction="J7" toJunction="J0" end="360" vehsPerHour="49.17983680445796" departLane="free" arrivalSpeed="0.0"/>
  <flow id="JF3547" begin="0" fromJunction="J7" toJunction="J4" end="360" vehsPerHour="8.388370033968481" departLane="free" arrivalSpeed="0.0"/>
  <flow id="JF3548" begin="0" fromJunction="J7" toJunction="J6" end="360" vehsPerHour="46.61607608208168" departLane="free" arrivalSpeed="0.0"/>
  <flow id="JF3549" begin="360" fromJunction="J0" toJunction="J3" end="720" vehsPerHour="98.6205858889633" departLane="free" arrivalSpeed="0.0"/>
  <flow id="JF3550" begin="360" fromJunction="J0" toJunction="J6" end="720" vehsPerHour="57.34247195858768" departLane="free" arrivalSpeed="0.0"/>
  <flow id="JF3551" begin="360" fromJunction="J0" toJunction="J7" end="720" vehsPerHour="112.81145784226568" departLane="free" arrivalSpeed="0.0"/>
  <flow id="JF3552" begin="360" fromJunction="J3" toJunction="J0" end="720" vehsPerHour="93.14181393558381" departLane="free" arrivalSpeed="0.0"/>
  <flow id="JF3553" begin="360" fromJunction="J3" toJunction="J5" end="720" vehsPerHour="60.71835507821088" departLane="free" arrivalSpeed="0.0"/>
  <flow id="JF3554" begin="360" fromJunction="J4" toJunction="J5" end="720" vehsPerHour="47.13287827139386" departLane="free" arrivalSpeed="0.0"/>
  <flow id="JF3555" begin="360" fromJunction="J4" toJunction="J7" end="720" vehsPerHour="34.305361674739736" departLane="free" arrivalSpeed="0.0"/>
  <flow id="JF3556" begin="360" fromJunction="J5" toJunction="J0" end="720" vehsPerHour="20.43096893250609" departLane="free" arrivalSpeed="0.0"/>
  <flow id="JF3557" begin="360" fromJunction="J5" toJunction="J3" end="720" vehsPerHour="29.56295378650086" departLane="free" arrivalSpeed="0.0"/>
  <flow id="JF3558" begin="360" fromJunction="J5" toJunction="J4" end="720" vehsPerHour="48.397945929713785" departLane="free" arrivalSpeed="0.0"/>
  <flow id="JF3559" begin="360" fromJunction="J5" toJunction="J6" end="720" vehsPerHour="68.14923667279717" departLane="free" arrivalSpeed="0.0"/>
  <flow id="JF3560" begin="360" fromJunction="J6" toJunction="J3" end="720" vehsPerHour="57.89233054610305" departLane="free" arrivalSpeed="0.0"/>
  <flow id="JF3561" begin="360" fromJunction="J6" toJunction="J4" end="720" vehsPerHour="59.16564675048789" departLane="free" arrivalSpeed="0.0"/>
  <flow id="JF3562" begin="360" fromJunction="J6" toJunction="J5" end="720" vehsPerHour="11.149857319558667" departLane="free" arrivalSpeed="0.0"/>
  <flow id="JF3563" begin="360" fromJunction="J6" toJunction="J7" end="720" vehsPerHour="64.70614308101044" departLane="free" arrivalSpeed="0.0"/>
  <flow id="JF3564" begin="360" fromJunction="J7" toJunction="J0" end="720" vehsPerHour="61.717747478148056" departLane="free" arrivalSpeed="0.0"/>
  <flow id="JF3565" begin="360" fromJunction="J7" toJunction="J6" end="720" vehsPerHour="66.88105609175982" departLane="free" arrivalSpeed="0.0"/>
  <flow id="JF3566" begin="720" fromJunction="J0" toJunction="J3" end="1080" vehsPerHour="42.647974136946786" departLane="free" arrivalSpeed="0.0"/>
  <flow id="JF3567" begin="720" fromJunction="J0" toJunction="J4" end="1080" vehsPerHour="89.69475921765613" departLane="free" arrivalSpeed="0.0"/>
  <flow id="JF3568" begin="720" fromJunction="J0" toJunction="J6" end="1080" vehsPerHour="27.33852643519237" departLane="free" arrivalSpeed="0.0"/>
  <flow id="JF3569" begin="720" fromJunction="J3" toJunction="J4" end="1080" vehsPerHour="88.40516201410922" departLane="free" arrivalSpeed="0.0"/>
  <flow id="JF3570" begin="720" fromJunction="J3" toJunction="J5" end="1080" vehsPerHour="113.41864262279363" departLane="free" arrivalSpeed="0.0"/>
  <flow id="JF3571" begin="720" fromJunction="J3" toJunction="J6" end="1080" vehsPerHour="51.243990585103255" departLane="free" arrivalSpeed="0.0"/>
  <flow id="JF3572" begin="720" fromJunction="J4" toJunction="J0" end="1080" vehsPerHour="17.720999055540737" departLane="free" arrivalSpeed="0.0"/>
  <flow id="JF3573" begin="720" fromJunction="J4" toJunction="J3" end="1080" vehsPerHour="35.49343925285359" departLane="free" arrivalSpeed="0.0"/>
  <flow id="JF3574" begin="720" fromJunction="J4" toJunction="J5" end="1080" vehsPerHour="46.089659440594836" departLane="free" arrivalSpeed="0.0"/>
  <flow id="JF3575" begin="720" fromJunction="J4" toJunction="J7" end="1080" vehsPerHour="49.4830497004164" departLane="free" arrivalSpeed="0.0"/>
  <flow id="JF3576" begin="720" fromJunction="J5" toJunction="J3" end="1080" vehsPerHour="28.87859127513447" departLane="free" arrivalSpeed="0.0"/>
  <flow id="JF3577" begin="720" fromJunction="J6" toJunction="J0" end="1080" vehsPerHour="29.555096443560945" departLane="free" arrivalSpeed="0.0"/>
  <flow id="JF3578" begin="720" fromJunction="J6" toJunction="J3" end="1080" vehsPerHour="36.45358414292633" departLane="free" arrivalSpeed="0.0"/>
  <flow id="JF3579" begin="720" fromJunction="J6" toJunction="J4" end="1080" vehsPerHour="64.26141472608266" departLane="free" arrivalSpeed="0.0"/>
  <flow id="JF3580" begin="720" fromJunction="J6" toJunction="J5" end="1080" vehsPerHour="4.693949529090444" departLane="free" arrivalSpeed="0.0"/>
  <flow id="JF3581" begin="720" fromJunction="J7" toJunction="J0" end="1080" vehsPerHour="11.514178583751537" departLane="free" arrivalSpeed="0.0"/>
  <flow id="JF3582" begin="720" fromJunction="J7" toJunction="J4" end="1080" vehsPerHour="8.884531715796022" departLane="free" arrivalSpeed="0.0"/>
  <flow id="JF3583" begin="720" fromJunction="J7" toJunction="J5" end="1080" vehsPerHour="53.118964329332506" departLane="free" arrivalSpeed="0.0"/>
  <flow id="JF3584" begin="1080" fromJunction="J0" toJunction="J3" end="1440" vehsPerHour="131.56560576133384" departLane="free" arrivalSpeed="0.0"/>
  <flow id="JF3585" begin="1080" fromJunction="J0" toJunction="J5" end="1440" vehsPerHour="50.55217995853644" departLane="free" arrivalSpeed="0.0"/>
  <flow id="JF3586" begin="1080" fromJunction="J0" toJunction="J7" end="1440" vehsPerHour="83.33242648465381" departLane="free" arrivalSpeed="0.0"/>
  <flow id="JF3587" begin="1080" fromJunction="J3" toJunction="J0" end="1440" vehsPerHour="101.90010417475607" departLane="free" arrivalSpeed="0.0"/>
  <flow id="JF3588" begin="1080" fromJunction="J3" toJunction="J4" end="1440" vehsPerHour="95.96227930492215" departLane="free" arrivalSpeed="0.0"/>
  <flow id="JF3589" begin="1080" fromJunction="J3" toJunction="J6" end="1440" vehsPerHour="33.655891044954465" departLane="free" arrivalSpeed="0.0"/>
  <flow id="JF3590" begin="1080" fromJunction="J4" toJunction="J0" end="1440" vehsPerHour="64.80664688819573" departLane="free" arrivalSpeed="0.0"/>
  <flow id="JF3591" begin="1080" fromJunction="J4" toJunction="J5" end="1440" vehsPerHour="30.473695400937455" departLane="free" arrivalSpeed="0.0"/>
  <flow id="JF3592" begin="1080" fromJunction="J4" toJunction="J6" end="1440" vehsPerHour="50.35399141618427" departLane="free" arrivalSpeed="0.0"/>
  <flow id="JF3593" begin="1080" fromJunction="J4" toJunction="J7" end="1440" vehsPerHour="22.826408415575024" departLane="free" arrivalSpeed="0.0"/>
  <flow id="JF3594" begin="1080" fromJunction="J5" toJunction="J0" end="1440" vehsPerHour="28.10878705469406" departLane="free" arrivalSpeed="0.0"/>
  <flow id="JF3595" begin="1080" fromJunction="J5" toJunction="J3" end="1440" vehsPerHour="42.575626185833435" departLane="free" arrivalSpeed="0.0"/>
  <flow id="JF3596" begin="1080" fromJunction="J5" toJunction="J4" end="1440" vehsPerHour="28.521980630788864" departLane="free" arrivalSpeed="0.0"/>
  <flow id="JF3597" begin="1080" fromJunction="J6" toJunction="J0" end="1440" vehsPerHour="41.8508981650069" departLane="free" arrivalSpeed="0.0"/>
  <flow id="JF3598" begin="1080" fromJunction="J6" toJunction="J5" end="1440" vehsPerHour="36.99987445549555" departLane="free" arrivalSpeed="0.0"/>
  <flow id="JF3599" begin="1080" fromJunction="J7" toJunction="J0" end="1440" vehsPerHour="8.254571988082096" departLane="free" arrivalSpeed="0.0"/>
  <flow id="JF3600" begin="1080" fromJunction="J7" toJunction="J3" end="1440" vehsPerHour="55.48082035938365" departLane="free" arrivalSpeed="0.0"/>
  <flow id="JF3601" begin="1080" fromJunction="J7" toJunction="J4" end="1440" vehsPerHour="2.4541660607996985" departLane="free" arrivalSpeed="0.0"/>
  <flow id="JF3602" begin="1080" fromJunction="J7" toJunction="J6" end="1440" vehsPerHour="46.477833950717674" departLane="free" arrivalSpeed="0.0"/>
  <flow id="JF3603" begin="1440" fromJunction="J0" toJunction="J3" end="1800" vehsPerHour="7.785435255463763" departLane="free" arrivalSpeed="0.0"/>
  <flow id="JF3604" begin="1440" fromJunction="J0" toJunction="J4" end="1800" vehsPerHour="77.78126487403095" departLane="free" arrivalSpeed="0.0"/>
  <flow id="JF3605" begin="1440" fromJunction="J0" toJunction="J5" end="1800" vehsPerHour="20.683356765272716" departLane="free" arrivalSpeed="0.0"/>
  <flow id="JF3606" begin="1440" fromJunction="J0" toJunction="J6" end="1800" vehsPerHour="115.83002945176058" departLane="free" arrivalSpeed="0.0"/>
  <flow id="JF3607" begin="1440" fromJunction="J0" toJunction="J7" end="1800" vehsPerHour="41.92840154000523" departLane="free" arrivalSpeed="0.0"/>
  <flow id="JF3608" begin="1440" fromJunction="J3" toJunction="J0" end="1800" vehsPerHour="91.13963547001939" departLane="free" arrivalSpeed="0.0"/>
  <flow id="JF3609" begin="1440" fromJunction="J3" toJunction="J4" end="1800" vehsPerHour="15.350147459067397" departLane="free" arrivalSpeed="0.0"/>
  <flow id="JF3610" begin="1440" fromJunction="J3" toJunction="J7" end="1800" vehsPerHour="13.988843621742435" departLane="free" arrivalSpeed="0.0"/>
  <flow id="JF3611" begin="1440" fromJunction="J4" toJunction="J0" end="1800" vehsPerHour="33.2034260008179" departLane="free" arrivalSpeed="0.0"/>
  <flow id="JF3612" begin="1440" fromJunction="J4" toJunction="J5" end="1800" vehsPerHour="13.091890838929826" departLane="free" arrivalSpeed="0.0"/>
  <flow id="JF3613" begin="1440" fromJunction="J4" toJunction="J7" end="1800" vehsPerHour="43.926423162426914" departLane="free" arrivalSpeed="0.0"/>
  <flow id="JF3614" begin="1440" fromJunction="J5" toJunction="J3" end="1800" vehsPerHour="10.386859992876573" departLane="free" arrivalSpeed="0.0"/>
  <flow id="JF3615" begin="1440" fromJunction="J5" toJunction="J4" end="1800" vehsPerHour="45.17466473456537" departLane="free" arrivalSpeed="0.0"/>
  <flow id="JF3616" begin="1440" fromJunction="J5" toJunction="J6" end="1800" vehsPerHour="34.58920007296561" departLane="free" arrivalSpeed="0.0"/>
  <flow id="JF3617" begin="1440" fromJunction="J5" toJunction="J7" end="1800" vehsPerHour="57.40697480889772" departLane="free" arrivalSpeed="0.0"/>
  <flow id="JF3618" begin="1440" fromJunction="J6" toJunction="J0" end="1800" vehsPerHour="39.57943108527183" departLane="free" arrivalSpeed="0.0"/>
  <flow id="JF3619" begin="1440" fromJunction="J6" toJunction="J3" end="1800" vehsPerHour="25.258039643674977" departLane="free" arrivalSpeed="0.0"/>
  <flow id="JF3620" begin="1440" fromJunction="J6" toJunction="J4" end="1800" vehsPerHour="65.32644587903498" departLane="free" arrivalSpeed="0.0"/>
  <flow id="JF3621" begin="1440" fromJunction="J6" toJunction="J5" end="1800" vehsPerHour="61.9610737721892" departLane="free" arrivalSpeed="0.0"/>
  <flow id="JF3622" begin="1440" fromJunction="J6" toJunction="J7" end="1800" vehsPerHour="29.62282752744794" departLane="free" arrivalSpeed="0.0"/>
  <flow id="JF3623" begin="1440" fromJunction="J7" toJunction="J4" end="1800" vehsPerHour="30.07050587229183" departLane="free" arrivalSpeed="0.0"/>
  <flow id="JF3624" begin="1440" fromJunction="J7" toJunction="J6" end="1800" vehsPerHour="2.900468677050122" departLane="free" arrivalSpeed="0.0"/>
  <flow id="JF3625" begin="1800" fromJunction="J0" toJunction="J4" end="2160" vehsPerHour="86.94554787790094" departLane="free" arrivalSpeed="0.0"/>
  <flow id="JF3626" begin="1800" fromJunction="J0" toJunction="J5" end="2160" vehsPerHour="114.79387561076148" departLane="free" arrivalSpeed="0.0"/>
  <flow id="JF3627" begin="1800" fromJunction="J0" toJunction="J7" end="2160" vehsPerHour="38.288316810068814" departLane="free" arrivalSpeed="0.0"/>
  <flow id="JF3628" begin="1800" fromJunction="J3" toJunction="J0" end="2160" vehsPerHour="82.63590642059914" departLane="free" arrivalSpeed="0.0"/>
  <flow id="JF3629" begin="1800" fromJunction="J3" toJunction="J5" end="2160" vehsPerHour="49.77049731336011" departLane="free" arrivalSpeed="0.0"/>
  <flow id="JF3630" begin="1800" fromJunction="J3" toJunction="J6" end="2160" vehsPerHour="63.09480530720638" departLane="free" arrivalSpeed="0.0"/>
  <flow id="JF3631" begin="1800" fromJunction="J4" toJunction="J0" end="2160" vehsPerHour="8.574048189294162" departLane="free" arrivalSpeed="0.0"/>
  <flow id="JF3632" begin="1800" fromJunction="J4" toJunction="J3" end="2160" vehsPerHour="6.466629565415014" departLane="free" arrivalSpeed="0.0"/>
  <flow id="JF3633" begin="1800" fromJunction="J4" toJunction="J5" end="2160" vehsPerHour="55.904271832609815" departLane="free" arrivalSpeed="0.0"/>
  <flow id="JF3634" begin="1800" fromJunction="J4" toJunction="J6" end="2160" vehsPerHour="20.662414764734237" departLane="free" arrivalSpeed="0.0"/>
  <flow id="JF3635" begin="1800" fromJunction="J4" toJunction="J7" end="2160" vehsPerHour="12.915392213027166" departLane="free" arrivalSpeed="0.0"/>
  <flow id="JF3636" begin="1800" fromJunction="J5" toJunction="J7" end="2160" vehsPerHour="23.923722676474764" departLane="free" arrivalSpeed="0.0"/>
  <flow id="JF3637" begin="1800" fromJunction="J6" toJunction="J0" end="2160" vehsPerHour="38.12006137363435" departLane="free" arrivalSpeed="0.0"/>
  <flow id="JF3638" begin="1800" fromJunction="J6" toJunction="J4" end="2160" vehsPerHour="43.00096864029939" departLane="free" arrivalSpeed="0.0"/>
  <flow id="JF3639" begin="1800" fromJunction="J6" toJunction="J5" end="2160" vehsPerHour="43.19585568011769" departLane="free" arrivalSpeed="0.0"/>
  <flow id="JF3640" begin="1800" fromJunction="J6" toJunction="J7" end="2160" vehsPerHour="17.719236299780313" departLane="free" arrivalSpeed="0.0"/>
  <flow id="JF3641" begin="1800" fromJunction="J7" toJunction="J4" end="2160" vehsPerHour="26.78766372775453" departLane="free" arrivalSpeed="0.0"/>
  <flow id="JF3642" begin="1800" fromJunction="J7" toJunction="J6" end="2160" vehsPerHour="0.4101785035590778" departLane="free" arrivalSpeed="0.0"/>
  <flow id="JF3643" begin="2160" fromJunction="J0" toJunction="J4" end="2520" vehsPerHour="44.528996664204946" departLane="free" arrivalSpeed="0.0"/>
  <flow id="JF3644" begin="2160" fromJunction="J0" toJunction="J5" end="2520" vehsPerHour="72.87285974692506" departLane="free" arrivalSpeed="0.0"/>
  <flow id="JF3645" begin="2160" fromJunction="J0" toJunction="J7" end="2520" vehsPerHour="39.710755588892994" departLane="free" arrivalSpeed="0.0"/>
  <flow id="JF3646" begin="2160" fromJunction="J3" toJunction="J0" end="2520" vehsPerHour="86.15857086633906" departLane="free" arrivalSpeed="0.0"/>
  <flow id="JF3647" begin="2160" fromJunction="J3" toJunction="J5" end="2520" vehsPerHour="101.77314551925483" departLane="free" arrivalSpeed="0.0"/>
  <flow id="JF3648" begin="2160" fromJunction="J3" toJunction="J6" end="2520" vehsPerHour="63.310743175104236" departLane="free" arrivalSpeed="0.0"/>
  <flow id="JF3649" begin="2160" fromJunction="J4" toJunction="J0" end="2520" vehsPerHour="5.892380163426956" departLane="free" arrivalSpeed="0.0"/>
  <flow id="JF3650" begin="2160" fromJunction="J4" toJunction="J5" end="2520" vehsPerHour="48.82940517176875" departLane="free" arrivalSpeed="0.0"/>
  <flow id="JF3651" begin="2160" fromJunction="J4" toJunction="J6" end="2520" vehsPerHour="17.178839438276025" departLane="free" arrivalSpeed="0.0"/>
  <flow id="JF3652" begin="2160" fromJunction="J4" toJunction="J7" end="2520" vehsPerHour="35.110201138945165" departLane="free" arrivalSpeed="0.0"/>
  <flow id="JF3653" begin="2160" fromJunction="J5" toJunction="J6" end="2520" vehsPerHour="18.093118838413748" departLane="free" arrivalSpeed="0.0"/>
  <flow id="JF3654" begin="2160" fromJunction="J6" toJunction="J0" end="2520" vehsPerHour="18.84423421916371" departLane="free" arrivalSpeed="0.0"/>
  <flow id="JF3655" begin="2160" fromJunction="J6" toJunction="J3" end="2520" vehsPerHour="63.64173299672547" departLane="free" arrivalSpeed="0.0"/>
  <flow id="JF3656" begin="2160" fromJunction="J6" toJunction="J5" end="2520" vehsPerHour="64.07284965790812" departLane="free" arrivalSpeed="0.0"/>
  <flow id="JF3657" begin="2160" fromJunction="J7" toJunction="J0" end="2520" vehsPerHour="4.416946517091093" departLane="free" arrivalSpeed="0.0"/>
  <flow id="JF3658" begin="2160" fromJunction="J7" toJunction="J3" end="2520" vehsPerHour="32.11683483390931" departLane="free" arrivalSpeed="0.0"/>
  <flow id="JF3659" begin="2160" fromJunction="J7" toJunction="J4" end="2520" vehsPerHour="31.975540854474602" departLane="free" arrivalSpeed="0.0"/>
  <flow id="JF3660" begin="2160" fromJunction="J7" toJunction="J5" end="2520" vehsPerHour="64.64467888207885" departLane="free" arrivalSpeed="0.0"/>
  <flow id="JF3661" begin="2160" fromJunction="J7" toJunction="J6" end="2520" vehsPerHour="26.18213697576368" departLane="free" arrivalSpeed="0.0"/>
  <flow id="JF3662" begin="2520" fromJunction="J0" toJunction="J5" end="2880" vehsPerHour="9.074629999915352" departLane="free" arrivalSpeed="0.0"/>
  <flow id="JF3663" begin="2520" fromJunction="J0" toJunction="J6" end="2880" vehsPerHour="20.342588674511404" departLane="free" arrivalSpeed="0.0"/>
  <flow id="JF3664" begin="2520" fromJunction="J0" toJunction="J7" end="2880" vehsPerHour="101.19537855515847" departLane="free" arrivalSpeed="0.0"/>
  <flow id="JF3665" begin="2520" fromJunction="J3" toJunction="J5" end="2880" vehsPerHour="31.04447461009949" departLane="free" arrivalSpeed="0.0"/>
  <flow id="JF3666" begin="2520" fromJunction="J3" toJunction="J6" end="2880" vehsPerHour="107.93003072464847" departLane="free" arrivalSpeed="0.0"/>
  <flow id="JF3667" begin="2520" fromJunction="J3" toJunction="J7" end="2880" vehsPerHour="30.682588468629902" departLane="free" arrivalSpeed="0.0"/>
  <flow id="JF3668" begin="2520" fromJunction="J4" toJunction="J0" end="2880" vehsPerHour="52.96380340641233" departLane="free" arrivalSpeed="0.0"/>
  <flow id="JF3669" begin="2520" fromJunction="J4" toJunction="J5" end="2880" vehsPerHour="10.87893119934059" departLane="free" arrivalSpeed="0.0"/>
  <flow id="JF3670" begin="2520" fromJunction="J4" toJunction="J6" end="2880" vehsPerHour="68.29988209178269" departLane="free" arrivalSpeed="0.0"/>
  <flow id="JF3671" begin="2520" fromJunction="J4" toJunction="J7" end="2880" vehsPerHour="56.40818178640003" departLane="free" arrivalSpeed="0.0"/>
  <flow id="JF3672" begin="2520" fromJunction="J5" toJunction="J0" end="2880" vehsPerHour="26.66301109607102" departLane="free" arrivalSpeed="0.0"/>
  <flow id="JF3673" begin="2520" fromJunction="J5" toJunction="J4" end="2880" vehsPerHour="11.551379465228969" departLane="free" arrivalSpeed="0.0"/>
  <flow id="JF3674" begin="2520" fromJunction="J5" toJunction="J6" end="2880" vehsPerHour="42.682785245165945" departLane="free" arrivalSpeed="0.0"/>
  <flow id="JF3675" begin="2520" fromJunction="J5" toJunction="J7" end="2880" vehsPerHour="32.56987899380022" departLane="free" arrivalSpeed="0.0"/>
  <flow id="JF3676" begin="2520" fromJunction="J6" toJunction="J3" end="2880" vehsPerHour="65.10498830592014" departLane="free" arrivalSpeed="0.0"/>
  <flow id="JF3677" begin="2520" fromJunction="J6" toJunction="J5" end="2880" vehsPerHour="29.796045112138884" departLane="free" arrivalSpeed="0.0"/>
  <flow id="JF3678" begin="2520" fromJunction="J6" toJunction="J7" end="2880" vehsPerHour="22.407156774563905" departLane="free" arrivalSpeed="0.0"/>
  <flow id="JF3679" begin="2520" fromJunction="J7" toJunction="J0" end="2880" vehsPerHour="2.3101932407957126" departLane="free" arrivalSpeed="0.0"/>
  <flow id="JF3680" begin="2520" fromJunction="J7" toJunction="J4" end="2880" vehsPerHour="12.412104969775218" departLane="free" arrivalSpeed="0.0"/>
  <flow id="JF3681" begin="2520" fromJunction="J7" toJunction="J5" end="2880" vehsPerHour="50.34950196237624" departLane="free" arrivalSpeed="0.0"/>
  <flow id="JF3682" begin="2520" fromJunction="J7" toJunction="J6" end="2880" vehsPerHour="32.07180797140082" departLane="free" arrivalSpeed="0.0"/>
  <flow id="JF3683" begin="2880" fromJunction="J0" toJunction="J3" end="3240" vehsPerHour="101.89837081892398" departLane="free" arrivalSpeed="0.0"/>
  <flow id="JF3684" begin="2880" fromJunction="J0" toJunction="J4" end="3240" vehsPerHour="4.070742381325159" departLane="free" arrivalSpeed="0.0"/>
  <flow id="JF3685" begin="2880" fromJunction="J0" toJunction="J7" end="3240" vehsPerHour="49.11374288715669" departLane="free" arrivalSpeed="0.0"/>
  <flow id="JF3686" begin="2880" fromJunction="J3" toJunction="J0" end="3240" vehsPerHour="110.18564054107135" departLane="free" arrivalSpeed="0.0"/>
  <flow id="JF3687" begin="2880" fromJunction="J3" toJunction="J4" end="3240" vehsPerHour="1.5467780495880628" departLane="free" arrivalSpeed="0.0"/>
  <flow id="JF3688" begin="2880" fromJunction="J3" toJunction="J7" end="3240" vehsPerHour="34.308335110715376" departLane="free" arrivalSpeed="0.0"/>
  <flow id="JF3689" begin="2880" fromJunction="J4" toJunction="J0" end="3240" vehsPerHour="49.02706481012947" departLane="free" arrivalSpeed="0.0"/>
  <flow id="JF3690" begin="2880" fromJunction="J4" toJunction="J3" end="3240" vehsPerHour="10.188536743810113" departLane="free" arrivalSpeed="0.0"/>
  <flow id="JF3691" begin="2880" fromJunction="J4" toJunction="J5" end="3240" vehsPerHour="15.082405312827118" departLane="free" arrivalSpeed="0.0"/>
  <flow id="JF3692" begin="2880" fromJunction="J4" toJunction="J6" end="3240" vehsPerHour="40.743999984273444" departLane="free" arrivalSpeed="0.0"/>
  <flow id="JF3693" begin="2880" fromJunction="J4" toJunction="J7" end="3240" vehsPerHour="35.54373813242872" departLane="free" arrivalSpeed="0.0"/>
  <flow id="JF3694" begin="2880" fromJunction="J5" toJunction="J3" end="3240" vehsPerHour="58.816971807250816" departLane="free" arrivalSpeed="0.0"/>
  <flow id="JF3695" begin="2880" fromJunction="J5" toJunction="J4" end="3240" vehsPerHour="59.68683516757015" departLane="free" arrivalSpeed="0.0"/>
  <flow id="JF3696" begin="2880" fromJunction="J5" toJunction="J6" end="3240" vehsPerHour="20.403566078616485" departLane="free" arrivalSpeed="0.0"/>
  <flow id="JF3697" begin="2880" fromJunction="J6" toJunction="J0" end="3240" vehsPerHour="42.39432344480258" departLane="free" arrivalSpeed="0.0"/>
  <flow id="JF3698" begin="2880" fromJunction="J6" toJunction="J3" end="3240" vehsPerHour="19.032914542329195" departLane="free" arrivalSpeed="0.0"/>
  <flow id="JF3699" begin="2880" fromJunction="J6" toJunction="J5" end="3240" vehsPerHour="57.774429731680804" departLane="free" arrivalSpeed="0.0"/>
  <flow id="JF3700" begin="2880" fromJunction="J6" toJunction="J7" end="3240" vehsPerHour="64.60534942027779" departLane="free" arrivalSpeed="0.0"/>
  <flow id="JF3701" begin="2880" fromJunction="J7" toJunction="J0" end="3240" vehsPerHour="48.287080542781645" departLane="free" arrivalSpeed="0.0"/>
  <flow id="JF3702" begin="2880" fromJunction="J7" toJunction="J3" end="3240" vehsPerHour="11.326277153853312" departLane="free" arrivalSpeed="0.0"/>
  <flow id="JF3703" begin="2880" fromJunction="J7" toJunction="J4" end="3240" vehsPerHour="2.764959664391415" departLane="free" arrivalSpeed="0.0"/>
  <flow id="JF3704" begin="3240" fromJunction="J0" toJunction="J3" end="3600" vehsPerHour="98.95974949329381" departLane="free" arrivalSpeed="0.0"/>
  <flow id="JF3705" begin="3240" fromJunction="J0" toJunction="J4" end="3600" vehsPerHour="96.79057831233679" departLane="free" arrivalSpeed="0.0"/>
  <flow id="JF3706" begin="3240" fromJunction="J0" toJunction="J5" end="3600" vehsPerHour="24.753432942366643" departLane="free" arrivalSpeed="0.0"/>
  <flow id="JF3707" begin="3240" fromJunction="J0" toJunction="J7" end="3600" vehsPerHour="107.74472082825089" departLane="free" arrivalSpeed="0.0"/>
  <flow id="JF3708" begin="3240" fromJunction="J3" toJunction="J4" end="3600" vehsPerHour="84.37395650182715" departLane="free" arrivalSpeed="0.0"/>
  <flow id="JF3709" begin="3240" fromJunction="J3" toJunction="J5" end="3600" vehsPerHour="29.45078021244985" departLane="free" arrivalSpeed="0.0"/>
  <flow id="JF3710" begin="3240" fromJunction="J3" toJunction="J6" end="3600" vehsPerHour="17.216338813443468" departLane="free" arrivalSpeed="0.0"/>
  <flow id="JF3711" begin="3240" fromJunction="J3" toJunction="J7" end="3600" vehsPerHour="14.14366462489114" departLane="free" arrivalSpeed="0.0"/>
  <flow id="JF3712" begin="3240" fromJunction="J4" toJunction="J0" end="3600" vehsPerHour="11.838189872073965" departLane="free" arrivalSpeed="0.0"/>
  <flow id="JF3713" begin="3240" fromJunction="J4" toJunction="J5" end="3600" vehsPerHour="61.91160145752221" departLane="free" arrivalSpeed="0.0"/>
  <flow id="JF3714" begin="3240" fromJunction="J4" toJunction="J6" end="3600" vehsPerHour="8.82520936002586" departLane="free" arrivalSpeed="0.0"/>
  <flow id="JF3715" begin="3240" fromJunction="J4" toJunction="J7" end="3600" vehsPerHour="14.754403700199331" departLane="free" arrivalSpeed="0.0"/>
  <flow id="JF3716" begin="3240" fromJunction="J5" toJunction="J3" end="3600" vehsPerHour="5.677333994320084" departLane="free" arrivalSpeed="0.0"/>
  <flow id="JF3717" begin="3240" fromJunction="J6" toJunction="J3" end="3600" vehsPerHour="12.995926241837191" departLane="free" arrivalSpeed="0.0"/>
  <flow id="JF3718" begin="3240" fromJunction="J6" toJunction="J7" end="3600" vehsPerHour="61.196531836970784" departLane="free" arrivalSpeed="0.0"/>
  <flow id="JF3719" begin="3240" fromJunction="J7" toJunction="J0" end="3600" vehsPerHour="68.16813017200494" departLane="free" arrivalSpeed="0.0"/>
  <flow id="JF3720" begin="3240" fromJunction="J7" toJunction="J3" end="3600" vehsPerHour="4.0807238333300635" departLane="free" arrivalSpeed="0.0"/>
  <flow id="JF3721" begin="3240" fromJunction="J7" toJunction="J4" end="3600" vehsPerHour="42.12487334199785" departLane="free" arrivalSpeed="0.0"/>
  <flow id="JF3722" begin="3240" fromJunction="J7" toJunction="J5" end="3600" vehsPerHour="47.796279242949836" departLane="free" arrivalSpeed="0.0"/>
  <flow id="JF3723" begin="3240" fromJunction="J7" toJunction="J6" end="3600" vehsPerHour="40.26209127456808" departLane="free" arrivalSpeed="0.0"/>
  <flow id="JF3724" begin="3600" fromJunction="J0" toJunction="J3" end="3960" vehsPerHour="125.44494339870019" departLane="free" arrivalSpeed="0.0"/>
  <flow id="JF3725" begin="3600" fromJunction="J0" toJunction="J4" end="3960" vehsPerHour="30.106041748580576" departLane="free" arrivalSpeed="0.0"/>
  <flow id="JF3726" begin="3600" fromJunction="J0" toJunction="J6" end="3960" vehsPerHour="52.327752524945964" departLane="free" arrivalSpeed="0.0"/>