<?xml version="1.0" encoding="UTF-8"?>
<routes xmlns:xsi="http://www.w3.org/2001/XMLSchema-instance" xsi:noNamespaceSchemaLocation="http://sumo.dlr.de/xsd/routes_file.xsd">
  <flow id="JF50729" begin="0" fromJunction="J3" toJunction="J0" end="10000" vehsPerHour="169.0537821661485" departLane="free"/>
  <flow id="JF50730" begin="0" fromJunction="J0" toJunction="J3" end="10000" vehsPerHour="317.3152830309107" departLane="free"/>
  <flow id="JF50731" begin="0" fromJunction="J3" toJunction="J6" end="10000" vehsPerHour="50.8028350711354" departLane="free"/>
  <flow id="JF50732" begin="0" fromJunction="J3" toJunction="J5" end="10000" vehsPerHour="66.86287077357639" departLane="free"/>
  <flow id="JF50733" begin="0" fromJunction="J3" toJunction="J7" end="10000" vehsPerHour="14.416297194422855" departLane="free"/>
  <flow id="JF50734" begin="0" fromJunction="J3" toJunction="J4" end="10000" vehsPerHour="72.95866827522046" departLane="free"/>
  <flow id="JF50735" begin="0" fromJunction="J0" toJunction="J6" end="10000" vehsPerHour="121.05597475032667" departLane="free"/>
  <flow id="JF50736" begin="0" fromJunction="J0" toJunction="J5" end="10000" vehsPerHour="118.82779706704132" departLane="free"/>
  <flow id="JF50737" begin="0" fromJunction="J0" toJunction="J7" end="10000" vehsPerHour="88.58484661285293" departLane="free"/>
  <flow id="JF50738" begin="0" fromJunction="J0" toJunction="J4" end="10000" vehsPerHour="120.71974419604685" departLane="free"/>
  <flow id="JF50739" begin="0" fromJunction="J6" toJunction="J5" end="10000" vehsPerHour="20.775123460345768" departLane="free"/>
  <flow id="JF50740" begin="0" fromJunction="J6" toJunction="J7" end="10000" vehsPerHour="0.2597438422990615" departLane="free"/>
  <flow id="JF50741" begin="0" fromJunction="J6" toJunction="J4" end="10000" vehsPerHour="9.753764161009787" departLane="free"/>
  <flow id="JF50742" begin="0" fromJunction="J5" toJunction="J6" end="10000" vehsPerHour="65.1443814252048" departLane="free"/>
  <flow id="JF50743" begin="0" fromJunction="J5" toJunction="J7" end="10000" vehsPerHour="30.313234640599795" departLane="free"/>
  <flow id="JF50744" begin="0" fromJunction="J5" toJunction="J4" end="10000" vehsPerHour="2.231212719910154" departLane="free"/>
  <flow id="JF50745" begin="0" fromJunction="J7" toJunction="J6" end="10000" vehsPerHour="22.77432855820029" departLane="free"/>
  <flow id="JF50746" begin="0" fromJunction="J7" toJunction="J5" end="10000" vehsPerHour="29.986103924936664" departLane="free"/>
  <flow id="JF50747" begin="0" fromJunction="J7" toJunction="J4" end="10000" vehsPerHour="20.004472273538656" departLane="free"/>
  <flow id="JF50748" begin="0" fromJunction="J4" toJunction="J6" end="10000" vehsPerHour="66.92499468670626" departLane="free"/>
  <flow id="JF50749" begin="0" fromJunction="J4" toJunction="J5" end="10000" vehsPerHour="53.64041408981352" departLane="free"/>
  <flow id="JF50750" begin="0" fromJunction="J4" toJunction="J7" end="10000" vehsPerHour="15.739189500326898" departLane="free"/>
  <flow id="JF50751" begin="0" fromJunction="J6" toJunction="J3" end="10000" vehsPerHour="24.780240954336097" departLane="free"/>
  <flow id="JF50752" begin="0" fromJunction="J6" toJunction="J0" end="10000" vehsPerHour="31.49747607988078" departLane="free"/>
  <flow id="JF50753" begin="0" fromJunction="J5" toJunction="J3" end="10000" vehsPerHour="12.825990042731867" departLane="free"/>
  <flow id="JF50754" begin="0" fromJunction="J5" toJunction="J0" end="10000" vehsPerHour="33.15626097158204" departLane="free"/>
  <flow id="JF50755" begin="0" fromJunction="J7" toJunction="J3" end="10000" vehsPerHour="16.63685100345569" departLane="free"/>
  <flow id="JF50756" begin="0" fromJunction="J7" toJunction="J0" end="10000" vehsPerHour="28.774846376691066" departLane="free"/>
  <flow id="JF50757" begin="0" fromJunction="J4" toJunction="J3" end="10000" vehsPerHour="9.7051517129429" departLane="free"/>
  <flow id="JF50758" begin="0" fromJunction="J4" toJunction="J0" end="10000" vehsPerHour="2.044050031065221" departLane="free"/>
</routes>