<?xml version="1.0" encoding="UTF-8"?>
<routes xmlns:xsi="http://www.w3.org/2001/XMLSchema-instance" xsi:noNamespaceSchemaLocation="http://sumo.dlr.de/xsd/routes_file.xsd">
  <flow id="JF261398" begin="0" fromJunction="J3" toJunction="J0" end="10000" vehsPerHour="5.859590919044252" departLane="free"/>
  <flow id="JF261399" begin="0" fromJunction="J0" toJunction="J3" end="10000" vehsPerHour="107.52801518835199" departLane="free"/>
  <flow id="JF261400" begin="0" fromJunction="J3" toJunction="J6" end="10000" vehsPerHour="55.95465209246761" departLane="free"/>
  <flow id="JF261401" begin="0" fromJunction="J3" toJunction="J4" end="10000" vehsPerHour="0.27413557331294536" departLane="free"/>
  <flow id="JF261402" begin="0" fromJunction="J3" toJunction="J7" end="10000" vehsPerHour="54.67262546761549" departLane="free"/>
  <flow id="JF261403" begin="0" fromJunction="J3" toJunction="J5" end="10000" vehsPerHour="52.87211679560054" departLane="free"/>
  <flow id="JF261404" begin="0" fromJunction="J0" toJunction="J6" end="10000" vehsPerHour="18.27726257355757" departLane="free"/>
  <flow id="JF261405" begin="0" fromJunction="J0" toJunction="J4" end="10000" vehsPerHour="58.35775942817793" departLane="free"/>
  <flow id="JF261406" begin="0" fromJunction="J0" toJunction="J7" end="10000" vehsPerHour="9.91327761915015" departLane="free"/>
  <flow id="JF261407" begin="0" fromJunction="J0" toJunction="J5" end="10000" vehsPerHour="36.115571459545514" departLane="free"/>
  <flow id="JF261408" begin="0" fromJunction="J6" toJunction="J4" end="10000" vehsPerHour="29.064615862112454" departLane="free"/>
  <flow id="JF261409" begin="0" fromJunction="J6" toJunction="J7" end="10000" vehsPerHour="25.717739541213362" departLane="free"/>
  <flow id="JF261410" begin="0" fromJunction="J6" toJunction="J5" end="10000" vehsPerHour="48.734343077541176" departLane="free"/>
  <flow id="JF261411" begin="0" fromJunction="J4" toJunction="J6" end="10000" vehsPerHour="14.977986045427635" departLane="free"/>
  <flow id="JF261412" begin="0" fromJunction="J4" toJunction="J7" end="10000" vehsPerHour="6.361946581380163" departLane="free"/>
  <flow id="JF261413" begin="0" fromJunction="J4" toJunction="J5" end="10000" vehsPerHour="28.182211360135536" departLane="free"/>
  <flow id="JF261414" begin="0" fromJunction="J7" toJunction="J6" end="10000" vehsPerHour="17.970752782173463" departLane="free"/>
  <flow id="JF261415" begin="0" fromJunction="J7" toJunction="J4" end="10000" vehsPerHour="68.66885658514809" departLane="free"/>
  <flow id="JF261416" begin="0" fromJunction="J7" toJunction="J5" end="10000" vehsPerHour="6.152539823232914" departLane="free"/>
  <flow id="JF261417" begin="0" fromJunction="J5" toJunction="J6" end="10000" vehsPerHour="10.91531291732347" departLane="free"/>
  <flow id="JF261418" begin="0" fromJunction="J5" toJunction="J4" end="10000" vehsPerHour="36.997559017740116" departLane="free"/>
  <flow id="JF261419" begin="0" fromJunction="J5" toJunction="J7" end="10000" vehsPerHour="32.56855343264185" departLane="free"/>
  <flow id="JF261420" begin="0" fromJunction="J6" toJunction="J3" end="10000" vehsPerHour="28.010709325053515" departLane="free"/>
  <flow id="JF261421" begin="0" fromJunction="J6" toJunction="J0" end="10000" vehsPerHour="49.37516805804303" departLane="free"/>
  <flow id="JF261422" begin="0" fromJunction="J4" toJunction="J3" end="10000" vehsPerHour="41.50357688691667" departLane="free"/>
  <flow id="JF261423" begin="0" fromJunction="J4" toJunction="J0" end="10000" vehsPerHour="46.66526296599339" departLane="free"/>
  <flow id="JF261424" begin="0" fromJunction="J7" toJunction="J3" end="10000" vehsPerHour="33.635919869110836" departLane="free"/>
  <flow id="JF261425" begin="0" fromJunction="J7" toJunction="J0" end="10000" vehsPerHour="62.41054278382907" departLane="free"/>
  <flow id="JF261426" begin="0" fromJunction="J5" toJunction="J3" end="10000" vehsPerHour="16.336910180444534" departLane="free"/>
  <flow id="JF261427" begin="0" fromJunction="J5" toJunction="J0" end="10000" vehsPerHour="8.817694285234246" departLane="free"/>
</routes>