<?xml version="1.0" encoding="UTF-8"?>
<routes xmlns:xsi="http://www.w3.org/2001/XMLSchema-instance" xsi:noNamespaceSchemaLocation="http://sumo.dlr.de/xsd/routes_file.xsd">
  <flow id="JF261488" begin="0" fromJunction="J3" toJunction="J0" end="10000" vehsPerHour="393.0211946578135" departLane="free"/>
  <flow id="JF261489" begin="0" fromJunction="J0" toJunction="J3" end="10000" vehsPerHour="105.55695280416155" departLane="free"/>
  <flow id="JF261490" begin="0" fromJunction="J3" toJunction="J6" end="10000" vehsPerHour="9.381590508580011" departLane="free"/>
  <flow id="JF261491" begin="0" fromJunction="J3" toJunction="J4" end="10000" vehsPerHour="12.315651026551036" departLane="free"/>
  <flow id="JF261492" begin="0" fromJunction="J3" toJunction="J7" end="10000" vehsPerHour="52.615699352329884" departLane="free"/>
  <flow id="JF261493" begin="0" fromJunction="J3" toJunction="J5" end="10000" vehsPerHour="62.67799573563689" departLane="free"/>
  <flow id="JF261494" begin="0" fromJunction="J0" toJunction="J6" end="10000" vehsPerHour="4.033102098658258" departLane="free"/>
  <flow id="JF261495" begin="0" fromJunction="J0" toJunction="J4" end="10000" vehsPerHour="45.690336718639344" departLane="free"/>
  <flow id="JF261496" begin="0" fromJunction="J0" toJunction="J7" end="10000" vehsPerHour="32.06663726714043" departLane="free"/>
  <flow id="JF261497" begin="0" fromJunction="J0" toJunction="J5" end="10000" vehsPerHour="17.55202624018514" departLane="free"/>
  <flow id="JF261498" begin="0" fromJunction="J6" toJunction="J4" end="10000" vehsPerHour="2.5019093084947737" departLane="free"/>
  <flow id="JF261499" begin="0" fromJunction="J6" toJunction="J7" end="10000" vehsPerHour="11.567967553302822" departLane="free"/>
  <flow id="JF261500" begin="0" fromJunction="J6" toJunction="J5" end="10000" vehsPerHour="14.998598531011057" departLane="free"/>
  <flow id="JF261501" begin="0" fromJunction="J4" toJunction="J6" end="10000" vehsPerHour="20.8629712240568" departLane="free"/>
  <flow id="JF261502" begin="0" fromJunction="J4" toJunction="J7" end="10000" vehsPerHour="13.446719834144755" departLane="free"/>
  <flow id="JF261503" begin="0" fromJunction="J4" toJunction="J5" end="10000" vehsPerHour="12.70041324747895" departLane="free"/>
  <flow id="JF261504" begin="0" fromJunction="J7" toJunction="J6" end="10000" vehsPerHour="11.416895790737366" departLane="free"/>
  <flow id="JF261505" begin="0" fromJunction="J7" toJunction="J4" end="10000" vehsPerHour="16.21558561280098" departLane="free"/>
  <flow id="JF261506" begin="0" fromJunction="J7" toJunction="J5" end="10000" vehsPerHour="1.8393696961550625" departLane="free"/>
  <flow id="JF261507" begin="0" fromJunction="J5" toJunction="J6" end="10000" vehsPerHour="23.769922387701023" departLane="free"/>
  <flow id="JF261508" begin="0" fromJunction="J5" toJunction="J4" end="10000" vehsPerHour="44.25447026038929" departLane="free"/>
  <flow id="JF261509" begin="0" fromJunction="J5" toJunction="J7" end="10000" vehsPerHour="14.940896167354246" departLane="free"/>
  <flow id="JF261510" begin="0" fromJunction="J6" toJunction="J3" end="10000" vehsPerHour="34.1375040497054" departLane="free"/>
  <flow id="JF261511" begin="0" fromJunction="J6" toJunction="J0" end="10000" vehsPerHour="57.750251633397546" departLane="free"/>
  <flow id="JF261512" begin="0" fromJunction="J4" toJunction="J3" end="10000" vehsPerHour="53.37114361356172" departLane="free"/>
  <flow id="JF261513" begin="0" fromJunction="J4" toJunction="J0" end="10000" vehsPerHour="17.97513244264357" departLane="free"/>
  <flow id="JF261514" begin="0" fromJunction="J7" toJunction="J3" end="10000" vehsPerHour="27.9603187614754" departLane="free"/>
  <flow id="JF261515" begin="0" fromJunction="J7" toJunction="J0" end="10000" vehsPerHour="6.454111392014244" departLane="free"/>
  <flow id="JF261516" begin="0" fromJunction="J5" toJunction="J3" end="10000" vehsPerHour="61.93125123768957" departLane="free"/>
  <flow id="JF261517" begin="0" fromJunction="J5" toJunction="J0" end="10000" vehsPerHour="65.12046533441509" departLane="free"/>
</routes>