<?xml version="1.0" encoding="UTF-8"?>
<routes xmlns:xsi="http://www.w3.org/2001/XMLSchema-instance" xsi:noNamespaceSchemaLocation="http://sumo.dlr.de/xsd/routes_file.xsd">
  <flow id="JF261458" begin="0" fromJunction="J3" toJunction="J0" end="10000" vehsPerHour="275.16413426873044" departLane="free"/>
  <flow id="JF261459" begin="0" fromJunction="J0" toJunction="J3" end="10000" vehsPerHour="66.35446096489841" departLane="free"/>
  <flow id="JF261460" begin="0" fromJunction="J3" toJunction="J6" end="10000" vehsPerHour="8.241162611723263" departLane="free"/>
  <flow id="JF261461" begin="0" fromJunction="J3" toJunction="J4" end="10000" vehsPerHour="8.345028111485933" departLane="free"/>
  <flow id="JF261462" begin="0" fromJunction="J3" toJunction="J7" end="10000" vehsPerHour="55.879973129623316" departLane="free"/>
  <flow id="JF261463" begin="0" fromJunction="J3" toJunction="J5" end="10000" vehsPerHour="59.2338769307685" departLane="free"/>
  <flow id="JF261464" begin="0" fromJunction="J0" toJunction="J6" end="10000" vehsPerHour="21.22705111919278" departLane="free"/>
  <flow id="JF261465" begin="0" fromJunction="J0" toJunction="J4" end="10000" vehsPerHour="60.92743459086007" departLane="free"/>
  <flow id="JF261466" begin="0" fromJunction="J0" toJunction="J7" end="10000" vehsPerHour="35.397480955804774" departLane="free"/>
  <flow id="JF261467" begin="0" fromJunction="J0" toJunction="J5" end="10000" vehsPerHour="29.325429605721908" departLane="free"/>
  <flow id="JF261468" begin="0" fromJunction="J6" toJunction="J4" end="10000" vehsPerHour="15.19588300155702" departLane="free"/>
  <flow id="JF261469" begin="0" fromJunction="J6" toJunction="J7" end="10000" vehsPerHour="28.856889948893567" departLane="free"/>
  <flow id="JF261470" begin="0" fromJunction="J6" toJunction="J5" end="10000" vehsPerHour="29.656040936250374" departLane="free"/>
  <flow id="JF261471" begin="0" fromJunction="J4" toJunction="J6" end="10000" vehsPerHour="11.78943857532399" departLane="free"/>
  <flow id="JF261472" begin="0" fromJunction="J4" toJunction="J7" end="10000" vehsPerHour="26.460807726864225" departLane="free"/>
  <flow id="JF261473" begin="0" fromJunction="J4" toJunction="J5" end="10000" vehsPerHour="1.9608256640063275" departLane="free"/>
  <flow id="JF261474" begin="0" fromJunction="J7" toJunction="J6" end="10000" vehsPerHour="53.31011595744581" departLane="free"/>
  <flow id="JF261475" begin="0" fromJunction="J7" toJunction="J4" end="10000" vehsPerHour="3.0270585345363816" departLane="free"/>
  <flow id="JF261476" begin="0" fromJunction="J7" toJunction="J5" end="10000" vehsPerHour="59.24573982154712" departLane="free"/>
  <flow id="JF261477" begin="0" fromJunction="J5" toJunction="J6" end="10000" vehsPerHour="11.32285858098222" departLane="free"/>
  <flow id="JF261478" begin="0" fromJunction="J5" toJunction="J4" end="10000" vehsPerHour="48.20524671716273" departLane="free"/>
  <flow id="JF261479" begin="0" fromJunction="J5" toJunction="J7" end="10000" vehsPerHour="20.438324624344443" departLane="free"/>
  <flow id="JF261480" begin="0" fromJunction="J6" toJunction="J3" end="10000" vehsPerHour="45.906684228165055" departLane="free"/>
  <flow id="JF261481" begin="0" fromJunction="J6" toJunction="J0" end="10000" vehsPerHour="21.994241644833437" departLane="free"/>
  <flow id="JF261482" begin="0" fromJunction="J4" toJunction="J3" end="10000" vehsPerHour="18.288954498673167" departLane="free"/>
  <flow id="JF261483" begin="0" fromJunction="J4" toJunction="J0" end="10000" vehsPerHour="3.29007763027522" departLane="free"/>
  <flow id="JF261484" begin="0" fromJunction="J7" toJunction="J3" end="10000" vehsPerHour="25.35577549551246" departLane="free"/>
  <flow id="JF261485" begin="0" fromJunction="J7" toJunction="J0" end="10000" vehsPerHour="1.076751110550347" departLane="free"/>
  <flow id="JF261486" begin="0" fromJunction="J5" toJunction="J3" end="10000" vehsPerHour="25.668131630701975" departLane="free"/>
  <flow id="JF261487" begin="0" fromJunction="J5" toJunction="J0" end="10000" vehsPerHour="58.89527073389231" departLane="free"/>
</routes>