<?xml version="1.0" encoding="UTF-8"?>
<routes xmlns:xsi="http://www.w3.org/2001/XMLSchema-instance" xsi:noNamespaceSchemaLocation="http://sumo.dlr.de/xsd/routes_file.xsd">
  <flow id="JF261428" begin="0" fromJunction="J3" toJunction="J0" end="10000" vehsPerHour="464.9989256439619" departLane="free"/>
  <flow id="JF261429" begin="0" fromJunction="J0" toJunction="J3" end="10000" vehsPerHour="172.6823596899695" departLane="free"/>
  <flow id="JF261430" begin="0" fromJunction="J3" toJunction="J6" end="10000" vehsPerHour="36.14593369997257" departLane="free"/>
  <flow id="JF261431" begin="0" fromJunction="J3" toJunction="J4" end="10000" vehsPerHour="34.02822048548403" departLane="free"/>
  <flow id="JF261432" begin="0" fromJunction="J3" toJunction="J7" end="10000" vehsPerHour="59.68943091846869" departLane="free"/>
  <flow id="JF261433" begin="0" fromJunction="J3" toJunction="J5" end="10000" vehsPerHour="25.093616649382213" departLane="free"/>
  <flow id="JF261434" begin="0" fromJunction="J0" toJunction="J6" end="10000" vehsPerHour="59.26466994593599" departLane="free"/>
  <flow id="JF261435" begin="0" fromJunction="J0" toJunction="J4" end="10000" vehsPerHour="63.04562044895089" departLane="free"/>
  <flow id="JF261436" begin="0" fromJunction="J0" toJunction="J7" end="10000" vehsPerHour="23.080042839507428" departLane="free"/>
  <flow id="JF261437" begin="0" fromJunction="J0" toJunction="J5" end="10000" vehsPerHour="9.202501024605297" departLane="free"/>
  <flow id="JF261438" begin="0" fromJunction="J6" toJunction="J4" end="10000" vehsPerHour="12.600358874771057" departLane="free"/>
  <flow id="JF261439" begin="0" fromJunction="J6" toJunction="J7" end="10000" vehsPerHour="22.65897773618203" departLane="free"/>
  <flow id="JF261440" begin="0" fromJunction="J6" toJunction="J5" end="10000" vehsPerHour="8.164749036813017" departLane="free"/>
  <flow id="JF261441" begin="0" fromJunction="J4" toJunction="J6" end="10000" vehsPerHour="2.7205619343576832" departLane="free"/>
  <flow id="JF261442" begin="0" fromJunction="J4" toJunction="J7" end="10000" vehsPerHour="8.636166829487811" departLane="free"/>
  <flow id="JF261443" begin="0" fromJunction="J4" toJunction="J5" end="10000" vehsPerHour="19.46018074551611" departLane="free"/>
  <flow id="JF261444" begin="0" fromJunction="J7" toJunction="J6" end="10000" vehsPerHour="23.844018954184683" departLane="free"/>
  <flow id="JF261445" begin="0" fromJunction="J7" toJunction="J4" end="10000" vehsPerHour="14.658703922790208" departLane="free"/>
  <flow id="JF261446" begin="0" fromJunction="J7" toJunction="J5" end="10000" vehsPerHour="12.199356511353566" departLane="free"/>
  <flow id="JF261447" begin="0" fromJunction="J5" toJunction="J6" end="10000" vehsPerHour="8.847660422203283" departLane="free"/>
  <flow id="JF261448" begin="0" fromJunction="J5" toJunction="J4" end="10000" vehsPerHour="42.38004847179632" departLane="free"/>
  <flow id="JF261449" begin="0" fromJunction="J5" toJunction="J7" end="10000" vehsPerHour="7.198629105696736" departLane="free"/>
  <flow id="JF261450" begin="0" fromJunction="J6" toJunction="J3" end="10000" vehsPerHour="65.00600523597507" departLane="free"/>
  <flow id="JF261451" begin="0" fromJunction="J6" toJunction="J0" end="10000" vehsPerHour="11.751543149948766" departLane="free"/>
  <flow id="JF261452" begin="0" fromJunction="J4" toJunction="J3" end="10000" vehsPerHour="15.55700733847414" departLane="free"/>
  <flow id="JF261453" begin="0" fromJunction="J4" toJunction="J0" end="10000" vehsPerHour="31.927727282552937" departLane="free"/>
  <flow id="JF261454" begin="0" fromJunction="J7" toJunction="J3" end="10000" vehsPerHour="53.21811450461569" departLane="free"/>
  <flow id="JF261455" begin="0" fromJunction="J7" toJunction="J0" end="10000" vehsPerHour="28.41286137299445" departLane="free"/>
  <flow id="JF261456" begin="0" fromJunction="J5" toJunction="J3" end="10000" vehsPerHour="58.74366403891228" departLane="free"/>
  <flow id="JF261457" begin="0" fromJunction="J5" toJunction="J0" end="10000" vehsPerHour="37.392140499116415" departLane="free"/>
</routes>