<?xml version="1.0" encoding="UTF-8"?>
<routes xmlns:xsi="http://www.w3.org/2001/XMLSchema-instance" xsi:noNamespaceSchemaLocation="http://sumo.dlr.de/xsd/routes_file.xsd">
  <flow id="JF89437" begin="0" fromJunction="J0" toJunction="J3" end="10000" vehsPerHour="649.9180387412218" departLane="free"/>
  <flow id="JF89438" begin="0" fromJunction="J3" toJunction="J0" end="10000" vehsPerHour="472.5590444623051" departLane="free"/>
  <flow id="JF89439" begin="0" fromJunction="J0" toJunction="J6" end="10000" vehsPerHour="271.3503403168158" departLane="free"/>
  <flow id="JF89440" begin="0" fromJunction="J0" toJunction="J5" end="10000" vehsPerHour="126.95711001041975" departLane="free"/>
  <flow id="JF89441" begin="0" fromJunction="J0" toJunction="J4" end="10000" vehsPerHour="212.05161519857802" departLane="free"/>
  <flow id="JF89442" begin="0" fromJunction="J0" toJunction="J7" end="10000" vehsPerHour="111.97821126795766" departLane="free"/>
  <flow id="JF89443" begin="0" fromJunction="J3" toJunction="J6" end="10000" vehsPerHour="258.9657002908883" departLane="free"/>
  <flow id="JF89444" begin="0" fromJunction="J3" toJunction="J5" end="10000" vehsPerHour="251.92508366901393" departLane="free"/>
  <flow id="JF89445" begin="0" fromJunction="J3" toJunction="J4" end="10000" vehsPerHour="6.188918018626619" departLane="free"/>
  <flow id="JF89446" begin="0" fromJunction="J3" toJunction="J7" end="10000" vehsPerHour="267.81139887584493" departLane="free"/>
  <flow id="JF89447" begin="0" fromJunction="J6" toJunction="J5" end="10000" vehsPerHour="108.6704900704112" departLane="free"/>
  <flow id="JF89448" begin="0" fromJunction="J6" toJunction="J4" end="10000" vehsPerHour="217.56722974837925" departLane="free"/>
  <flow id="JF89449" begin="0" fromJunction="J6" toJunction="J7" end="10000" vehsPerHour="1.9510332481596746" departLane="free"/>
  <flow id="JF89450" begin="0" fromJunction="J5" toJunction="J6" end="10000" vehsPerHour="42.93142047419917" departLane="free"/>
  <flow id="JF89451" begin="0" fromJunction="J5" toJunction="J4" end="10000" vehsPerHour="227.40975249634207" departLane="free"/>
  <flow id="JF89452" begin="0" fromJunction="J5" toJunction="J7" end="10000" vehsPerHour="95.55066614711328" departLane="free"/>
  <flow id="JF89453" begin="0" fromJunction="J4" toJunction="J6" end="10000" vehsPerHour="81.61253707215936" departLane="free"/>
  <flow id="JF89454" begin="0" fromJunction="J4" toJunction="J5" end="10000" vehsPerHour="52.5959732388753" departLane="free"/>
  <flow id="JF89455" begin="0" fromJunction="J4" toJunction="J7" end="10000" vehsPerHour="59.25458743613763" departLane="free"/>
  <flow id="JF89456" begin="0" fromJunction="J7" toJunction="J6" end="10000" vehsPerHour="198.0521747844659" departLane="free"/>
  <flow id="JF89457" begin="0" fromJunction="J7" toJunction="J5" end="10000" vehsPerHour="175.0655084572974" departLane="free"/>
  <flow id="JF89458" begin="0" fromJunction="J7" toJunction="J4" end="10000" vehsPerHour="257.8818871899441" departLane="free"/>
  <flow id="JF89459" begin="0" fromJunction="J6" toJunction="J0" end="10000" vehsPerHour="33.732162999085375" departLane="free"/>
  <flow id="JF89460" begin="0" fromJunction="J6" toJunction="J3" end="10000" vehsPerHour="8.511288888021367" departLane="free"/>
  <flow id="JF89461" begin="0" fromJunction="J5" toJunction="J0" end="10000" vehsPerHour="165.64475206209974" departLane="free"/>
  <flow id="JF89462" begin="0" fromJunction="J5" toJunction="J3" end="10000" vehsPerHour="213.52084876778255" departLane="free"/>
  <flow id="JF89463" begin="0" fromJunction="J4" toJunction="J0" end="10000" vehsPerHour="27.757553656583084" departLane="free"/>
  <flow id="JF89464" begin="0" fromJunction="J4" toJunction="J3" end="10000" vehsPerHour="272.62757227822925" departLane="free"/>
  <flow id="JF89465" begin="0" fromJunction="J7" toJunction="J0" end="10000" vehsPerHour="148.9818692919492" departLane="free"/>
  <flow id="JF89466" begin="0" fromJunction="J7" toJunction="J3" end="10000" vehsPerHour="267.53776599634523" departLane="free"/>
</routes>