<?xml version="1.0" encoding="UTF-8"?>
<routes xmlns:xsi="http://www.w3.org/2001/XMLSchema-instance" xsi:noNamespaceSchemaLocation="http://sumo.dlr.de/xsd/routes_file.xsd">
  <flow id="JF47044" begin="0" fromJunction="J0" toJunction="J3" end="60" vehsPerHour="114.42559729152819" departLane="free"/>
  <flow id="JF47045" begin="0" fromJunction="J0" toJunction="J5" end="60" vehsPerHour="33.63770019357774" departLane="free"/>
  <flow id="JF47046" begin="0" fromJunction="J0" toJunction="J6" end="60" vehsPerHour="24.209948908978106" departLane="free"/>
  <flow id="JF47047" begin="0" fromJunction="J0" toJunction="J7" end="60" vehsPerHour="34.5268870944681" departLane="free"/>
  <flow id="JF47048" begin="0" fromJunction="J3" toJunction="J0" end="60" vehsPerHour="132.44819954084363" departLane="free"/>
  <flow id="JF47049" begin="0" fromJunction="J3" toJunction="J5" end="60" vehsPerHour="135.27378351921453" departLane="free"/>
  <flow id="JF47050" begin="0" fromJunction="J3" toJunction="J7" end="60" vehsPerHour="27.972462601247642" departLane="free"/>
  <flow id="JF47051" begin="0" fromJunction="J4" toJunction="J0" end="60" vehsPerHour="28.64409297592069" departLane="free"/>
  <flow id="JF47052" begin="0" fromJunction="J4" toJunction="J3" end="60" vehsPerHour="16.093214153620742" departLane="free"/>
  <flow id="JF47053" begin="0" fromJunction="J4" toJunction="J7" end="60" vehsPerHour="36.61517674936765" departLane="free"/>
  <flow id="JF47054" begin="0" fromJunction="J5" toJunction="J0" end="60" vehsPerHour="53.9972085806946" departLane="free"/>
  <flow id="JF47055" begin="0" fromJunction="J5" toJunction="J4" end="60" vehsPerHour="34.82513523005774" departLane="free"/>
  <flow id="JF47056" begin="0" fromJunction="J5" toJunction="J7" end="60" vehsPerHour="33.586066596313344" departLane="free"/>
  <flow id="JF47057" begin="0" fromJunction="J6" toJunction="J5" end="60" vehsPerHour="8.712533880156256" departLane="free"/>
  <flow id="JF47058" begin="0" fromJunction="J6" toJunction="J7" end="60" vehsPerHour="38.40701021139251" departLane="free"/>
  <flow id="JF47059" begin="0" fromJunction="J7" toJunction="J0" end="60" vehsPerHour="7.791416315390848" departLane="free"/>
  <flow id="JF47060" begin="0" fromJunction="J7" toJunction="J3" end="60" vehsPerHour="22.637990188282338" departLane="free"/>
  <flow id="JF47061" begin="0" fromJunction="J7" toJunction="J4" end="60" vehsPerHour="60.70797267477573" departLane="free"/>
  <flow id="JF47062" begin="0" fromJunction="J7" toJunction="J6" end="60" vehsPerHour="47.80534980248559" departLane="free"/>
  <flow id="JF47063" begin="60" fromJunction="J0" toJunction="J7" end="120" vehsPerHour="26.744356638456228" departLane="free"/>
  <flow id="JF47064" begin="60" fromJunction="J3" toJunction="J0" end="120" vehsPerHour="64.6605159396067" departLane="free"/>
  <flow id="JF47065" begin="60" fromJunction="J3" toJunction="J4" end="120" vehsPerHour="133.14305324238148" departLane="free"/>
  <flow id="JF47066" begin="60" fromJunction="J3" toJunction="J6" end="120" vehsPerHour="49.456770017485404" departLane="free"/>
  <flow id="JF47067" begin="60" fromJunction="J3" toJunction="J7" end="120" vehsPerHour="105.37693503188542" departLane="free"/>
  <flow id="JF47068" begin="60" fromJunction="J4" toJunction="J0" end="120" vehsPerHour="2.9028682975370383" departLane="free"/>
  <flow id="JF47069" begin="60" fromJunction="J4" toJunction="J6" end="120" vehsPerHour="13.102534536486058" departLane="free"/>
  <flow id="JF47070" begin="60" fromJunction="J4" toJunction="J7" end="120" vehsPerHour="24.40586595673692" departLane="free"/>
  <flow id="JF47071" begin="60" fromJunction="J5" toJunction="J3" end="120" vehsPerHour="38.51449109799426" departLane="free"/>
  <flow id="JF47072" begin="60" fromJunction="J5" toJunction="J6" end="120" vehsPerHour="63.829537463057214" departLane="free"/>
  <flow id="JF47073" begin="60" fromJunction="J5" toJunction="J7" end="120" vehsPerHour="19.65546820500631" departLane="free"/>
  <flow id="JF47074" begin="60" fromJunction="J6" toJunction="J0" end="120" vehsPerHour="2.7322356090856172" departLane="free"/>
  <flow id="JF47075" begin="60" fromJunction="J6" toJunction="J3" end="120" vehsPerHour="25.552720546601705" departLane="free"/>
  <flow id="JF47076" begin="60" fromJunction="J6" toJunction="J5" end="120" vehsPerHour="3.5265635881813013" departLane="free"/>
  <flow id="JF47077" begin="60" fromJunction="J6" toJunction="J7" end="120" vehsPerHour="51.6557660160027" departLane="free"/>
  <flow id="JF47078" begin="60" fromJunction="J7" toJunction="J0" end="120" vehsPerHour="35.668756878900126" departLane="free"/>
  <flow id="JF47079" begin="60" fromJunction="J7" toJunction="J3" end="120" vehsPerHour="9.99255096234532" departLane="free"/>
  <flow id="JF47080" begin="60" fromJunction="J7" toJunction="J4" end="120" vehsPerHour="18.328130938109307" departLane="free"/>
  <flow id="JF47081" begin="60" fromJunction="J7" toJunction="J5" end="120" vehsPerHour="40.53885014045919" departLane="free"/>
  <flow id="JF47082" begin="60" fromJunction="J7" toJunction="J6" end="120" vehsPerHour="61.886306263735165" departLane="free"/>
  <flow id="JF47083" begin="120" fromJunction="J0" toJunction="J3" end="180" vehsPerHour="110.62591366061766" departLane="free"/>
  <flow id="JF47084" begin="120" fromJunction="J0" toJunction="J4" end="180" vehsPerHour="64.91402589148342" departLane="free"/>
  <flow id="JF47085" begin="120" fromJunction="J0" toJunction="J6" end="180" vehsPerHour="19.15283567640986" departLane="free"/>
  <flow id="JF47086" begin="120" fromJunction="J0" toJunction="J7" end="180" vehsPerHour="38.982646598178086" departLane="free"/>
  <flow id="JF47087" begin="120" fromJunction="J3" toJunction="J0" end="180" vehsPerHour="59.57223308480903" departLane="free"/>
  <flow id="JF47088" begin="120" fromJunction="J3" toJunction="J4" end="180" vehsPerHour="87.3808639010164" departLane="free"/>
  <flow id="JF47089" begin="120" fromJunction="J3" toJunction="J5" end="180" vehsPerHour="46.951161385852124" departLane="free"/>
  <flow id="JF47090" begin="120" fromJunction="J3" toJunction="J7" end="180" vehsPerHour="66.88183406250884" departLane="free"/>
  <flow id="JF47091" begin="120" fromJunction="J4" toJunction="J0" end="180" vehsPerHour="13.733959841231549" departLane="free"/>
  <flow id="JF47092" begin="120" fromJunction="J4" toJunction="J3" end="180" vehsPerHour="44.9858212332947" departLane="free"/>
  <flow id="JF47093" begin="120" fromJunction="J4" toJunction="J5" end="180" vehsPerHour="61.275205048681556" departLane="free"/>
  <flow id="JF47094" begin="120" fromJunction="J4" toJunction="J7" end="180" vehsPerHour="21.08940402442767" departLane="free"/>
  <flow id="JF47095" begin="120" fromJunction="J5" toJunction="J3" end="180" vehsPerHour="28.766645051257136" departLane="free"/>
  <flow id="JF47096" begin="120" fromJunction="J5" toJunction="J4" end="180" vehsPerHour="4.614559562199651" departLane="free"/>
  <flow id="JF47097" begin="120" fromJunction="J5" toJunction="J6" end="180" vehsPerHour="4.981555838562967" departLane="free"/>
  <flow id="JF47098" begin="120" fromJunction="J5" toJunction="J7" end="180" vehsPerHour="53.54889091967241" departLane="free"/>
  <flow id="JF47099" begin="120" fromJunction="J6" toJunction="J0" end="180" vehsPerHour="60.321405993321854" departLane="free"/>
  <flow id="JF47100" begin="120" fromJunction="J6" toJunction="J3" end="180" vehsPerHour="2.9838271822015083" departLane="free"/>
  <flow id="JF47101" begin="120" fromJunction="J6" toJunction="J4" end="180" vehsPerHour="4.499938782221167" departLane="free"/>
  <flow id="JF47102" begin="120" fromJunction="J6" toJunction="J7" end="180" vehsPerHour="3.375200967186944" departLane="free"/>
  <flow id="JF47103" begin="120" fromJunction="J7" toJunction="J5" end="180" vehsPerHour="67.74218877976787" departLane="free"/>
  <flow id="JF47104" begin="120" fromJunction="J7" toJunction="J6" end="180" vehsPerHour="9.172075062551569" departLane="free"/>
  <flow id="JF47105" begin="180" fromJunction="J0" toJunction="J3" end="240" vehsPerHour="122.52756713699257" departLane="free"/>
  <flow id="JF47106" begin="180" fromJunction="J0" toJunction="J4" end="240" vehsPerHour="47.08293938386888" departLane="free"/>
  <flow id="JF47107" begin="180" fromJunction="J0" toJunction="J6" end="240" vehsPerHour="37.111633946695584" departLane="free"/>
  <flow id="JF47108" begin="180" fromJunction="J0" toJunction="J7" end="240" vehsPerHour="89.39966993555629" departLane="free"/>
  <flow id="JF47109" begin="180" fromJunction="J3" toJunction="J0" end="240" vehsPerHour="73.67631523310864" departLane="free"/>
  <flow id="JF47110" begin="180" fromJunction="J3" toJunction="J4" end="240" vehsPerHour="91.59514592865062" departLane="free"/>
  <flow id="JF47111" begin="180" fromJunction="J3" toJunction="J5" end="240" vehsPerHour="37.44376834286108" departLane="free"/>
  <flow id="JF47112" begin="180" fromJunction="J3" toJunction="J7" end="240" vehsPerHour="57.7295072779133" departLane="free"/>
  <flow id="JF47113" begin="180" fromJunction="J4" toJunction="J6" end="240" vehsPerHour="12.104739297114843" departLane="free"/>
  <flow id="JF47114" begin="180" fromJunction="J4" toJunction="J7" end="240" vehsPerHour="25.121828948105673" departLane="free"/>
  <flow id="JF47115" begin="180" fromJunction="J5" toJunction="J3" end="240" vehsPerHour="1.091996850726315" departLane="free"/>
  <flow id="JF47116" begin="180" fromJunction="J6" toJunction="J3" end="240" vehsPerHour="3.883349428762322" departLane="free"/>
  <flow id="JF47117" begin="180" fromJunction="J6" toJunction="J5" end="240" vehsPerHour="33.886746150154266" departLane="free"/>
  <flow id="JF47118" begin="180" fromJunction="J6" toJunction="J7" end="240" vehsPerHour="55.966304162366356" departLane="free"/>
  <flow id="JF47119" begin="180" fromJunction="J7" toJunction="J0" end="240" vehsPerHour="21.067879981588774" departLane="free"/>
  <flow id="JF47120" begin="180" fromJunction="J7" toJunction="J4" end="240" vehsPerHour="60.97324309627503" departLane="free"/>
  <flow id="JF47121" begin="180" fromJunction="J7" toJunction="J6" end="240" vehsPerHour="59.52126884884747" departLane="free"/>
  <flow id="JF47122" begin="240" fromJunction="J0" toJunction="J4" end="300" vehsPerHour="88.17412661159908" departLane="free"/>
  <flow id="JF47123" begin="240" fromJunction="J0" toJunction="J5" end="300" vehsPerHour="107.30216634224179" departLane="free"/>
  <flow id="JF47124" begin="240" fromJunction="J0" toJunction="J6" end="300" vehsPerHour="21.434780055850123" departLane="free"/>
  <flow id="JF47125" begin="240" fromJunction="J0" toJunction="J7" end="300" vehsPerHour="122.48728121421345" departLane="free"/>
  <flow id="JF47126" begin="240" fromJunction="J3" toJunction="J0" end="300" vehsPerHour="79.46103186114395" departLane="free"/>
  <flow id="JF47127" begin="240" fromJunction="J3" toJunction="J4" end="300" vehsPerHour="71.75102545257717" departLane="free"/>
  <flow id="JF47128" begin="240" fromJunction="J3" toJunction="J5" end="300" vehsPerHour="17.328763474530632" departLane="free"/>
  <flow id="JF47129" begin="240" fromJunction="J3" toJunction="J6" end="300" vehsPerHour="24.240960327476515" departLane="free"/>
  <flow id="JF47130" begin="240" fromJunction="J4" toJunction="J0" end="300" vehsPerHour="2.910877350047997" departLane="free"/>
  <flow id="JF47131" begin="240" fromJunction="J4" toJunction="J6" end="300" vehsPerHour="50.63719473498971" departLane="free"/>
  <flow id="JF47132" begin="240" fromJunction="J4" toJunction="J7" end="300" vehsPerHour="37.691088888306794" departLane="free"/>
  <flow id="JF47133" begin="240" fromJunction="J5" toJunction="J0" end="300" vehsPerHour="13.38935851620717" departLane="free"/>
  <flow id="JF47134" begin="240" fromJunction="J5" toJunction="J4" end="300" vehsPerHour="58.171595664882204" departLane="free"/>
  <flow id="JF47135" begin="240" fromJunction="J5" toJunction="J6" end="300" vehsPerHour="68.58271969468316" departLane="free"/>
  <flow id="JF47136" begin="240" fromJunction="J6" toJunction="J4" end="300" vehsPerHour="13.167374337039371" departLane="free"/>
  <flow id="JF47137" begin="240" fromJunction="J6" toJunction="J5" end="300" vehsPerHour="41.93168341428545" departLane="free"/>
  <flow id="JF47138" begin="240" fromJunction="J6" toJunction="J7" end="300" vehsPerHour="35.939572670924434" departLane="free"/>
  <flow id="JF47139" begin="240" fromJunction="J7" toJunction="J3" end="300" vehsPerHour="23.32077325569961" departLane="free"/>
  <flow id="JF47140" begin="240" fromJunction="J7" toJunction="J4" end="300" vehsPerHour="67.72263301002437" departLane="free"/>
  <flow id="JF47141" begin="240" fromJunction="J7" toJunction="J6" end="300" vehsPerHour="41.4758507868302" departLane="free"/>
  <flow id="JF47142" begin="300" fromJunction="J0" toJunction="J4" end="360" vehsPerHour="79.04424610845466" departLane="free"/>
  <flow id="JF47143" begin="300" fromJunction="J0" toJunction="J5" end="360" vehsPerHour="112.13057384898781" departLane="free"/>
  <flow id="JF47144" begin="300" fromJunction="J0" toJunction="J6" end="360" vehsPerHour="92.39047061645212" departLane="free"/>
  <flow id="JF47145" begin="300" fromJunction="J0" toJunction="J7" end="360" vehsPerHour="104.7530771214619" departLane="free"/>
  <flow id="JF47146" begin="300" fromJunction="J3" toJunction="J0" end="360" vehsPerHour="72.06703891867382" departLane="free"/>
  <flow id="JF47147" begin="300" fromJunction="J3" toJunction="J4" end="360" vehsPerHour="19.093335336738157" departLane="free"/>
  <flow id="JF47148" begin="300" fromJunction="J3" toJunction="J5" end="360" vehsPerHour="36.29096020468278" departLane="free"/>
  <flow id="JF47149" begin="300" fromJunction="J3" toJunction="J7" end="360" vehsPerHour="93.74627502628957" departLane="free"/>
  <flow id="JF47150" begin="300" fromJunction="J4" toJunction="J0" end="360" vehsPerHour="54.158559635711896" departLane="free"/>
  <flow id="JF47151" begin="300" fromJunction="J4" toJunction="J6" end="360" vehsPerHour="2.2298116425552585" departLane="free"/>
  <flow id="JF47152" begin="300" fromJunction="J4" toJunction="J7" end="360" vehsPerHour="2.0254042347958534" departLane="free"/>
  <flow id="JF47153" begin="300" fromJunction="J5" toJunction="J0" end="360" vehsPerHour="20.143044526468838" departLane="free"/>
  <flow id="JF47154" begin="300" fromJunction="J5" toJunction="J6" end="360" vehsPerHour="63.09059771674931" departLane="free"/>
  <flow id="JF47155" begin="300" fromJunction="J5" toJunction="J7" end="360" vehsPerHour="30.241660591054146" departLane="free"/>
  <flow id="JF47156" begin="300" fromJunction="J6" toJunction="J0" end="360" vehsPerHour="24.776842550842428" departLane="free"/>
  <flow id="JF47157" begin="300" fromJunction="J6" toJunction="J4" end="360" vehsPerHour="39.71935774192579" departLane="free"/>
  <flow id="JF47158" begin="300" fromJunction="J6" toJunction="J5" end="360" vehsPerHour="51.13358339629937" departLane="free"/>
  <flow id="JF47159" begin="300" fromJunction="J6" toJunction="J7" end="360" vehsPerHour="52.52260417241679" departLane="free"/>
  <flow id="JF47160" begin="300" fromJunction="J7" toJunction="J0" end="360" vehsPerHour="20.76100793266452" departLane="free"/>
  <flow id="JF47161" begin="300" fromJunction="J7" toJunction="J4" end="360" vehsPerHour="39.84244137262119" departLane="free"/>
  <flow id="JF47162" begin="300" fromJunction="J7" toJunction="J5" end="360" vehsPerHour="45.83973577544343" departLane="free"/>
  <flow id="JF47163" begin="360" fromJunction="J0" toJunction="J3" end="420" vehsPerHour="125.47654981751234" departLane="free"/>
  <flow id="JF47164" begin="360" fromJunction="J0" toJunction="J7" end="420" vehsPerHour="115.92787901972056" departLane="free"/>
  <flow id="JF47165" begin="360" fromJunction="J3" toJunction="J0" end="420" vehsPerHour="107.27850699167816" departLane="free"/>
  <flow id="JF47166" begin="360" fromJunction="J3" toJunction="J4" end="420" vehsPerHour="90.85293895971478" departLane="free"/>
  <flow id="JF47167" begin="360" fromJunction="J3" toJunction="J6" end="420" vehsPerHour="107.27680480396315" departLane="free"/>
  <flow id="JF47168" begin="360" fromJunction="J3" toJunction="J7" end="420" vehsPerHour="110.23955238937768" departLane="free"/>
  <flow id="JF47169" begin="360" fromJunction="J4" toJunction="J3" end="420" vehsPerHour="60.00354782333821" departLane="free"/>
  <flow id="JF47170" begin="360" fromJunction="J4" toJunction="J6" end="420" vehsPerHour="62.32858208605532" departLane="free"/>
  <flow id="JF47171" begin="360" fromJunction="J4" toJunction="J7" end="420" vehsPerHour="8.672603269794653" departLane="free"/>
  <flow id="JF47172" begin="360" fromJunction="J5" toJunction="J3" end="420" vehsPerHour="42.79660772699481" departLane="free"/>
  <flow id="JF47173" begin="360" fromJunction="J5" toJunction="J4" end="420" vehsPerHour="37.68319008975529" departLane="free"/>
  <flow id="JF47174" begin="360" fromJunction="J5" toJunction="J6" end="420" vehsPerHour="13.412167868468007" departLane="free"/>
  <flow id="JF47175" begin="360" fromJunction="J5" toJunction="J7" end="420" vehsPerHour="47.34357312034036" departLane="free"/>
  <flow id="JF47176" begin="360" fromJunction="J6" toJunction="J0" end="420" vehsPerHour="1.3396043020510608" departLane="free"/>
  <flow id="JF47177" begin="360" fromJunction="J6" toJunction="J3" end="420" vehsPerHour="30.735280916545964" departLane="free"/>
  <flow id="JF47178" begin="360" fromJunction="J6" toJunction="J4" end="420" vehsPerHour="11.879397277174307" departLane="free"/>
  <flow id="JF47179" begin="360" fromJunction="J6" toJunction="J7" end="420" vehsPerHour="20.57821869019349" departLane="free"/>
  <flow id="JF47180" begin="360" fromJunction="J7" toJunction="J3" end="420" vehsPerHour="67.99452048478611" departLane="free"/>
  <flow id="JF47181" begin="360" fromJunction="J7" toJunction="J4" end="420" vehsPerHour="9.208701402506597" departLane="free"/>
  <flow id="JF47182" begin="360" fromJunction="J7" toJunction="J5" end="420" vehsPerHour="42.93357651029864" departLane="free"/>
  <flow id="JF47183" begin="360" fromJunction="J7" toJunction="J6" end="420" vehsPerHour="65.85047430613403" departLane="free"/>
  <flow id="JF47184" begin="420" fromJunction="J0" toJunction="J3" end="480" vehsPerHour="33.418258195226585" departLane="free"/>
  <flow id="JF47185" begin="420" fromJunction="J0" toJunction="J4" end="480" vehsPerHour="95.03279157130567" departLane="free"/>
  <flow id="JF47186" begin="420" fromJunction="J0" toJunction="J7" end="480" vehsPerHour="66.96495053431204" departLane="free"/>
  <flow id="JF47187" begin="420" fromJunction="J3" toJunction="J0" end="480" vehsPerHour="125.24946004363913" departLane="free"/>
  <flow id="JF47188" begin="420" fromJunction="J3" toJunction="J4" end="480" vehsPerHour="5.915083258350277" departLane="free"/>
  <flow id="JF47189" begin="420" fromJunction="J3" toJunction="J5" end="480" vehsPerHour="10.65659792516889" departLane="free"/>
  <flow id="JF47190" begin="420" fromJunction="J4" toJunction="J3" end="480" vehsPerHour="16.474056210939224" departLane="free"/>
  <flow id="JF47191" begin="420" fromJunction="J4" toJunction="J5" end="480" vehsPerHour="63.79314957793429" departLane="free"/>
  <flow id="JF47192" begin="420" fromJunction="J4" toJunction="J6" end="480" vehsPerHour="55.62897196144729" departLane="free"/>
  <flow id="JF47193" begin="420" fromJunction="J4" toJunction="J7" end="480" vehsPerHour="42.200980728892326" departLane="free"/>
  <flow id="JF47194" begin="420" fromJunction="J5" toJunction="J3" end="480" vehsPerHour="16.127356102444406" departLane="free"/>
  <flow id="JF47195" begin="420" fromJunction="J5" toJunction="J4" end="480" vehsPerHour="41.8767025253675" departLane="free"/>
  <flow id="JF47196" begin="420" fromJunction="J5" toJunction="J6" end="480" vehsPerHour="62.042116350485365" departLane="free"/>
  <flow id="JF47197" begin="420" fromJunction="J5" toJunction="J7" end="480" vehsPerHour="61.82787364483827" departLane="free"/>
  <flow id="JF47198" begin="420" fromJunction="J6" toJunction="J3" end="480" vehsPerHour="25.781425439817585" departLane="free"/>
  <flow id="JF47199" begin="420" fromJunction="J6" toJunction="J4" end="480" vehsPerHour="59.687285039819535" departLane="free"/>
  <flow id="JF47200" begin="420" fromJunction="J6" toJunction="J5" end="480" vehsPerHour="34.09365689152533" departLane="free"/>
  <flow id="JF47201" begin="420" fromJunction="J6" toJunction="J7" end="480" vehsPerHour="60.162627703830836" departLane="free"/>
  <flow id="JF47202" begin="420" fromJunction="J7" toJunction="J0" end="480" vehsPerHour="14.325011114830229" departLane="free"/>
  <flow id="JF47203" begin="420" fromJunction="J7" toJunction="J3" end="480" vehsPerHour="30.627223883702268" departLane="free"/>
  <flow id="JF47204" begin="420" fromJunction="J7" toJunction="J4" end="480" vehsPerHour="5.075439802047084" departLane="free"/>
  <flow id="JF47205" begin="420" fromJunction="J7" toJunction="J6" end="480" vehsPerHour="43.340346475965084" departLane="free"/>
  <flow id="JF47206" begin="480" fromJunction="J0" toJunction="J4" end="540" vehsPerHour="66.2535186325777" departLane="free"/>
  <flow id="JF47207" begin="480" fromJunction="J0" toJunction="J5" end="540" vehsPerHour="48.727403027229826" departLane="free"/>
  <flow id="JF47208" begin="480" fromJunction="J0" toJunction="J6" end="540" vehsPerHour="91.88038394187318" departLane="free"/>
  <flow id="JF47209" begin="480" fromJunction="J0" toJunction="J7" end="540" vehsPerHour="122.41131667082755" departLane="free"/>
  <flow id="JF47210" begin="480" fromJunction="J3" toJunction="J0" end="540" vehsPerHour="96.3826879243945" departLane="free"/>
  <flow id="JF47211" begin="480" fromJunction="J3" toJunction="J4" end="540" vehsPerHour="53.916286128986904" departLane="free"/>
  <flow id="JF47212" begin="480" fromJunction="J3" toJunction="J6" end="540" vehsPerHour="83.58000578020865" departLane="free"/>
  <flow id="JF47213" begin="480" fromJunction="J3" toJunction="J7" end="540" vehsPerHour="38.70632900805921" departLane="free"/>
  <flow id="JF47214" begin="480" fromJunction="J4" toJunction="J0" end="540" vehsPerHour="64.07578660067797" departLane="free"/>
  <flow id="JF47215" begin="480" fromJunction="J4" toJunction="J5" end="540" vehsPerHour="49.907945611708435" departLane="free"/>
  <flow id="JF47216" begin="480" fromJunction="J4" toJunction="J6" end="540" vehsPerHour="37.14819070804181" departLane="free"/>
  <flow id="JF47217" begin="480" fromJunction="J5" toJunction="J0" end="540" vehsPerHour="0.8790504278287986" departLane="free"/>
  <flow id="JF47218" begin="480" fromJunction="J5" toJunction="J3" end="540" vehsPerHour="22.82759784119499" departLane="free"/>
  <flow id="JF47219" begin="480" fromJunction="J5" toJunction="J4" end="540" vehsPerHour="49.60184560693971" departLane="free"/>
  <flow id="JF47220" begin="480" fromJunction="J5" toJunction="J7" end="540" vehsPerHour="27.946472398390384" departLane="free"/>
  <flow id="JF47221" begin="480" fromJunction="J6" toJunction="J0" end="540" vehsPerHour="4.503325086479897" departLane="free"/>
  <flow id="JF47222" begin="480" fromJunction="J6" toJunction="J3" end="540" vehsPerHour="55.31784879543954" departLane="free"/>
  <flow id="JF47223" begin="480" fromJunction="J6" toJunction="J5" end="540" vehsPerHour="2.117049304220607" departLane="free"/>
  <flow id="JF47224" begin="480" fromJunction="J7" toJunction="J3" end="540" vehsPerHour="17.836809621570076" departLane="free"/>
  <flow id="JF47225" begin="480" fromJunction="J7" toJunction="J4" end="540" vehsPerHour="68.59652466544269" departLane="free"/>
  <flow id="JF47226" begin="480" fromJunction="J7" toJunction="J5" end="540" vehsPerHour="57.78195353163309" departLane="free"/>
  <flow id="JF47227" begin="480" fromJunction="J7" toJunction="J6" end="540" vehsPerHour="46.19596163819598" departLane="free"/>
  <flow id="JF47228" begin="540" fromJunction="J0" toJunction="J3" end="600" vehsPerHour="107.98333982752615" departLane="free"/>
  <flow id="JF47229" begin="540" fromJunction="J0" toJunction="J4" end="600" vehsPerHour="124.21402333847058" departLane="free"/>
  <flow id="JF47230" begin="540" fromJunction="J0" toJunction="J5" end="600" vehsPerHour="98.00605701489268" departLane="free"/>
  <flow id="JF47231" begin="540" fromJunction="J0" toJunction="J6" end="600" vehsPerHour="126.32531953352151" departLane="free"/>
  <flow id="JF47232" begin="540" fromJunction="J0" toJunction="J7" end="600" vehsPerHour="136.3600310593511" departLane="free"/>
  <flow id="JF47233" begin="540" fromJunction="J3" toJunction="J4" end="600" vehsPerHour="33.544129588027836" departLane="free"/>
  <flow id="JF47234" begin="540" fromJunction="J3" toJunction="J5" end="600" vehsPerHour="71.89351484979592" departLane="free"/>
  <flow id="JF47235" begin="540" fromJunction="J4" toJunction="J0" end="600" vehsPerHour="21.215445529121634" departLane="free"/>
  <flow id="JF47236" begin="540" fromJunction="J5" toJunction="J0" end="600" vehsPerHour="19.299096710108184" departLane="free"/>
  <flow id="JF47237" begin="540" fromJunction="J5" toJunction="J3" end="600" vehsPerHour="4.554910428468314" departLane="free"/>
  <flow id="JF47238" begin="540" fromJunction="J5" toJunction="J6" end="600" vehsPerHour="26.87182514194057" departLane="free"/>
  <flow id="JF47239" begin="540" fromJunction="J6" toJunction="J0" end="600" vehsPerHour="7.839663204422593" departLane="free"/>
  <flow id="JF47240" begin="540" fromJunction="J6" toJunction="J3" end="600" vehsPerHour="1.6925426538655632" departLane="free"/>
  <flow id="JF47241" begin="540" fromJunction="J6" toJunction="J5" end="600" vehsPerHour="24.674604813899" departLane="free"/>
  <flow id="JF47242" begin="540" fromJunction="J6" toJunction="J7" end="600" vehsPerHour="11.330022481009456" departLane="free"/>
  <flow id="JF47243" begin="540" fromJunction="J7" toJunction="J0" end="600" vehsPerHour="28.82616115018411" departLane="free"/>
  <flow id="JF47244" begin="540" fromJunction="J7" toJunction="J3" end="600" vehsPerHour="67.1351007008564" departLane="free"/>
  <flow id="JF47245" begin="540" fromJunction="J7" toJunction="J4" end="600" vehsPerHour="10.882042766286855" departLane="free"/>
  <flow id="JF47246" begin="540" fromJunction="J7" toJunction="J5" end="600" vehsPerHour="36.607855903726744" departLane="free"/>
  <flow id="JF47247" begin="540" fromJunction="J7" toJunction="J6" end="600" vehsPerHour="11.456250539173539" departLane="free"/>
  <flow id="JF47248" begin="600" fromJunction="J0" toJunction="J3" end="660" vehsPerHour="2.8400340536324573" departLane="free"/>
  <flow id="JF47249" begin="600" fromJunction="J0" toJunction="J5" end="660" vehsPerHour="94.40924058511747" departLane="free"/>
  <flow id="JF47250" begin="600" fromJunction="J0" toJunction="J6" end="660" vehsPerHour="19.64527324077641" departLane="free"/>
  <flow id="JF47251" begin="600" fromJunction="J3" toJunction="J4" end="660" vehsPerHour="111.21051744691655" departLane="free"/>
  <flow id="JF47252" begin="600" fromJunction="J3" toJunction="J7" end="660" vehsPerHour="86.1660983714492" departLane="free"/>
  <flow id="JF47253" begin="600" fromJunction="J4" toJunction="J5" end="660" vehsPerHour="2.33857250268853" departLane="free"/>
  <flow id="JF47254" begin="600" fromJunction="J4" toJunction="J6" end="660" vehsPerHour="7.87914504948283" departLane="free"/>
  <flow id="JF47255" begin="600" fromJunction="J4" toJunction="J7" end="660" vehsPerHour="39.17406653094088" departLane="free"/>
  <flow id="JF47256" begin="600" fromJunction="J5" toJunction="J3" end="660" vehsPerHour="21.2397389564937" departLane="free"/>
  <flow id="JF47257" begin="600" fromJunction="J5" toJunction="J4" end="660" vehsPerHour="39.8413796560509" departLane="free"/>
  <flow id="JF47258" begin="600" fromJunction="J5" toJunction="J6" end="660" vehsPerHour="68.0888730851362" departLane="free"/>
  <flow id="JF47259" begin="600" fromJunction="J5" toJunction="J7" end="660" vehsPerHour="58.08262492408842" departLane="free"/>
  <flow id="JF47260" begin="600" fromJunction="J6" toJunction="J0" end="660" vehsPerHour="20.4481327741786" departLane="free"/>
  <flow id="JF47261" begin="600" fromJunction="J6" toJunction="J5" end="660" vehsPerHour="58.36677660131171" departLane="free"/>
  <flow id="JF47262" begin="600" fromJunction="J6" toJunction="J7" end="660" vehsPerHour="3.39293003237786" departLane="free"/>
  <flow id="JF47263" begin="600" fromJunction="J7" toJunction="J3" end="660" vehsPerHour="2.0236026149776416" departLane="free"/>
  <flow id="JF47264" begin="600" fromJunction="J7" toJunction="J4" end="660" vehsPerHour="46.56453134788265" departLane="free"/>
  <flow id="JF47265" begin="600" fromJunction="J7" toJunction="J6" end="660" vehsPerHour="42.052696536049" departLane="free"/>
  <flow id="JF47266" begin="660" fromJunction="J0" toJunction="J3" end="720" vehsPerHour="21.5015082164585" departLane="free"/>
  <flow id="JF47267" begin="660" fromJunction="J0" toJunction="J4" end="720" vehsPerHour="9.871589361160911" departLane="free"/>
  <flow id="JF47268" begin="660" fromJunction="J0" toJunction="J5" end="720" vehsPerHour="74.5544729974148" departLane="free"/>
  <flow id="JF47269" begin="660" fromJunction="J0" toJunction="J6" end="720" vehsPerHour="27.178793494971227" departLane="free"/>
  <flow id="JF47270" begin="660" fromJunction="J3" toJunction="J0" end="720" vehsPerHour="40.67209518660193" departLane="free"/>
  <flow id="JF47271" begin="660" fromJunction="J3" toJunction="J4" end="720" vehsPerHour="136.2518923505582" departLane="free"/>
  <flow id="JF47272" begin="660" fromJunction="J3" toJunction="J5" end="720" vehsPerHour="122.14729389514854" departLane="free"/>
  <flow id="JF47273" begin="660" fromJunction="J3" toJunction="J6" end="720" vehsPerHour="62.349126667525724" departLane="free"/>
  <flow id="JF47274" begin="660" fromJunction="J4" toJunction="J0" end="720" vehsPerHour="25.251790008585118" departLane="free"/>