<?xml version="1.0" encoding="UTF-8"?>
<routes xmlns:xsi="http://www.w3.org/2001/XMLSchema-instance" xsi:noNamespaceSchemaLocation="http://sumo.dlr.de/xsd/routes_file.xsd">
  <flow id="JF16010" begin="0" fromJunction="J0" toJunction="J3" end="5000" vehsPerHour="131.6567735769198" departLane="free"/>
  <flow id="JF16011" begin="0" fromJunction="J3" toJunction="J0" end="5000" vehsPerHour="122.01592756283593" departLane="free"/>
  <flow id="JF16012" begin="0" fromJunction="J0" toJunction="J7" end="5000" vehsPerHour="71.0418528391656" departLane="free"/>
  <flow id="JF16013" begin="0" fromJunction="J0" toJunction="J5" end="5000" vehsPerHour="337.3203290066212" departLane="free"/>
  <flow id="JF16014" begin="0" fromJunction="J0" toJunction="J4" end="5000" vehsPerHour="274.3805180830233" departLane="free"/>
  <flow id="JF16015" begin="0" fromJunction="J0" toJunction="J6" end="5000" vehsPerHour="236.0263607369512" departLane="free"/>
  <flow id="JF16016" begin="0" fromJunction="J3" toJunction="J7" end="5000" vehsPerHour="403.92969348461435" departLane="free"/>
  <flow id="JF16017" begin="0" fromJunction="J3" toJunction="J5" end="5000" vehsPerHour="240.42682394703277" departLane="free"/>
  <flow id="JF16018" begin="0" fromJunction="J3" toJunction="J4" end="5000" vehsPerHour="497.32716864461497" departLane="free"/>
  <flow id="JF16019" begin="0" fromJunction="J3" toJunction="J6" end="5000" vehsPerHour="318.0593632130616" departLane="free"/>
  <flow id="JF16020" begin="0" fromJunction="J7" toJunction="J5" end="5000" vehsPerHour="10.099689106956403" departLane="free"/>
  <flow id="JF16021" begin="0" fromJunction="J7" toJunction="J4" end="5000" vehsPerHour="14.574589125608469" departLane="free"/>
  <flow id="JF16022" begin="0" fromJunction="J7" toJunction="J6" end="5000" vehsPerHour="56.715633944067676" departLane="free"/>
  <flow id="JF16023" begin="0" fromJunction="J5" toJunction="J7" end="5000" vehsPerHour="57.103579390573906" departLane="free"/>
  <flow id="JF16024" begin="0" fromJunction="J5" toJunction="J4" end="5000" vehsPerHour="57.36935662739715" departLane="free"/>
  <flow id="JF16025" begin="0" fromJunction="J5" toJunction="J6" end="5000" vehsPerHour="11.532321834614281" departLane="free"/>
  <flow id="JF16026" begin="0" fromJunction="J4" toJunction="J7" end="5000" vehsPerHour="45.25634701403439" departLane="free"/>
  <flow id="JF16027" begin="0" fromJunction="J4" toJunction="J5" end="5000" vehsPerHour="63.0127925592626" departLane="free"/>
  <flow id="JF16028" begin="0" fromJunction="J4" toJunction="J6" end="5000" vehsPerHour="59.23195529233269" departLane="free"/>
  <flow id="JF16029" begin="0" fromJunction="J6" toJunction="J7" end="5000" vehsPerHour="65.26378602962014" departLane="free"/>
  <flow id="JF16030" begin="0" fromJunction="J6" toJunction="J5" end="5000" vehsPerHour="64.237578177447" departLane="free"/>
  <flow id="JF16031" begin="0" fromJunction="J6" toJunction="J4" end="5000" vehsPerHour="17.35958606261218" departLane="free"/>
  <flow id="JF16032" begin="0" fromJunction="J7" toJunction="J0" end="5000" vehsPerHour="262.73329171739624" departLane="free"/>
  <flow id="JF16033" begin="0" fromJunction="J7" toJunction="J3" end="5000" vehsPerHour="110.433902972508" departLane="free"/>
  <flow id="JF16034" begin="0" fromJunction="J5" toJunction="J0" end="5000" vehsPerHour="81.0885931489121" departLane="free"/>
  <flow id="JF16035" begin="0" fromJunction="J5" toJunction="J3" end="5000" vehsPerHour="155.57650995347302" departLane="free"/>
  <flow id="JF16036" begin="0" fromJunction="J4" toJunction="J0" end="5000" vehsPerHour="225.57338219459368" departLane="free"/>
  <flow id="JF16037" begin="0" fromJunction="J4" toJunction="J3" end="5000" vehsPerHour="125.44401037010132" departLane="free"/>
  <flow id="JF16038" begin="0" fromJunction="J6" toJunction="J0" end="5000" vehsPerHour="60.38677158784629" departLane="free"/>
  <flow id="JF16039" begin="0" fromJunction="J6" toJunction="J3" end="5000" vehsPerHour="246.76020314492558" departLane="free"/>
  <flow id="JF16040" begin="5000" fromJunction="J0" toJunction="J3" end="5060" vehsPerHour="61.16869087947306" departLane="free"/>
  <flow id="JF16041" begin="5000" fromJunction="J3" toJunction="J0" end="5060" vehsPerHour="130.66146617457974" departLane="free"/>
  <flow id="JF16042" begin="5000" fromJunction="J0" toJunction="J7" end="5060" vehsPerHour="37.08596666163354" departLane="free"/>
  <flow id="JF16043" begin="5000" fromJunction="J0" toJunction="J5" end="5060" vehsPerHour="51.46635815430356" departLane="free"/>
  <flow id="JF16044" begin="5000" fromJunction="J0" toJunction="J4" end="5060" vehsPerHour="10.81427943310751" departLane="free"/>
  <flow id="JF16045" begin="5000" fromJunction="J0" toJunction="J6" end="5060" vehsPerHour="53.21341515587939" departLane="free"/>
  <flow id="JF16046" begin="5000" fromJunction="J3" toJunction="J7" end="5060" vehsPerHour="99.3969381802748" departLane="free"/>
  <flow id="JF16047" begin="5000" fromJunction="J3" toJunction="J5" end="5060" vehsPerHour="58.704825684969386" departLane="free"/>
  <flow id="JF16048" begin="5000" fromJunction="J3" toJunction="J4" end="5060" vehsPerHour="82.98353208426113" departLane="free"/>
  <flow id="JF16049" begin="5000" fromJunction="J3" toJunction="J6" end="5060" vehsPerHour="124.14171708409049" departLane="free"/>
  <flow id="JF16050" begin="5000" fromJunction="J7" toJunction="J5" end="5060" vehsPerHour="34.6524058284549" departLane="free"/>
  <flow id="JF16051" begin="5000" fromJunction="J7" toJunction="J4" end="5060" vehsPerHour="20.32660789676027" departLane="free"/>
  <flow id="JF16052" begin="5000" fromJunction="J7" toJunction="J6" end="5060" vehsPerHour="9.218475079979761" departLane="free"/>
  <flow id="JF16053" begin="5000" fromJunction="J5" toJunction="J7" end="5060" vehsPerHour="40.62361288200742" departLane="free"/>
  <flow id="JF16054" begin="5000" fromJunction="J5" toJunction="J4" end="5060" vehsPerHour="49.024904076202894" departLane="free"/>
  <flow id="JF16055" begin="5000" fromJunction="J5" toJunction="J6" end="5060" vehsPerHour="66.24158729523366" departLane="free"/>
  <flow id="JF16056" begin="5000" fromJunction="J4" toJunction="J7" end="5060" vehsPerHour="19.057034113474753" departLane="free"/>
  <flow id="JF16057" begin="5000" fromJunction="J4" toJunction="J5" end="5060" vehsPerHour="48.5187032167696" departLane="free"/>
  <flow id="JF16058" begin="5000" fromJunction="J4" toJunction="J6" end="5060" vehsPerHour="50.610951490667226" departLane="free"/>
  <flow id="JF16059" begin="5000" fromJunction="J6" toJunction="J7" end="5060" vehsPerHour="60.95093007901001" departLane="free"/>
  <flow id="JF16060" begin="5000" fromJunction="J6" toJunction="J5" end="5060" vehsPerHour="66.07179833461551" departLane="free"/>
  <flow id="JF16061" begin="5000" fromJunction="J6" toJunction="J4" end="5060" vehsPerHour="25.730036909838663" departLane="free"/>
  <flow id="JF16062" begin="5000" fromJunction="J7" toJunction="J0" end="5060" vehsPerHour="18.296662795816218" departLane="free"/>
  <flow id="JF16063" begin="5000" fromJunction="J7" toJunction="J3" end="5060" vehsPerHour="4.369019046460001" departLane="free"/>
  <flow id="JF16064" begin="5000" fromJunction="J5" toJunction="J0" end="5060" vehsPerHour="45.09376637335139" departLane="free"/>
  <flow id="JF16065" begin="5000" fromJunction="J5" toJunction="J3" end="5060" vehsPerHour="1.2208976379356185" departLane="free"/>
  <flow id="JF16066" begin="5000" fromJunction="J4" toJunction="J0" end="5060" vehsPerHour="0.8053066215597822" departLane="free"/>
  <flow id="JF16067" begin="5000" fromJunction="J4" toJunction="J3" end="5060" vehsPerHour="6.823190246119896" departLane="free"/>
  <flow id="JF16068" begin="5000" fromJunction="J6" toJunction="J0" end="5060" vehsPerHour="11.93484425441815" departLane="free"/>
  <flow id="JF16069" begin="5000" fromJunction="J6" toJunction="J3" end="5060" vehsPerHour="30.31213620050969" departLane="free"/>
  <flow id="JF16070" begin="5060" fromJunction="J0" toJunction="J3" end="5120" vehsPerHour="104.85806066167552" departLane="free"/>
  <flow id="JF16071" begin="5060" fromJunction="J3" toJunction="J0" end="5120" vehsPerHour="94.35863751815833" departLane="free"/>
  <flow id="JF16072" begin="5060" fromJunction="J0" toJunction="J7" end="5120" vehsPerHour="91.02527362518657" departLane="free"/>
  <flow id="JF16073" begin="5060" fromJunction="J0" toJunction="J5" end="5120" vehsPerHour="60.50002953347695" departLane="free"/>
  <flow id="JF16074" begin="5060" fromJunction="J0" toJunction="J4" end="5120" vehsPerHour="7.6993818047663245" departLane="free"/>
  <flow id="JF16075" begin="5060" fromJunction="J0" toJunction="J6" end="5120" vehsPerHour="32.18986385420753" departLane="free"/>
  <flow id="JF16076" begin="5060" fromJunction="J3" toJunction="J7" end="5120" vehsPerHour="123.44011814090284" departLane="free"/>
  <flow id="JF16077" begin="5060" fromJunction="J3" toJunction="J5" end="5120" vehsPerHour="123.30972729779509" departLane="free"/>
  <flow id="JF16078" begin="5060" fromJunction="J3" toJunction="J4" end="5120" vehsPerHour="37.41222524638351" departLane="free"/>
  <flow id="JF16079" begin="5060" fromJunction="J3" toJunction="J6" end="5120" vehsPerHour="45.413547418946735" departLane="free"/>
  <flow id="JF16080" begin="5060" fromJunction="J7" toJunction="J5" end="5120" vehsPerHour="36.48864117201579" departLane="free"/>
  <flow id="JF16081" begin="5060" fromJunction="J7" toJunction="J4" end="5120" vehsPerHour="19.166345266955638" departLane="free"/>
  <flow id="JF16082" begin="5060" fromJunction="J7" toJunction="J6" end="5120" vehsPerHour="21.05467215430004" departLane="free"/>
  <flow id="JF16083" begin="5060" fromJunction="J5" toJunction="J7" end="5120" vehsPerHour="47.89186994359892" departLane="free"/>
  <flow id="JF16084" begin="5060" fromJunction="J5" toJunction="J4" end="5120" vehsPerHour="11.261702978794297" departLane="free"/>
  <flow id="JF16085" begin="5060" fromJunction="J5" toJunction="J6" end="5120" vehsPerHour="44.75029524602616" departLane="free"/>
  <flow id="JF16086" begin="5060" fromJunction="J4" toJunction="J7" end="5120" vehsPerHour="40.22497989838068" departLane="free"/>
  <flow id="JF16087" begin="5060" fromJunction="J4" toJunction="J5" end="5120" vehsPerHour="9.570625637717884" departLane="free"/>
  <flow id="JF16088" begin="5060" fromJunction="J4" toJunction="J6" end="5120" vehsPerHour="51.47854385162646" departLane="free"/>
  <flow id="JF16089" begin="5060" fromJunction="J6" toJunction="J7" end="5120" vehsPerHour="59.50698357061907" departLane="free"/>
  <flow id="JF16090" begin="5060" fromJunction="J6" toJunction="J5" end="5120" vehsPerHour="57.515996066765965" departLane="free"/>
  <flow id="JF16091" begin="5060" fromJunction="J6" toJunction="J4" end="5120" vehsPerHour="58.258683522276236" departLane="free"/>
  <flow id="JF16092" begin="5060" fromJunction="J7" toJunction="J0" end="5120" vehsPerHour="59.10334776868355" departLane="free"/>
  <flow id="JF16093" begin="5060" fromJunction="J7" toJunction="J3" end="5120" vehsPerHour="25.230223471714847" departLane="free"/>
  <flow id="JF16094" begin="5060" fromJunction="J5" toJunction="J0" end="5120" vehsPerHour="20.826909332242323" departLane="free"/>
  <flow id="JF16095" begin="5060" fromJunction="J5" toJunction="J3" end="5120" vehsPerHour="2.8816657922744002" departLane="free"/>
  <flow id="JF16096" begin="5060" fromJunction="J4" toJunction="J0" end="5120" vehsPerHour="22.194654177517595" departLane="free"/>
  <flow id="JF16097" begin="5060" fromJunction="J4" toJunction="J3" end="5120" vehsPerHour="54.13142619802976" departLane="free"/>
  <flow id="JF16098" begin="5060" fromJunction="J6" toJunction="J0" end="5120" vehsPerHour="47.11627662057969" departLane="free"/>
  <flow id="JF16099" begin="5060" fromJunction="J6" toJunction="J3" end="5120" vehsPerHour="4.528839393768889" departLane="free"/>
  <flow id="JF16100" begin="5120" fromJunction="J0" toJunction="J3" end="5180" vehsPerHour="130.6298204970224" departLane="free"/>
  <flow id="JF16101" begin="5120" fromJunction="J3" toJunction="J0" end="5180" vehsPerHour="86.39210052508257" departLane="free"/>
  <flow id="JF16102" begin="5120" fromJunction="J0" toJunction="J7" end="5180" vehsPerHour="35.053004123220894" departLane="free"/>
  <flow id="JF16103" begin="5120" fromJunction="J0" toJunction="J5" end="5180" vehsPerHour="44.25336507367065" departLane="free"/>
  <flow id="JF16104" begin="5120" fromJunction="J0" toJunction="J4" end="5180" vehsPerHour="70.95866911245325" departLane="free"/>
  <flow id="JF16105" begin="5120" fromJunction="J0" toJunction="J6" end="5180" vehsPerHour="124.66438798373213" departLane="free"/>
  <flow id="JF16106" begin="5120" fromJunction="J3" toJunction="J7" end="5180" vehsPerHour="19.341394100904044" departLane="free"/>
  <flow id="JF16107" begin="5120" fromJunction="J3" toJunction="J5" end="5180" vehsPerHour="39.134812938479016" departLane="free"/>
  <flow id="JF16108" begin="5120" fromJunction="J3" toJunction="J4" end="5180" vehsPerHour="60.257961343533196" departLane="free"/>
  <flow id="JF16109" begin="5120" fromJunction="J3" toJunction="J6" end="5180" vehsPerHour="115.83209746546939" departLane="free"/>
  <flow id="JF16110" begin="5120" fromJunction="J7" toJunction="J5" end="5180" vehsPerHour="41.89989154876667" departLane="free"/>
  <flow id="JF16111" begin="5120" fromJunction="J7" toJunction="J4" end="5180" vehsPerHour="63.77364749626443" departLane="free"/>
  <flow id="JF16112" begin="5120" fromJunction="J7" toJunction="J6" end="5180" vehsPerHour="8.591902726682788" departLane="free"/>
  <flow id="JF16113" begin="5120" fromJunction="J5" toJunction="J7" end="5180" vehsPerHour="64.54653629668847" departLane="free"/>
  <flow id="JF16114" begin="5120" fromJunction="J5" toJunction="J4" end="5180" vehsPerHour="46.49806399292283" departLane="free"/>
  <flow id="JF16115" begin="5120" fromJunction="J5" toJunction="J6" end="5180" vehsPerHour="8.205497910443196" departLane="free"/>
  <flow id="JF16116" begin="5120" fromJunction="J4" toJunction="J7" end="5180" vehsPerHour="49.68474716125244" departLane="free"/>
  <flow id="JF16117" begin="5120" fromJunction="J4" toJunction="J5" end="5180" vehsPerHour="6.532752292415165" departLane="free"/>
  <flow id="JF16118" begin="5120" fromJunction="J4" toJunction="J6" end="5180" vehsPerHour="2.385718039715608" departLane="free"/>
  <flow id="JF16119" begin="5120" fromJunction="J6" toJunction="J7" end="5180" vehsPerHour="4.650091925821047" departLane="free"/>
  <flow id="JF16120" begin="5120" fromJunction="J6" toJunction="J5" end="5180" vehsPerHour="66.23063845251477" departLane="free"/>
  <flow id="JF16121" begin="5120" fromJunction="J6" toJunction="J4" end="5180" vehsPerHour="66.175366138151" departLane="free"/>
  <flow id="JF16122" begin="5120" fromJunction="J7" toJunction="J0" end="5180" vehsPerHour="38.38187200547544" departLane="free"/>
  <flow id="JF16123" begin="5120" fromJunction="J7" toJunction="J3" end="5180" vehsPerHour="24.484019307704735" departLane="free"/>
  <flow id="JF16124" begin="5120" fromJunction="J5" toJunction="J0" end="5180" vehsPerHour="43.71260411026388" departLane="free"/>
  <flow id="JF16125" begin="5120" fromJunction="J5" toJunction="J3" end="5180" vehsPerHour="25.666377778362122" departLane="free"/>
  <flow id="JF16126" begin="5120" fromJunction="J4" toJunction="J0" end="5180" vehsPerHour="63.66060766099578" departLane="free"/>
  <flow id="JF16127" begin="5120" fromJunction="J4" toJunction="J3" end="5180" vehsPerHour="43.70776783814381" departLane="free"/>
  <flow id="JF16128" begin="5120" fromJunction="J6" toJunction="J0" end="5180" vehsPerHour="52.481718259795294" departLane="free"/>
  <flow id="JF16129" begin="5120" fromJunction="J6" toJunction="J3" end="5180" vehsPerHour="44.03270724728959" departLane="free"/>
  <flow id="JF16130" begin="5180" fromJunction="J0" toJunction="J3" end="5240" vehsPerHour="101.20478363865844" departLane="free"/>
  <flow id="JF16131" begin="5180" fromJunction="J3" toJunction="J0" end="5240" vehsPerHour="84.79733117770199" departLane="free"/>
  <flow id="JF16132" begin="5180" fromJunction="J0" toJunction="J7" end="5240" vehsPerHour="24.169318814759706" departLane="free"/>
  <flow id="JF16133" begin="5180" fromJunction="J0" toJunction="J5" end="5240" vehsPerHour="32.19152729075006" departLane="free"/>
  <flow id="JF16134" begin="5180" fromJunction="J0" toJunction="J4" end="5240" vehsPerHour="5.302127473689826" departLane="free"/>
  <flow id="JF16135" begin="5180" fromJunction="J0" toJunction="J6" end="5240" vehsPerHour="75.60825990645847" departLane="free"/>
  <flow id="JF16136" begin="5180" fromJunction="J3" toJunction="J7" end="5240" vehsPerHour="24.25213854859466" departLane="free"/>
  <flow id="JF16137" begin="5180" fromJunction="J3" toJunction="J5" end="5240" vehsPerHour="90.18797629352478" departLane="free"/>
  <flow id="JF16138" begin="5180" fromJunction="J3" toJunction="J4" end="5240" vehsPerHour="56.93103547920375" departLane="free"/>
  <flow id="JF16139" begin="5180" fromJunction="J3" toJunction="J6" end="5240" vehsPerHour="1.0657172470226868" departLane="free"/>
  <flow id="JF16140" begin="5180" fromJunction="J7" toJunction="J5" end="5240" vehsPerHour="56.1550565857134" departLane="free"/>
  <flow id="JF16141" begin="5180" fromJunction="J7" toJunction="J4" end="5240" vehsPerHour="66.57647469929708" departLane="free"/>
  <flow id="JF16142" begin="5180" fromJunction="J7" toJunction="J6" end="5240" vehsPerHour="27.264534121473336" departLane="free"/>
  <flow id="JF16143" begin="5180" fromJunction="J5" toJunction="J7" end="5240" vehsPerHour="54.57557295247601" departLane="free"/>
  <flow id="JF16144" begin="5180" fromJunction="J5" toJunction="J4" end="5240" vehsPerHour="20.223318578103843" departLane="free"/>
  <flow id="JF16145" begin="5180" fromJunction="J5" toJunction="J6" end="5240" vehsPerHour="38.39602306473934" departLane="free"/>
  <flow id="JF16146" begin="5180" fromJunction="J4" toJunction="J7" end="5240" vehsPerHour="42.29605668297115" departLane="free"/>
  <flow id="JF16147" begin="5180" fromJunction="J4" toJunction="J5" end="5240" vehsPerHour="28.126864415838583" departLane="free"/>
  <flow id="JF16148" begin="5180" fromJunction="J4" toJunction="J6" end="5240" vehsPerHour="28.49391007485976" departLane="free"/>
  <flow id="JF16149" begin="5180" fromJunction="J6" toJunction="J7" end="5240" vehsPerHour="30.963592267482078" departLane="free"/>
  <flow id="JF16150" begin="5180" fromJunction="J6" toJunction="J5" end="5240" vehsPerHour="46.54175274710787" departLane="free"/>
  <flow id="JF16151" begin="5180" fromJunction="J6" toJunction="J4" end="5240" vehsPerHour="8.6727769662307" departLane="free"/>
  <flow id="JF16152" begin="5180" fromJunction="J7" toJunction="J0" end="5240" vehsPerHour="46.57580578448974" departLane="free"/>
  <flow id="JF16153" begin="5180" fromJunction="J7" toJunction="J3" end="5240" vehsPerHour="2.449515904772095" departLane="free"/>
  <flow id="JF16154" begin="5180" fromJunction="J5" toJunction="J0" end="5240" vehsPerHour="11.847377710370724" departLane="free"/>
  <flow id="JF16155" begin="5180" fromJunction="J5" toJunction="J3" end="5240" vehsPerHour="42.35030382249595" departLane="free"/>
  <flow id="JF16156" begin="5180" fromJunction="J4" toJunction="J0" end="5240" vehsPerHour="27.433095794910905" departLane="free"/>
  <flow id="JF16157" begin="5180" fromJunction="J4" toJunction="J3" end="5240" vehsPerHour="51.627360245169406" departLane="free"/>
  <flow id="JF16158" begin="5180" fromJunction="J6" toJunction="J0" end="5240" vehsPerHour="8.251874021426783" departLane="free"/>
  <flow id="JF16159" begin="5180" fromJunction="J6" toJunction="J3" end="5240" vehsPerHour="15.425636748128765" departLane="free"/>
  <flow id="JF16160" begin="5240" fromJunction="J0" toJunction="J3" end="5300" vehsPerHour="136.89981264973522" departLane="free"/>
  <flow id="JF16161" begin="5240" fromJunction="J3" toJunction="J0" end="5300" vehsPerHour="122.20085577904207" departLane="free"/>
  <flow id="JF16162" begin="5240" fromJunction="J0" toJunction="J7" end="5300" vehsPerHour="66.18770912677249" departLane="free"/>
  <flow id="JF16163" begin="5240" fromJunction="J0" toJunction="J5" end="5300" vehsPerHour="1.316867411961656" departLane="free"/>
  <flow id="JF16164" begin="5240" fromJunction="J0" toJunction="J4" end="5300" vehsPerHour="119.39395965628619" departLane="free"/>
  <flow id="JF16165" begin="5240" fromJunction="J0" toJunction="J6" end="5300" vehsPerHour="13.834312084603114" departLane="free"/>
  <flow id="JF16166" begin="5240" fromJunction="J3" toJunction="J7" end="5300" vehsPerHour="102.06537526570874" departLane="free"/>
  <flow id="JF16167" begin="5240" fromJunction="J3" toJunction="J5" end="5300" vehsPerHour="81.67960960147286" departLane="free"/>
  <flow id="JF16168" begin="5240" fromJunction="J3" toJunction="J4" end="5300" vehsPerHour="131.62105869034858" departLane="free"/>
  <flow id="JF16169" begin="5240" fromJunction="J3" toJunction="J6" end="5300" vehsPerHour="30.648970710188124" departLane="free"/>
  <flow id="JF16170" begin="5240" fromJunction="J7" toJunction="J5" end="5300" vehsPerHour="38.04076659277184" departLane="free"/>
  <flow id="JF16171" begin="5240" fromJunction="J7" toJunction="J4" end="5300" vehsPerHour="34.84286220171506" departLane="free"/>
  <flow id="JF16172" begin="5240" fromJunction="J7" toJunction="J6" end="5300" vehsPerHour="3.207479729242032" departLane="free"/>
  <flow id="JF16173" begin="5240" fromJunction="J5" toJunction="J7" end="5300" vehsPerHour="31.84611067699216" departLane="free"/>
  <flow id="JF16174" begin="5240" fromJunction="J5" toJunction="J4" end="5300" vehsPerHour="65.5129301812117" departLane="free"/>
  <flow id="JF16175" begin="5240" fromJunction="J5" toJunction="J6" end="5300" vehsPerHour="11.151778696528613" departLane="free"/>
  <flow id="JF16176" begin="5240" fromJunction="J4" toJunction="J7" end="5300" vehsPerHour="17.49983975877818" departLane="free"/>
  <flow id="JF16177" begin="5240" fromJunction="J4" toJunction="J5" end="5300" vehsPerHour="35.95530129783674" departLane="free"/>
  <flow id="JF16178" begin="5240" fromJunction="J4" toJunction="J6" end="5300" vehsPerHour="36.77650296618798" departLane="free"/>
  <flow id="JF16179" begin="5240" fromJunction="J6" toJunction="J7" end="5300" vehsPerHour="61.52113556464173" departLane="free"/>
  <flow id="JF16180" begin="5240" fromJunction="J6" toJunction="J5" end="5300" vehsPerHour="28.471505493749653" departLane="free"/>
  <flow id="JF16181" begin="5240" fromJunction="J6" toJunction="J4" end="5300" vehsPerHour="29.53960898808568" departLane="free"/>
  <flow id="JF16182" begin="5240" fromJunction="J7" toJunction="J0" end="5300" vehsPerHour="10.171895164973353" departLane="free"/>
  <flow id="JF16183" begin="5240" fromJunction="J7" toJunction="J3" end="5300" vehsPerHour="42.95733249281253" departLane="free"/>
  <flow id="JF16184" begin="5240" fromJunction="J5" toJunction="J0" end="5300" vehsPerHour="34.69159016109036" departLane="free"/>
  <flow id="JF16185" begin="5240" fromJunction="J5" toJunction="J3" end="5300" vehsPerHour="42.87834728480416" departLane="free"/>
  <flow id="JF16186" begin="5240" fromJunction="J4" toJunction="J0" end="5300" vehsPerHour="49.429718289493216" departLane="free"/>
  <flow id="JF16187" begin="5240" fromJunction="J4" toJunction="J3" end="5300" vehsPerHour="31.798233070403843" departLane="free"/>
  <flow id="JF16188" begin="5240" fromJunction="J6" toJunction="J0" end="5300" vehsPerHour="3.015405888492514" departLane="free"/>
  <flow id="JF16189" begin="5240" fromJunction="J6" toJunction="J3" end="5300" vehsPerHour="36.73435262218268" departLane="free"/>
  <flow id="JF16190" begin="5300" fromJunction="J0" toJunction="J3" end="5360" vehsPerHour="100.74986187700061" departLane="free"/>
  <flow id="JF16191" begin="5300" fromJunction="J3" toJunction="J0" end="5360" vehsPerHour="131.7910802753161" departLane="free"/>
  <flow id="JF16192" begin="5300" fromJunction="J0" toJunction="J7" end="5360" vehsPerHour="15.3970124521944" departLane="free"/>
  <flow id="JF16193" begin="5300" fromJunction="J0" toJunction="J5" end="5360" vehsPerHour="87.69094167650532" departLane="free"/>
  <flow id="JF16194" begin="5300" fromJunction="J0" toJunction="J4" end="5360" vehsPerHour="59.42893350292352" departLane="free"/>
  <flow id="JF16195" begin="5300" fromJunction="J0" toJunction="J6" end="5360" vehsPerHour="121.96843221177087" departLane="free"/>
  <flow id="JF16196" begin="5300" fromJunction="J3" toJunction="J7" end="5360" vehsPerHour="123.69521991162509" departLane="free"/>
  <flow id="JF16197" begin="5300" fromJunction="J3" toJunction="J5" end="5360" vehsPerHour="112.12829563659024" departLane="free"/>
  <flow id="JF16198" begin="5300" fromJunction="J3" toJunction="J4" end="5360" vehsPerHour="116.98887361915645" departLane="free"/>
  <flow id="JF16199" begin="5300" fromJunction="J3" toJunction="J6" end="5360" vehsPerHour="100.5429768176566" departLane="free"/>
  <flow id="JF16200" begin="5300" fromJunction="J7" toJunction="J5" end="5360" vehsPerHour="46.05729053844343" departLane="free"/>
  <flow id="JF16201" begin="5300" fromJunction="J7" toJunction="J4" end="5360" vehsPerHour="28.708077716043384" departLane="free"/>
  <flow id="JF16202" begin="5300" fromJunction="J7" toJunction="J6" end="5360" vehsPerHour="37.8047281410969" departLane="free"/>
  <flow id="JF16203" begin="5300" fromJunction="J5" toJunction="J7" end="5360" vehsPerHour="67.46783642352618" departLane="free"/>
  <flow id="JF16204" begin="5300" fromJunction="J5" toJunction="J4" end="5360" vehsPerHour="60.68305512748249" departLane="free"/>
  <flow id="JF16205" begin="5300" fromJunction="J5" toJunction="J6" end="5360" vehsPerHour="26.958102547685385" departLane="free"/>
  <flow id="JF16206" begin="5300" fromJunction="J4" toJunction="J7" end="5360" vehsPerHour="66.82631137796676" departLane="free"/>
  <flow id="JF16207" begin="5300" fromJunction="J4" toJunction="J5" end="5360" vehsPerHour="41.58725462257787" departLane="free"/>
  <flow id="JF16208" begin="5300" fromJunction="J4" toJunction="J6" end="5360" vehsPerHour="5.392405215170624" departLane="free"/>
  <flow id="JF16209" begin="5300" fromJunction="J6" toJunction="J7" end="5360" vehsPerHour="29.840860593875806" departLane="free"/>
  <flow id="JF16210" begin="5300" fromJunction="J6" toJunction="J5" end="5360" vehsPerHour="7.372556566032482" departLane="free"/>
  <flow id="JF16211" begin="5300" fromJunction="J6" toJunction="J4" end="5360" vehsPerHour="44.20277278582443" departLane="free"/>
  <flow id="JF16212" begin="5300" fromJunction="J7" toJunction="J0" end="5360" vehsPerHour="21.69902292547028" departLane="free"/>
  <flow id="JF16213" begin="5300" fromJunction="J7" toJunction="J3" end="5360" vehsPerHour="40.37071077291339" departLane="free"/>
  <flow id="JF16214" begin="5300" fromJunction="J5" toJunction="J0" end="5360" vehsPerHour="44.85867014680175" departLane="free"/>
  <flow id="JF16215" begin="5300" fromJunction="J5" toJunction="J3" end="5360" vehsPerHour="43.4908917114074" departLane="free"/>
  <flow id="JF16216" begin="5300" fromJunction="J4" toJunction="J0" end="5360" vehsPerHour="59.37859513048923" departLane="free"/>
  <flow id="JF16217" begin="5300" fromJunction="J4" toJunction="J3" end="5360" vehsPerHour="25.46545898838522" departLane="free"/>
  <flow id="JF16218" begin="5300" fromJunction="J6" toJunction="J0" end="5360" vehsPerHour="42.96059845587153" departLane="free"/>
  <flow id="JF16219" begin="5300" fromJunction="J6" toJunction="J3" end="5360" vehsPerHour="31.62565593494606" departLane="free"/>
  <flow id="JF16220" begin="5360" fromJunction="J0" toJunction="J3" end="5420" vehsPerHour="118.06440262475233" departLane="free"/>
  <flow id="JF16221" begin="5360" fromJunction="J3" toJunction="J0" end="5420" vehsPerHour="38.37753608753964" departLane="free"/>
  <flow id="JF16222" begin="5360" fromJunction="J0" toJunction="J7" end="5420" vehsPerHour="64.0163954428629" departLane="free"/>
  <flow id="JF16223" begin="5360" fromJunction="J0" toJunction="J5" end="5420" vehsPerHour="100.16594312683296" departLane="free"/>
  <flow id="JF16224" begin="5360" fromJunction="J0" toJunction="J4" end="5420" vehsPerHour="95.43379267349466" departLane="free"/>
  <flow id="JF16225" begin="5360" fromJunction="J0" toJunction="J6" end="5420" vehsPerHour="24.651571764334722" departLane="free"/>
  <flow id="JF16226" begin="5360" fromJunction="J3" toJunction="J7" end="5420" vehsPerHour="90.49295416814708" departLane="free"/>
  <flow id="JF16227" begin="5360" fromJunction="J3" toJunction="J5" end="5420" vehsPerHour="70.97533425988452" departLane="free"/>
  <flow id="JF16228" begin="5360" fromJunction="J3" toJunction="J4" end="5420" vehsPerHour="35.97523054178783" departLane="free"/>
  <flow id="JF16229" begin="5360" fromJunction="J3" toJunction="J6" end="5420" vehsPerHour="34.36089478656639" departLane="free"/>
  <flow id="JF16230" begin="5360" fromJunction="J7" toJunction="J5" end="5420" vehsPerHour="60.84575277953212" departLane="free"/>
  <flow id="JF16231" begin="5360" fromJunction="J7" toJunction="J4" end="5420" vehsPerHour="21.589017189227118" departLane="free"/>
  <flow id="JF16232" begin="5360" fromJunction="J7" toJunction="J6" end="5420" vehsPerHour="34.21655840353104" departLane="free"/>
  <flow id="JF16233" begin="5360" fromJunction="J5" toJunction="J7" end="5420" vehsPerHour="6.571963936131815" departLane="free"/>
  <flow id="JF16234" begin="5360" fromJunction="J5" toJunction="J4" end="5420" vehsPerHour="32.23201041807053" departLane="free"/>
  <flow id="JF16235" begin="5360" fromJunction="J5" toJunction="J6" end="5420" vehsPerHour="58.738575954440265" departLane="free"/>
  <flow id="JF16236" begin="5360" fromJunction="J4" toJunction="J7" end="5420" vehsPerHour="14.3838341908399" departLane="free"/>