<?xml version="1.0" encoding="UTF-8"?>
<routes xmlns:xsi="http://www.w3.org/2001/XMLSchema-instance" xsi:noNamespaceSchemaLocation="http://sumo.dlr.de/xsd/routes_file.xsd">
  <flow id="JF50759" begin="0" fromJunction="J3" toJunction="J0" end="5000" vehsPerHour="151.46353117036452" departLane="free"/>
  <flow id="JF50760" begin="0" fromJunction="J0" toJunction="J3" end="5000" vehsPerHour="25.25963282105172" departLane="free"/>
  <flow id="JF50761" begin="0" fromJunction="J3" toJunction="J4" end="5000" vehsPerHour="3.531433742547116" departLane="free"/>
  <flow id="JF50762" begin="0" fromJunction="J3" toJunction="J7" end="5000" vehsPerHour="30.604790958931076" departLane="free"/>
  <flow id="JF50763" begin="0" fromJunction="J3" toJunction="J5" end="5000" vehsPerHour="95.3585822914921" departLane="free"/>
  <flow id="JF50764" begin="0" fromJunction="J3" toJunction="J6" end="5000" vehsPerHour="131.6477911917135" departLane="free"/>
  <flow id="JF50765" begin="0" fromJunction="J0" toJunction="J4" end="5000" vehsPerHour="137.00710274127277" departLane="free"/>
  <flow id="JF50766" begin="0" fromJunction="J0" toJunction="J7" end="5000" vehsPerHour="69.15060453987992" departLane="free"/>
  <flow id="JF50767" begin="0" fromJunction="J0" toJunction="J5" end="5000" vehsPerHour="100.51402072946459" departLane="free"/>
  <flow id="JF50768" begin="0" fromJunction="J0" toJunction="J6" end="5000" vehsPerHour="136.9909232891317" departLane="free"/>
  <flow id="JF50769" begin="0" fromJunction="J4" toJunction="J7" end="5000" vehsPerHour="62.99942626398977" departLane="free"/>
  <flow id="JF50770" begin="0" fromJunction="J4" toJunction="J5" end="5000" vehsPerHour="0.14561760240291968" departLane="free"/>
  <flow id="JF50771" begin="0" fromJunction="J4" toJunction="J6" end="5000" vehsPerHour="48.469749818520334" departLane="free"/>
  <flow id="JF50772" begin="0" fromJunction="J7" toJunction="J4" end="5000" vehsPerHour="55.18204015951931" departLane="free"/>
  <flow id="JF50773" begin="0" fromJunction="J7" toJunction="J5" end="5000" vehsPerHour="12.246382733565762" departLane="free"/>
  <flow id="JF50774" begin="0" fromJunction="J7" toJunction="J6" end="5000" vehsPerHour="20.653357195254223" departLane="free"/>
  <flow id="JF50775" begin="0" fromJunction="J5" toJunction="J4" end="5000" vehsPerHour="61.14209540627332" departLane="free"/>
  <flow id="JF50776" begin="0" fromJunction="J5" toJunction="J7" end="5000" vehsPerHour="65.47818377193497" departLane="free"/>
  <flow id="JF50777" begin="0" fromJunction="J5" toJunction="J6" end="5000" vehsPerHour="58.67479316479309" departLane="free"/>
  <flow id="JF50778" begin="0" fromJunction="J6" toJunction="J4" end="5000" vehsPerHour="1.9744687828370313" departLane="free"/>
  <flow id="JF50779" begin="0" fromJunction="J6" toJunction="J7" end="5000" vehsPerHour="32.139228014461956" departLane="free"/>
  <flow id="JF50780" begin="0" fromJunction="J6" toJunction="J5" end="5000" vehsPerHour="26.428188536124015" departLane="free"/>
  <flow id="JF50781" begin="0" fromJunction="J4" toJunction="J3" end="5000" vehsPerHour="43.71137745490317" departLane="free"/>
  <flow id="JF50782" begin="0" fromJunction="J4" toJunction="J0" end="5000" vehsPerHour="8.345866941879903" departLane="free"/>
  <flow id="JF50783" begin="0" fromJunction="J7" toJunction="J3" end="5000" vehsPerHour="16.077085355286847" departLane="free"/>
  <flow id="JF50784" begin="0" fromJunction="J7" toJunction="J0" end="5000" vehsPerHour="3.2915735246179976" departLane="free"/>
  <flow id="JF50785" begin="0" fromJunction="J5" toJunction="J3" end="5000" vehsPerHour="54.561669039739556" departLane="free"/>
  <flow id="JF50786" begin="0" fromJunction="J5" toJunction="J0" end="5000" vehsPerHour="25.316652669092296" departLane="free"/>
  <flow id="JF50787" begin="0" fromJunction="J6" toJunction="J3" end="5000" vehsPerHour="15.190003715682481" departLane="free"/>
  <flow id="JF50788" begin="0" fromJunction="J6" toJunction="J0" end="5000" vehsPerHour="2.0766800925401494" departLane="free"/>
  <flow id="JF50789" begin="5000" fromJunction="J0" toJunction="J3" end="5060" vehsPerHour="102.73633847333772" departLane="free"/>
  <flow id="JF50790" begin="5000" fromJunction="J0" toJunction="J4" end="5060" vehsPerHour="128.75134170342062" departLane="free"/>
  <flow id="JF50791" begin="5000" fromJunction="J0" toJunction="J5" end="5060" vehsPerHour="63.13754808502175" departLane="free"/>
  <flow id="JF50792" begin="5000" fromJunction="J0" toJunction="J6" end="5060" vehsPerHour="19.246433735847436" departLane="free"/>
  <flow id="JF50793" begin="5000" fromJunction="J3" toJunction="J4" end="5060" vehsPerHour="54.48671528773205" departLane="free"/>
  <flow id="JF50794" begin="5000" fromJunction="J3" toJunction="J5" end="5060" vehsPerHour="94.45329746767327" departLane="free"/>
  <flow id="JF50795" begin="5000" fromJunction="J3" toJunction="J6" end="5060" vehsPerHour="113.07383118386717" departLane="free"/>
  <flow id="JF50796" begin="5000" fromJunction="J4" toJunction="J0" end="5060" vehsPerHour="63.48800374711768" departLane="free"/>
  <flow id="JF50797" begin="5000" fromJunction="J4" toJunction="J5" end="5060" vehsPerHour="33.15773623762462" departLane="free"/>
  <flow id="JF50798" begin="5000" fromJunction="J4" toJunction="J6" end="5060" vehsPerHour="28.71628472441412" departLane="free"/>
  <flow id="JF50799" begin="5000" fromJunction="J5" toJunction="J0" end="5060" vehsPerHour="23.49657380811335" departLane="free"/>
  <flow id="JF50800" begin="5000" fromJunction="J5" toJunction="J4" end="5060" vehsPerHour="17.88069513186131" departLane="free"/>
  <flow id="JF50801" begin="5000" fromJunction="J5" toJunction="J6" end="5060" vehsPerHour="67.60731137926619" departLane="free"/>
  <flow id="JF50802" begin="5000" fromJunction="J5" toJunction="J7" end="5060" vehsPerHour="19.24067817976111" departLane="free"/>
  <flow id="JF50803" begin="5000" fromJunction="J6" toJunction="J0" end="5060" vehsPerHour="19.375385919641086" departLane="free"/>
  <flow id="JF50804" begin="5000" fromJunction="J6" toJunction="J3" end="5060" vehsPerHour="18.433538363880604" departLane="free"/>
  <flow id="JF50805" begin="5000" fromJunction="J6" toJunction="J5" end="5060" vehsPerHour="63.10154796163023" departLane="free"/>
  <flow id="JF50806" begin="5000" fromJunction="J6" toJunction="J7" end="5060" vehsPerHour="16.351912346574167" departLane="free"/>
  <flow id="JF50807" begin="5000" fromJunction="J7" toJunction="J0" end="5060" vehsPerHour="45.834215478397006" departLane="free"/>
  <flow id="JF50808" begin="5000" fromJunction="J7" toJunction="J3" end="5060" vehsPerHour="57.36920197934855" departLane="free"/>
  <flow id="JF50809" begin="5000" fromJunction="J7" toJunction="J6" end="5060" vehsPerHour="9.368307724040923" departLane="free"/>
  <flow id="JF50810" begin="5060" fromJunction="J0" toJunction="J3" end="5120" vehsPerHour="93.67709031132" departLane="free"/>
  <flow id="JF50811" begin="5060" fromJunction="J0" toJunction="J4" end="5120" vehsPerHour="49.263456605905645" departLane="free"/>
  <flow id="JF50812" begin="5060" fromJunction="J0" toJunction="J5" end="5120" vehsPerHour="88.09687194948265" departLane="free"/>
  <flow id="JF50813" begin="5060" fromJunction="J0" toJunction="J6" end="5120" vehsPerHour="86.22941704983688" departLane="free"/>
  <flow id="JF50814" begin="5060" fromJunction="J0" toJunction="J7" end="5120" vehsPerHour="69.1969827700855" departLane="free"/>
  <flow id="JF50815" begin="5060" fromJunction="J3" toJunction="J0" end="5120" vehsPerHour="99.89849839439229" departLane="free"/>
  <flow id="JF50816" begin="5060" fromJunction="J3" toJunction="J4" end="5120" vehsPerHour="126.40556867490166" departLane="free"/>
  <flow id="JF50817" begin="5060" fromJunction="J3" toJunction="J7" end="5120" vehsPerHour="15.787837066503082" departLane="free"/>
  <flow id="JF50818" begin="5060" fromJunction="J4" toJunction="J6" end="5120" vehsPerHour="21.243905370264923" departLane="free"/>
  <flow id="JF50819" begin="5060" fromJunction="J4" toJunction="J7" end="5120" vehsPerHour="67.048324521293" departLane="free"/>
  <flow id="JF50820" begin="5060" fromJunction="J5" toJunction="J0" end="5120" vehsPerHour="36.97683389903231" departLane="free"/>
  <flow id="JF50821" begin="5060" fromJunction="J5" toJunction="J3" end="5120" vehsPerHour="51.55909015385923" departLane="free"/>
  <flow id="JF50822" begin="5060" fromJunction="J5" toJunction="J4" end="5120" vehsPerHour="58.12627480013114" departLane="free"/>
  <flow id="JF50823" begin="5060" fromJunction="J5" toJunction="J6" end="5120" vehsPerHour="53.40790544308651" departLane="free"/>
  <flow id="JF50824" begin="5060" fromJunction="J6" toJunction="J0" end="5120" vehsPerHour="37.85980526850399" departLane="free"/>
  <flow id="JF50825" begin="5060" fromJunction="J6" toJunction="J3" end="5120" vehsPerHour="6.558739837067524" departLane="free"/>
  <flow id="JF50826" begin="5060" fromJunction="J6" toJunction="J5" end="5120" vehsPerHour="41.60347114187419" departLane="free"/>
  <flow id="JF50827" begin="5060" fromJunction="J6" toJunction="J7" end="5120" vehsPerHour="67.98844035609407" departLane="free"/>
  <flow id="JF50828" begin="5060" fromJunction="J7" toJunction="J0" end="5120" vehsPerHour="60.27075106202148" departLane="free"/>
  <flow id="JF50829" begin="5060" fromJunction="J7" toJunction="J4" end="5120" vehsPerHour="55.328098412020054" departLane="free"/>
  <flow id="JF50830" begin="5060" fromJunction="J7" toJunction="J5" end="5120" vehsPerHour="0.7210286859229159" departLane="free"/>
  <flow id="JF50831" begin="5060" fromJunction="J7" toJunction="J6" end="5120" vehsPerHour="11.565016464945776" departLane="free"/>
  <flow id="JF50832" begin="5120" fromJunction="J0" toJunction="J4" end="5180" vehsPerHour="31.490781602710072" departLane="free"/>
  <flow id="JF50833" begin="5120" fromJunction="J0" toJunction="J6" end="5180" vehsPerHour="33.612531527601845" departLane="free"/>
  <flow id="JF50834" begin="5120" fromJunction="J0" toJunction="J7" end="5180" vehsPerHour="59.82877568331125" departLane="free"/>
  <flow id="JF50835" begin="5120" fromJunction="J3" toJunction="J4" end="5180" vehsPerHour="76.62288625058183" departLane="free"/>
  <flow id="JF50836" begin="5120" fromJunction="J3" toJunction="J5" end="5180" vehsPerHour="122.52002628215959" departLane="free"/>
  <flow id="JF50837" begin="5120" fromJunction="J3" toJunction="J7" end="5180" vehsPerHour="52.120695583448345" departLane="free"/>
  <flow id="JF50838" begin="5120" fromJunction="J4" toJunction="J0" end="5180" vehsPerHour="67.14085041773033" departLane="free"/>
  <flow id="JF50839" begin="5120" fromJunction="J4" toJunction="J3" end="5180" vehsPerHour="68.64999964446139" departLane="free"/>
  <flow id="JF50840" begin="5120" fromJunction="J4" toJunction="J5" end="5180" vehsPerHour="22.722554651393853" departLane="free"/>
  <flow id="JF50841" begin="5120" fromJunction="J4" toJunction="J6" end="5180" vehsPerHour="9.923445899587884" departLane="free"/>
  <flow id="JF50842" begin="5120" fromJunction="J5" toJunction="J0" end="5180" vehsPerHour="48.50455859718978" departLane="free"/>
  <flow id="JF50843" begin="5120" fromJunction="J5" toJunction="J3" end="5180" vehsPerHour="21.266866944353218" departLane="free"/>
  <flow id="JF50844" begin="5120" fromJunction="J5" toJunction="J4" end="5180" vehsPerHour="49.53660813436706" departLane="free"/>
  <flow id="JF50845" begin="5120" fromJunction="J5" toJunction="J6" end="5180" vehsPerHour="52.94954719081184" departLane="free"/>
  <flow id="JF50846" begin="5120" fromJunction="J5" toJunction="J7" end="5180" vehsPerHour="45.3769421264144" departLane="free"/>
  <flow id="JF50847" begin="5120" fromJunction="J6" toJunction="J3" end="5180" vehsPerHour="5.598218562103039" departLane="free"/>
  <flow id="JF50848" begin="5120" fromJunction="J6" toJunction="J5" end="5180" vehsPerHour="60.24479192939734" departLane="free"/>
  <flow id="JF50849" begin="5120" fromJunction="J6" toJunction="J7" end="5180" vehsPerHour="29.61265398992761" departLane="free"/>
  <flow id="JF50850" begin="5120" fromJunction="J7" toJunction="J0" end="5180" vehsPerHour="54.28432708890361" departLane="free"/>
  <flow id="JF50851" begin="5120" fromJunction="J7" toJunction="J3" end="5180" vehsPerHour="9.23238737979838" departLane="free"/>
  <flow id="JF50852" begin="5120" fromJunction="J7" toJunction="J4" end="5180" vehsPerHour="12.120793727507403" departLane="free"/>
  <flow id="JF50853" begin="5120" fromJunction="J7" toJunction="J5" end="5180" vehsPerHour="41.534012579539805" departLane="free"/>
  <flow id="JF50854" begin="5120" fromJunction="J7" toJunction="J6" end="5180" vehsPerHour="31.509409912328735" departLane="free"/>
  <flow id="JF50855" begin="5180" fromJunction="J0" toJunction="J3" end="5240" vehsPerHour="47.96685228785331" departLane="free"/>
  <flow id="JF50856" begin="5180" fromJunction="J0" toJunction="J4" end="5240" vehsPerHour="125.91022031819182" departLane="free"/>
  <flow id="JF50857" begin="5180" fromJunction="J0" toJunction="J5" end="5240" vehsPerHour="55.42678586294002" departLane="free"/>
  <flow id="JF50858" begin="5180" fromJunction="J0" toJunction="J7" end="5240" vehsPerHour="105.7570346354495" departLane="free"/>
  <flow id="JF50859" begin="5180" fromJunction="J3" toJunction="J0" end="5240" vehsPerHour="37.93596149826907" departLane="free"/>
  <flow id="JF50860" begin="5180" fromJunction="J3" toJunction="J4" end="5240" vehsPerHour="12.780190749294109" departLane="free"/>
  <flow id="JF50861" begin="5180" fromJunction="J3" toJunction="J5" end="5240" vehsPerHour="126.08635165842148" departLane="free"/>
  <flow id="JF50862" begin="5180" fromJunction="J3" toJunction="J6" end="5240" vehsPerHour="64.03567494670843" departLane="free"/>
  <flow id="JF50863" begin="5180" fromJunction="J4" toJunction="J0" end="5240" vehsPerHour="47.083810110803746" departLane="free"/>
  <flow id="JF50864" begin="5180" fromJunction="J4" toJunction="J3" end="5240" vehsPerHour="34.77086880474446" departLane="free"/>
  <flow id="JF50865" begin="5180" fromJunction="J4" toJunction="J5" end="5240" vehsPerHour="26.768608995832494" departLane="free"/>
  <flow id="JF50866" begin="5180" fromJunction="J4" toJunction="J6" end="5240" vehsPerHour="21.811490343368543" departLane="free"/>
  <flow id="JF50867" begin="5180" fromJunction="J5" toJunction="J3" end="5240" vehsPerHour="46.869630719591065" departLane="free"/>
  <flow id="JF50868" begin="5180" fromJunction="J5" toJunction="J4" end="5240" vehsPerHour="50.369014287958336" departLane="free"/>
  <flow id="JF50869" begin="5180" fromJunction="J5" toJunction="J6" end="5240" vehsPerHour="57.41752954027735" departLane="free"/>
  <flow id="JF50870" begin="5180" fromJunction="J5" toJunction="J7" end="5240" vehsPerHour="22.019451971521377" departLane="free"/>
  <flow id="JF50871" begin="5180" fromJunction="J6" toJunction="J3" end="5240" vehsPerHour="54.83376162148375" departLane="free"/>
  <flow id="JF50872" begin="5180" fromJunction="J6" toJunction="J4" end="5240" vehsPerHour="61.652417195105876" departLane="free"/>
  <flow id="JF50873" begin="5180" fromJunction="J7" toJunction="J0" end="5240" vehsPerHour="39.65963062475593" departLane="free"/>
  <flow id="JF50874" begin="5180" fromJunction="J7" toJunction="J3" end="5240" vehsPerHour="11.70252009270724" departLane="free"/>
  <flow id="JF50875" begin="5180" fromJunction="J7" toJunction="J4" end="5240" vehsPerHour="5.42457714641096" departLane="free"/>
  <flow id="JF50876" begin="5180" fromJunction="J7" toJunction="J6" end="5240" vehsPerHour="5.039534137943316" departLane="free"/>
  <flow id="JF50877" begin="5240" fromJunction="J0" toJunction="J4" end="5300" vehsPerHour="82.2726669266813" departLane="free"/>
  <flow id="JF50878" begin="5240" fromJunction="J0" toJunction="J5" end="5300" vehsPerHour="94.33492012403413" departLane="free"/>
  <flow id="JF50879" begin="5240" fromJunction="J0" toJunction="J7" end="5300" vehsPerHour="12.254185230929062" departLane="free"/>
  <flow id="JF50880" begin="5240" fromJunction="J3" toJunction="J0" end="5300" vehsPerHour="39.06821962291463" departLane="free"/>
  <flow id="JF50881" begin="5240" fromJunction="J3" toJunction="J4" end="5300" vehsPerHour="78.93279752024185" departLane="free"/>
  <flow id="JF50882" begin="5240" fromJunction="J3" toJunction="J5" end="5300" vehsPerHour="104.51139733680199" departLane="free"/>
  <flow id="JF50883" begin="5240" fromJunction="J3" toJunction="J6" end="5300" vehsPerHour="35.650791732458465" departLane="free"/>
  <flow id="JF50884" begin="5240" fromJunction="J3" toJunction="J7" end="5300" vehsPerHour="52.95185310434584" departLane="free"/>
  <flow id="JF50885" begin="5240" fromJunction="J4" toJunction="J3" end="5300" vehsPerHour="44.11984756059946" departLane="free"/>
  <flow id="JF50886" begin="5240" fromJunction="J4" toJunction="J6" end="5300" vehsPerHour="2.0628913445061734" departLane="free"/>
  <flow id="JF50887" begin="5240" fromJunction="J4" toJunction="J7" end="5300" vehsPerHour="60.85321133281487" departLane="free"/>
  <flow id="JF50888" begin="5240" fromJunction="J5" toJunction="J0" end="5300" vehsPerHour="22.174496043305442" departLane="free"/>
  <flow id="JF50889" begin="5240" fromJunction="J5" toJunction="J7" end="5300" vehsPerHour="34.97189751639359" departLane="free"/>
  <flow id="JF50890" begin="5240" fromJunction="J6" toJunction="J0" end="5300" vehsPerHour="17.46359462538131" departLane="free"/>
  <flow id="JF50891" begin="5240" fromJunction="J6" toJunction="J5" end="5300" vehsPerHour="6.367552130011506" departLane="free"/>
  <flow id="JF50892" begin="5240" fromJunction="J7" toJunction="J0" end="5300" vehsPerHour="23.13978312483289" departLane="free"/>
  <flow id="JF50893" begin="5240" fromJunction="J7" toJunction="J3" end="5300" vehsPerHour="43.67391539678013" departLane="free"/>
  <flow id="JF50894" begin="5240" fromJunction="J7" toJunction="J4" end="5300" vehsPerHour="35.89706577556415" departLane="free"/>
  <flow id="JF50895" begin="5240" fromJunction="J7" toJunction="J5" end="5300" vehsPerHour="54.83379938196448" departLane="free"/>
  <flow id="JF50896" begin="5240" fromJunction="J7" toJunction="J6" end="5300" vehsPerHour="32.87312146748241" departLane="free"/>
  <flow id="JF50897" begin="5300" fromJunction="J0" toJunction="J3" end="5360" vehsPerHour="11.037852551282146" departLane="free"/>
  <flow id="JF50898" begin="5300" fromJunction="J0" toJunction="J4" end="5360" vehsPerHour="124.30960614518911" departLane="free"/>
  <flow id="JF50899" begin="5300" fromJunction="J0" toJunction="J5" end="5360" vehsPerHour="42.361996711731656" departLane="free"/>
  <flow id="JF50900" begin="5300" fromJunction="J3" toJunction="J0" end="5360" vehsPerHour="29.5608650669474" departLane="free"/>
  <flow id="JF50901" begin="5300" fromJunction="J3" toJunction="J4" end="5360" vehsPerHour="25.205732665871256" departLane="free"/>
  <flow id="JF50902" begin="5300" fromJunction="J3" toJunction="J5" end="5360" vehsPerHour="23.486901559345355" departLane="free"/>
  <flow id="JF50903" begin="5300" fromJunction="J3" toJunction="J6" end="5360" vehsPerHour="103.45412607157294" departLane="free"/>
  <flow id="JF50904" begin="5300" fromJunction="J4" toJunction="J0" end="5360" vehsPerHour="21.450393165549887" departLane="free"/>
  <flow id="JF50905" begin="5300" fromJunction="J4" toJunction="J3" end="5360" vehsPerHour="10.263854415041369" departLane="free"/>
  <flow id="JF50906" begin="5300" fromJunction="J4" toJunction="J5" end="5360" vehsPerHour="58.22111085264261" departLane="free"/>
  <flow id="JF50907" begin="5300" fromJunction="J4" toJunction="J6" end="5360" vehsPerHour="6.88645810924955" departLane="free"/>
  <flow id="JF50908" begin="5300" fromJunction="J4" toJunction="J7" end="5360" vehsPerHour="57.89878413746072" departLane="free"/>
  <flow id="JF50909" begin="5300" fromJunction="J5" toJunction="J4" end="5360" vehsPerHour="25.486928751229136" departLane="free"/>
  <flow id="JF50910" begin="5300" fromJunction="J6" toJunction="J0" end="5360" vehsPerHour="19.219321801746126" departLane="free"/>
  <flow id="JF50911" begin="5300" fromJunction="J6" toJunction="J3" end="5360" vehsPerHour="5.868892950328595" departLane="free"/>
  <flow id="JF50912" begin="5300" fromJunction="J6" toJunction="J4" end="5360" vehsPerHour="40.13767608404386" departLane="free"/>
  <flow id="JF50913" begin="5300" fromJunction="J6" toJunction="J5" end="5360" vehsPerHour="13.268770668879943" departLane="free"/>
  <flow id="JF50914" begin="5300" fromJunction="J6" toJunction="J7" end="5360" vehsPerHour="68.37895564811167" departLane="free"/>
  <flow id="JF50915" begin="5300" fromJunction="J7" toJunction="J0" end="5360" vehsPerHour="2.308043793425836" departLane="free"/>
  <flow id="JF50916" begin="5300" fromJunction="J7" toJunction="J3" end="5360" vehsPerHour="12.144595572791209" departLane="free"/>
  <flow id="JF50917" begin="5300" fromJunction="J7" toJunction="J4" end="5360" vehsPerHour="4.27265080036867" departLane="free"/>
  <flow id="JF50918" begin="5360" fromJunction="J0" toJunction="J3" end="5420" vehsPerHour="99.96735730588821" departLane="free"/>
  <flow id="JF50919" begin="5360" fromJunction="J0" toJunction="J4" end="5420" vehsPerHour="87.76224401006709" departLane="free"/>
  <flow id="JF50920" begin="5360" fromJunction="J0" toJunction="J6" end="5420" vehsPerHour="133.74322072557422" departLane="free"/>
  <flow id="JF50921" begin="5360" fromJunction="J0" toJunction="J7" end="5420" vehsPerHour="137.2322329497278" departLane="free"/>
  <flow id="JF50922" begin="5360" fromJunction="J3" toJunction="J0" end="5420" vehsPerHour="64.51343844498409" departLane="free"/>
  <flow id="JF50923" begin="5360" fromJunction="J3" toJunction="J5" end="5420" vehsPerHour="45.39589080284188" departLane="free"/>
  <flow id="JF50924" begin="5360" fromJunction="J3" toJunction="J6" end="5420" vehsPerHour="94.22933988500368" departLane="free"/>
  <flow id="JF50925" begin="5360" fromJunction="J3" toJunction="J7" end="5420" vehsPerHour="6.234192568060208" departLane="free"/>
  <flow id="JF50926" begin="5360" fromJunction="J4" toJunction="J3" end="5420" vehsPerHour="1.2961156238305322" departLane="free"/>
  <flow id="JF50927" begin="5360" fromJunction="J4" toJunction="J5" end="5420" vehsPerHour="23.930364719878064" departLane="free"/>
  <flow id="JF50928" begin="5360" fromJunction="J5" toJunction="J0" end="5420" vehsPerHour="16.843476671891047" departLane="free"/>
  <flow id="JF50929" begin="5360" fromJunction="J5" toJunction="J3" end="5420" vehsPerHour="17.053482042475075" departLane="free"/>
  <flow id="JF50930" begin="5360" fromJunction="J5" toJunction="J6" end="5420" vehsPerHour="5.473950718196306" departLane="free"/>
  <flow id="JF50931" begin="5360" fromJunction="J6" toJunction="J4" end="5420" vehsPerHour="16.637612062342754" departLane="free"/>
  <flow id="JF50932" begin="5360" fromJunction="J6" toJunction="J5" end="5420" vehsPerHour="54.894266910326074" departLane="free"/>
  <flow id="JF50933" begin="5360" fromJunction="J6" toJunction="J7" end="5420" vehsPerHour="63.587884921253774" departLane="free"/>
  <flow id="JF50934" begin="5360" fromJunction="J7" toJunction="J5" end="5420" vehsPerHour="24.571645580084578" departLane="free"/>
  <flow id="JF50935" begin="5360" fromJunction="J7" toJunction="J6" end="5420" vehsPerHour="27.39603654361871" departLane="free"/>
  <flow id="JF50936" begin="5420" fromJunction="J0" toJunction="J3" end="5480" vehsPerHour="53.06301901778282" departLane="free"/>
  <flow id="JF50937" begin="5420" fromJunction="J0" toJunction="J4" end="5480" vehsPerHour="64.77247125499463" departLane="free"/>
  <flow id="JF50938" begin="5420" fromJunction="J0" toJunction="J5" end="5480" vehsPerHour="59.47275252457053" departLane="free"/>
  <flow id="JF50939" begin="5420" fromJunction="J0" toJunction="J6" end="5480" vehsPerHour="34.83526813395862" departLane="free"/>
  <flow id="JF50940" begin="5420" fromJunction="J3" toJunction="J0" end="5480" vehsPerHour="71.9694802069888" departLane="free"/>
  <flow id="JF50941" begin="5420" fromJunction="J3" toJunction="J5" end="5480" vehsPerHour="1.8850839001734987" departLane="free"/>
  <flow id="JF50942" begin="5420" fromJunction="J3" toJunction="J6" end="5480" vehsPerHour="46.78756166738079" departLane="free"/>
  <flow id="JF50943" begin="5420" fromJunction="J3" toJunction="J7" end="5480" vehsPerHour="86.46918729524693" departLane="free"/>
  <flow id="JF50944" begin="5420" fromJunction="J4" toJunction="J0" end="5480" vehsPerHour="26.530180343863066" departLane="free"/>
  <flow id="JF50945" begin="5420" fromJunction="J4" toJunction="J3" end="5480" vehsPerHour="40.54306439649664" departLane="free"/>
  <flow id="JF50946" begin="5420" fromJunction="J4" toJunction="J6" end="5480" vehsPerHour="17.178958236605144" departLane="free"/>
  <flow id="JF50947" begin="5420" fromJunction="J4" toJunction="J7" end="5480" vehsPerHour="32.99165762620121" departLane="free"/>
  <flow id="JF50948" begin="5420" fromJunction="J5" toJunction="J0" end="5480" vehsPerHour="52.94218985873433" departLane="free"/>
  <flow id="JF50949" begin="5420" fromJunction="J5" toJunction="J3" end="5480" vehsPerHour="24.587200806567918" departLane="free"/>
  <flow id="JF50950" begin="5420" fromJunction="J5" toJunction="J4" end="5480" vehsPerHour="21.22475156715672" departLane="free"/>
  <flow id="JF50951" begin="5420" fromJunction="J5" toJunction="J6" end="5480" vehsPerHour="61.4831022568978" departLane="free"/>
  <flow id="JF50952" begin="5420" fromJunction="J6" toJunction="J0" end="5480" vehsPerHour="45.963163414532914" departLane="free"/>
  <flow id="JF50953" begin="5420" fromJunction="J6" toJunction="J4" end="5480" vehsPerHour="66.86731984507195" departLane="free"/>
  <flow id="JF50954" begin="5420" fromJunction="J6" toJunction="J5" end="5480" vehsPerHour="47.26630236572527" departLane="free"/>
  <flow id="JF50955" begin="5420" fromJunction="J6" toJunction="J7" end="5480" vehsPerHour="29.717474439750927" departLane="free"/>
  <flow id="JF50956" begin="5420" fromJunction="J7" toJunction="J0" end="5480" vehsPerHour="50.588263301670544" departLane="free"/>
  <flow id="JF50957" begin="5420" fromJunction="J7" toJunction="J3" end="5480" vehsPerHour="55.90206619557645" departLane="free"/>
  <flow id="JF50958" begin="5420" fromJunction="J7" toJunction="J4" end="5480" vehsPerHour="26.742178797217957" departLane="free"/>
  <flow id="JF50959" begin="5420" fromJunction="J7" toJunction="J5" end="5480" vehsPerHour="59.76772518672072" departLane="free"/>
  <flow id="JF50960" begin="5420" fromJunction="J7" toJunction="J6" end="5480" vehsPerHour="10.795948888341655" departLane="free"/>
  <flow id="JF50961" begin="5480" fromJunction="J0" toJunction="J3" end="5540" vehsPerHour="94.45116945387838" departLane="free"/>
  <flow id="JF50962" begin="5480" fromJunction="J0" toJunction="J4" end="5540" vehsPerHour="97.00868306825379" departLane="free"/>
  <flow id="JF50963" begin="5480" fromJunction="J0" toJunction="J5" end="5540" vehsPerHour="27.359836253075006" departLane="free"/>
  <flow id="JF50964" begin="5480" fromJunction="J0" toJunction="J6" end="5540" vehsPerHour="20.938168402481587" departLane="free"/>
  <flow id="JF50965" begin="5480" fromJunction="J0" toJunction="J7" end="5540" vehsPerHour="111.82782867307704" departLane="free"/>
  <flow id="JF50966" begin="5480" fromJunction="J3" toJunction="J0" end="5540" vehsPerHour="46.71691307889968" departLane="free"/>
  <flow id="JF50967" begin="5480" fromJunction="J3" toJunction="J4" end="5540" vehsPerHour="68.05929814201065" departLane="free"/>
  <flow id="JF50968" begin="5480" fromJunction="J3" toJunction="J5" end="5540" vehsPerHour="130.2927879092752" departLane="free"/>
  <flow id="JF50969" begin="5480" fromJunction="J3" toJunction="J6" end="5540" vehsPerHour="126.63649879698835" departLane="free"/>
  <flow id="JF50970" begin="5480" fromJunction="J3" toJunction="J7" end="5540" vehsPerHour="48.86781088957122" departLane="free"/>
  <flow id="JF50971" begin="5480" fromJunction="J4" toJunction="J0" end="5540" vehsPerHour="55.97030967122924" departLane="free"/>
  <flow id="JF50972" begin="5480" fromJunction="J4" toJunction="J3" end="5540" vehsPerHour="43.254769166807094" departLane="free"/>
  <flow id="JF50973" begin="5480" fromJunction="J4" toJunction="J5" end="5540" vehsPerHour="27.3445279256683" departLane="free"/>
  <flow id="JF50974" begin="5480" fromJunction="J4" toJunction="J6" end="5540" vehsPerHour="43.174737947696286" departLane="free"/>
  <flow id="JF50975" begin="5480" fromJunction="J5" toJunction="J3" end="5540" vehsPerHour="46.88032688465008" departLane="free"/>
  <flow id="JF50976" begin="5480" fromJunction="J5" toJunction="J4" end="5540" vehsPerHour="0.7436014450712332" departLane="free"/>
  <flow id="JF50977" begin="5480" fromJunction="J5" toJunction="J6" end="5540" vehsPerHour="32.024647977251455" departLane="free"/>
  <flow id="JF50978" begin="5480" fromJunction="J5" toJunction="J7" end="5540" vehsPerHour="55.2382247512923" departLane="free"/>
  <flow id="JF50979" begin="5480" fromJunction="J6" toJunction="J0" end="5540" vehsPerHour="22.81509625281449" departLane="free"/>
  <flow id="JF50980" begin="5480" fromJunction="J6" toJunction="J3" end="5540" vehsPerHour="32.23244209665585" departLane="free"/>
  <flow id="JF50981" begin="5480" fromJunction="J6" toJunction="J5" end="5540" vehsPerHour="61.329283353623204" departLane="free"/>
  <flow id="JF50982" begin="5480" fromJunction="J6" toJunction="J7" end="5540" vehsPerHour="65.01369807519251" departLane="free"/>
  <flow id="JF50983" begin="5480" fromJunction="J7" toJunction="J0" end="5540" vehsPerHour="45.03832902722832" departLane="free"/>
  <flow id="JF50984" begin="5480" fromJunction="J7" toJunction="J3" end="5540" vehsPerHour="46.00685132666887" departLane="free"/>
  <flow id="JF50985" begin="5480" fromJunction="J7" toJunction="J4" end="5540" vehsPerHour="4.226861690139648" departLane="free"/>