<?xml version="1.0" encoding="UTF-8"?>
<routes xmlns:xsi="http://www.w3.org/2001/XMLSchema-instance" xsi:noNamespaceSchemaLocation="http://sumo.dlr.de/xsd/routes_file.xsd">
  <flow id="JF0" begin="0" fromJunction="J0" toJunction="J3" end="360" vehsPerHour="55.68096324478603" departLane="free"/>
  <flow id="JF1" begin="0" fromJunction="J0" toJunction="J4" end="360" vehsPerHour="65.78719247187196" departLane="free"/>
  <flow id="JF2" begin="0" fromJunction="J3" toJunction="J0" end="360" vehsPerHour="100.96592335865026" departLane="free"/>
  <flow id="JF3" begin="0" fromJunction="J3" toJunction="J7" end="360" vehsPerHour="130.21809630163688" departLane="free"/>
  <flow id="JF4" begin="0" fromJunction="J4" toJunction="J0" end="360" vehsPerHour="16.392951042333692" departLane="free"/>
  <flow id="JF5" begin="0" fromJunction="J4" toJunction="J3" end="360" vehsPerHour="13.839429477932805" departLane="free"/>
  <flow id="JF6" begin="0" fromJunction="J4" toJunction="J5" end="360" vehsPerHour="62.84407486172186" departLane="free"/>
  <flow id="JF7" begin="0" fromJunction="J5" toJunction="J0" end="360" vehsPerHour="17.138379824688897" departLane="free"/>
  <flow id="JF8" begin="0" fromJunction="J5" toJunction="J3" end="360" vehsPerHour="10.910954752876382" departLane="free"/>
  <flow id="JF9" begin="0" fromJunction="J5" toJunction="J4" end="360" vehsPerHour="2.115967663323887" departLane="free"/>
  <flow id="JF10" begin="0" fromJunction="J5" toJunction="J6" end="360" vehsPerHour="58.52540996311509" departLane="free"/>
  <flow id="JF11" begin="0" fromJunction="J6" toJunction="J0" end="360" vehsPerHour="51.91249833740866" departLane="free"/>
  <flow id="JF12" begin="0" fromJunction="J6" toJunction="J4" end="360" vehsPerHour="26.12699764044873" departLane="free"/>
  <flow id="JF13" begin="0" fromJunction="J6" toJunction="J5" end="360" vehsPerHour="65.53729929337426" departLane="free"/>
  <flow id="JF14" begin="0" fromJunction="J6" toJunction="J7" end="360" vehsPerHour="62.98651333263268" departLane="free"/>
  <flow id="JF15" begin="0" fromJunction="J7" toJunction="J0" end="360" vehsPerHour="58.11067310486443" departLane="free"/>
  <flow id="JF16" begin="0" fromJunction="J7" toJunction="J6" end="360" vehsPerHour="56.741682281088295" departLane="free"/>
  <flow id="JF17" begin="360" fromJunction="J0" toJunction="J4" end="720" vehsPerHour="98.70716298646762" departLane="free"/>
  <flow id="JF18" begin="360" fromJunction="J0" toJunction="J6" end="720" vehsPerHour="3.095382628593861" departLane="free"/>
  <flow id="JF19" begin="360" fromJunction="J0" toJunction="J7" end="720" vehsPerHour="106.80598737539344" departLane="free"/>
  <flow id="JF20" begin="360" fromJunction="J3" toJunction="J0" end="720" vehsPerHour="80.90409827561471" departLane="free"/>
  <flow id="JF21" begin="360" fromJunction="J3" toJunction="J5" end="720" vehsPerHour="49.918485812975305" departLane="free"/>
  <flow id="JF22" begin="360" fromJunction="J3" toJunction="J6" end="720" vehsPerHour="25.64862269630515" departLane="free"/>
  <flow id="JF23" begin="360" fromJunction="J3" toJunction="J7" end="720" vehsPerHour="54.9942589380256" departLane="free"/>
  <flow id="JF24" begin="360" fromJunction="J4" toJunction="J0" end="720" vehsPerHour="1.9950658588045358" departLane="free"/>
  <flow id="JF25" begin="360" fromJunction="J4" toJunction="J5" end="720" vehsPerHour="42.11862426665813" departLane="free"/>
  <flow id="JF26" begin="360" fromJunction="J4" toJunction="J6" end="720" vehsPerHour="47.257046901459304" departLane="free"/>
  <flow id="JF27" begin="360" fromJunction="J5" toJunction="J0" end="720" vehsPerHour="30.255314207544046" departLane="free"/>
  <flow id="JF28" begin="360" fromJunction="J5" toJunction="J6" end="720" vehsPerHour="21.809375646543273" departLane="free"/>
  <flow id="JF29" begin="360" fromJunction="J5" toJunction="J7" end="720" vehsPerHour="66.0593125024773" departLane="free"/>
  <flow id="JF30" begin="360" fromJunction="J6" toJunction="J0" end="720" vehsPerHour="53.56358068791631" departLane="free"/>
  <flow id="JF31" begin="360" fromJunction="J6" toJunction="J3" end="720" vehsPerHour="2.3039857187986637" departLane="free"/>
  <flow id="JF32" begin="360" fromJunction="J6" toJunction="J4" end="720" vehsPerHour="16.332823170317823" departLane="free"/>
  <flow id="JF33" begin="360" fromJunction="J6" toJunction="J5" end="720" vehsPerHour="41.71388104586738" departLane="free"/>
  <flow id="JF34" begin="360" fromJunction="J7" toJunction="J0" end="720" vehsPerHour="62.18185718775742" departLane="free"/>
  <flow id="JF35" begin="360" fromJunction="J7" toJunction="J3" end="720" vehsPerHour="64.93823765490592" departLane="free"/>
  <flow id="JF36" begin="360" fromJunction="J7" toJunction="J4" end="720" vehsPerHour="14.0533628372742" departLane="free"/>
  <flow id="JF37" begin="360" fromJunction="J7" toJunction="J5" end="720" vehsPerHour="36.00054153748963" departLane="free"/>
  <flow id="JF38" begin="360" fromJunction="J7" toJunction="J6" end="720" vehsPerHour="15.905142801606608" departLane="free"/>
  <flow id="JF39" begin="720" fromJunction="J0" toJunction="J3" end="1080" vehsPerHour="31.181053863164667" departLane="free"/>
  <flow id="JF40" begin="720" fromJunction="J0" toJunction="J4" end="1080" vehsPerHour="44.47111852522604" departLane="free"/>
  <flow id="JF41" begin="720" fromJunction="J0" toJunction="J5" end="1080" vehsPerHour="67.90183190956719" departLane="free"/>
  <flow id="JF42" begin="720" fromJunction="J0" toJunction="J7" end="1080" vehsPerHour="72.98962344013113" departLane="free"/>
  <flow id="JF43" begin="720" fromJunction="J3" toJunction="J0" end="1080" vehsPerHour="101.52797781462732" departLane="free"/>
  <flow id="JF44" begin="720" fromJunction="J3" toJunction="J4" end="1080" vehsPerHour="112.93512681125418" departLane="free"/>
  <flow id="JF45" begin="720" fromJunction="J3" toJunction="J5" end="1080" vehsPerHour="126.15946858686615" departLane="free"/>
  <flow id="JF46" begin="720" fromJunction="J3" toJunction="J6" end="1080" vehsPerHour="61.52089706111611" departLane="free"/>
  <flow id="JF47" begin="720" fromJunction="J3" toJunction="J7" end="1080" vehsPerHour="14.35997884255789" departLane="free"/>
  <flow id="JF48" begin="720" fromJunction="J4" toJunction="J0" end="1080" vehsPerHour="9.977314486627938" departLane="free"/>
  <flow id="JF49" begin="720" fromJunction="J4" toJunction="J3" end="1080" vehsPerHour="22.473801136355373" departLane="free"/>
  <flow id="JF50" begin="720" fromJunction="J4" toJunction="J5" end="1080" vehsPerHour="59.69923585750336" departLane="free"/>
  <flow id="JF51" begin="720" fromJunction="J4" toJunction="J7" end="1080" vehsPerHour="60.54283723963096" departLane="free"/>
  <flow id="JF52" begin="720" fromJunction="J5" toJunction="J6" end="1080" vehsPerHour="24.21486289581557" departLane="free"/>
  <flow id="JF53" begin="720" fromJunction="J5" toJunction="J7" end="1080" vehsPerHour="24.810561711478552" departLane="free"/>
  <flow id="JF54" begin="720" fromJunction="J6" toJunction="J0" end="1080" vehsPerHour="9.815712042654777" departLane="free"/>
  <flow id="JF55" begin="720" fromJunction="J6" toJunction="J4" end="1080" vehsPerHour="61.66995148787477" departLane="free"/>
  <flow id="JF56" begin="720" fromJunction="J6" toJunction="J7" end="1080" vehsPerHour="1.9749850007890033" departLane="free"/>
  <flow id="JF57" begin="720" fromJunction="J7" toJunction="J3" end="1080" vehsPerHour="60.88235767049417" departLane="free"/>
  <flow id="JF58" begin="720" fromJunction="J7" toJunction="J4" end="1080" vehsPerHour="2.744823843417697" departLane="free"/>
  <flow id="JF59" begin="720" fromJunction="J7" toJunction="J5" end="1080" vehsPerHour="46.39000682339983" departLane="free"/>
  <flow id="JF60" begin="1080" fromJunction="J0" toJunction="J4" end="1440" vehsPerHour="80.99436705176558" departLane="free"/>
  <flow id="JF61" begin="1080" fromJunction="J0" toJunction="J6" end="1440" vehsPerHour="0.38244345427117205" departLane="free"/>
  <flow id="JF62" begin="1080" fromJunction="J0" toJunction="J7" end="1440" vehsPerHour="34.64243307544048" departLane="free"/>
  <flow id="JF63" begin="1080" fromJunction="J3" toJunction="J0" end="1440" vehsPerHour="37.94623068072724" departLane="free"/>
  <flow id="JF64" begin="1080" fromJunction="J3" toJunction="J4" end="1440" vehsPerHour="7.782789260794274" departLane="free"/>
  <flow id="JF65" begin="1080" fromJunction="J3" toJunction="J5" end="1440" vehsPerHour="1.8930947966817415" departLane="free"/>
  <flow id="JF66" begin="1080" fromJunction="J3" toJunction="J6" end="1440" vehsPerHour="27.96256800986966" departLane="free"/>
  <flow id="JF67" begin="1080" fromJunction="J3" toJunction="J7" end="1440" vehsPerHour="69.64882964218259" departLane="free"/>
  <flow id="JF68" begin="1080" fromJunction="J4" toJunction="J0" end="1440" vehsPerHour="44.27645729016303" departLane="free"/>
  <flow id="JF69" begin="1080" fromJunction="J4" toJunction="J3" end="1440" vehsPerHour="8.375279381367424" departLane="free"/>
  <flow id="JF70" begin="1080" fromJunction="J4" toJunction="J5" end="1440" vehsPerHour="47.981726860960755" departLane="free"/>
  <flow id="JF71" begin="1080" fromJunction="J4" toJunction="J6" end="1440" vehsPerHour="2.7402113593854023" departLane="free"/>
  <flow id="JF72" begin="1080" fromJunction="J4" toJunction="J7" end="1440" vehsPerHour="16.83181975048338" departLane="free"/>
  <flow id="JF73" begin="1080" fromJunction="J5" toJunction="J0" end="1440" vehsPerHour="19.735627473087128" departLane="free"/>
  <flow id="JF74" begin="1080" fromJunction="J5" toJunction="J3" end="1440" vehsPerHour="21.04052042008128" departLane="free"/>
  <flow id="JF75" begin="1080" fromJunction="J6" toJunction="J0" end="1440" vehsPerHour="36.1886493603854" departLane="free"/>
  <flow id="JF76" begin="1080" fromJunction="J6" toJunction="J4" end="1440" vehsPerHour="0.7472313058682944" departLane="free"/>
  <flow id="JF77" begin="1080" fromJunction="J6" toJunction="J7" end="1440" vehsPerHour="34.880854635421045" departLane="free"/>
  <flow id="JF78" begin="1080" fromJunction="J7" toJunction="J0" end="1440" vehsPerHour="7.856290449401539" departLane="free"/>
  <flow id="JF79" begin="1080" fromJunction="J7" toJunction="J3" end="1440" vehsPerHour="67.67115038692272" departLane="free"/>
  <flow id="JF80" begin="1080" fromJunction="J7" toJunction="J4" end="1440" vehsPerHour="56.349449993075154" departLane="free"/>
  <flow id="JF81" begin="1080" fromJunction="J7" toJunction="J5" end="1440" vehsPerHour="23.643316839803234" departLane="free"/>
  <flow id="JF82" begin="1080" fromJunction="J7" toJunction="J6" end="1440" vehsPerHour="56.698903206928264" departLane="free"/>
  <flow id="JF83" begin="1440" fromJunction="J0" toJunction="J3" end="1800" vehsPerHour="108.4923597919244" departLane="free"/>
  <flow id="JF84" begin="1440" fromJunction="J0" toJunction="J4" end="1800" vehsPerHour="17.19647453257625" departLane="free"/>
  <flow id="JF85" begin="1440" fromJunction="J0" toJunction="J7" end="1800" vehsPerHour="37.409656411036586" departLane="free"/>
  <flow id="JF86" begin="1440" fromJunction="J3" toJunction="J4" end="1800" vehsPerHour="19.058999612129718" departLane="free"/>
  <flow id="JF87" begin="1440" fromJunction="J3" toJunction="J5" end="1800" vehsPerHour="36.18429597888636" departLane="free"/>
  <flow id="JF88" begin="1440" fromJunction="J3" toJunction="J6" end="1800" vehsPerHour="15.308502414682902" departLane="free"/>
  <flow id="JF89" begin="1440" fromJunction="J3" toJunction="J7" end="1800" vehsPerHour="25.24578023159447" departLane="free"/>
  <flow id="JF90" begin="1440" fromJunction="J4" toJunction="J3" end="1800" vehsPerHour="38.25136724369171" departLane="free"/>
  <flow id="JF91" begin="1440" fromJunction="J4" toJunction="J6" end="1800" vehsPerHour="14.275285502504268" departLane="free"/>
  <flow id="JF92" begin="1440" fromJunction="J4" toJunction="J7" end="1800" vehsPerHour="37.76301320758905" departLane="free"/>
  <flow id="JF93" begin="1440" fromJunction="J5" toJunction="J0" end="1800" vehsPerHour="22.5831967823478" departLane="free"/>
  <flow id="JF94" begin="1440" fromJunction="J5" toJunction="J3" end="1800" vehsPerHour="19.22261990514223" departLane="free"/>
  <flow id="JF95" begin="1440" fromJunction="J6" toJunction="J0" end="1800" vehsPerHour="23.21254690538382" departLane="free"/>
  <flow id="JF96" begin="1440" fromJunction="J6" toJunction="J3" end="1800" vehsPerHour="49.77998419536544" departLane="free"/>
  <flow id="JF97" begin="1440" fromJunction="J6" toJunction="J5" end="1800" vehsPerHour="15.977407341321287" departLane="free"/>
  <flow id="JF98" begin="1440" fromJunction="J6" toJunction="J7" end="1800" vehsPerHour="24.976312153001082" departLane="free"/>
  <flow id="JF99" begin="1440" fromJunction="J7" toJunction="J0" end="1800" vehsPerHour="2.1631632003824737" departLane="free"/>
  <flow id="JF100" begin="1440" fromJunction="J7" toJunction="J5" end="1800" vehsPerHour="60.87689072118415" departLane="free"/>
  <flow id="JF101" begin="1440" fromJunction="J7" toJunction="J6" end="1800" vehsPerHour="47.62586783570699" departLane="free"/>
  <flow id="JF102" begin="1800" fromJunction="J0" toJunction="J3" end="2160" vehsPerHour="122.33843253681474" departLane="free"/>
  <flow id="JF103" begin="1800" fromJunction="J0" toJunction="J4" end="2160" vehsPerHour="67.75249564403457" departLane="free"/>
  <flow id="JF104" begin="1800" fromJunction="J0" toJunction="J5" end="2160" vehsPerHour="68.08049922364027" departLane="free"/>
  <flow id="JF105" begin="1800" fromJunction="J0" toJunction="J6" end="2160" vehsPerHour="56.00805018152347" departLane="free"/>
  <flow id="JF106" begin="1800" fromJunction="J3" toJunction="J0" end="2160" vehsPerHour="64.88852331924201" departLane="free"/>
  <flow id="JF107" begin="1800" fromJunction="J3" toJunction="J5" end="2160" vehsPerHour="66.05433962354691" departLane="free"/>
  <flow id="JF108" begin="1800" fromJunction="J3" toJunction="J7" end="2160" vehsPerHour="2.4033750676595838" departLane="free"/>
  <flow id="JF109" begin="1800" fromJunction="J4" toJunction="J0" end="2160" vehsPerHour="2.407268851142536" departLane="free"/>
  <flow id="JF110" begin="1800" fromJunction="J4" toJunction="J5" end="2160" vehsPerHour="28.735732178791586" departLane="free"/>
  <flow id="JF111" begin="1800" fromJunction="J4" toJunction="J6" end="2160" vehsPerHour="59.63169857637164" departLane="free"/>
  <flow id="JF112" begin="1800" fromJunction="J4" toJunction="J7" end="2160" vehsPerHour="57.945063093470445" departLane="free"/>
  <flow id="JF113" begin="1800" fromJunction="J5" toJunction="J0" end="2160" vehsPerHour="2.9165989771144285" departLane="free"/>
  <flow id="JF114" begin="1800" fromJunction="J5" toJunction="J3" end="2160" vehsPerHour="26.03119488811215" departLane="free"/>
  <flow id="JF115" begin="1800" fromJunction="J5" toJunction="J4" end="2160" vehsPerHour="48.834679295685014" departLane="free"/>
  <flow id="JF116" begin="1800" fromJunction="J5" toJunction="J6" end="2160" vehsPerHour="67.42016979078821" departLane="free"/>
  <flow id="JF117" begin="1800" fromJunction="J5" toJunction="J7" end="2160" vehsPerHour="10.667723275230593" departLane="free"/>
  <flow id="JF118" begin="1800" fromJunction="J6" toJunction="J0" end="2160" vehsPerHour="48.21447868777127" departLane="free"/>
  <flow id="JF119" begin="1800" fromJunction="J6" toJunction="J3" end="2160" vehsPerHour="20.216644857526795" departLane="free"/>
  <flow id="JF120" begin="1800" fromJunction="J6" toJunction="J4" end="2160" vehsPerHour="3.313224633855829" departLane="free"/>
  <flow id="JF121" begin="1800" fromJunction="J6" toJunction="J7" end="2160" vehsPerHour="21.74353614673281" departLane="free"/>
  <flow id="JF122" begin="1800" fromJunction="J7" toJunction="J0" end="2160" vehsPerHour="39.362368816848914" departLane="free"/>
  <flow id="JF123" begin="1800" fromJunction="J7" toJunction="J3" end="2160" vehsPerHour="0.35764874343596226" departLane="free"/>
  <flow id="JF124" begin="1800" fromJunction="J7" toJunction="J5" end="2160" vehsPerHour="51.53835911775323" departLane="free"/>
  <flow id="JF125" begin="2160" fromJunction="J0" toJunction="J4" end="2520" vehsPerHour="91.20584768651291" departLane="free"/>
  <flow id="JF126" begin="2160" fromJunction="J0" toJunction="J5" end="2520" vehsPerHour="96.122750041657" departLane="free"/>
  <flow id="JF127" begin="2160" fromJunction="J0" toJunction="J6" end="2520" vehsPerHour="70.6863975285183" departLane="free"/>
  <flow id="JF128" begin="2160" fromJunction="J0" toJunction="J7" end="2520" vehsPerHour="128.47372741707417" departLane="free"/>
  <flow id="JF129" begin="2160" fromJunction="J3" toJunction="J0" end="2520" vehsPerHour="57.58639201942699" departLane="free"/>
  <flow id="JF130" begin="2160" fromJunction="J3" toJunction="J4" end="2520" vehsPerHour="81.78929969992326" departLane="free"/>
  <flow id="JF131" begin="2160" fromJunction="J3" toJunction="J5" end="2520" vehsPerHour="64.08876805204427" departLane="free"/>
  <flow id="JF132" begin="2160" fromJunction="J3" toJunction="J7" end="2520" vehsPerHour="25.766436020350177" departLane="free"/>
  <flow id="JF133" begin="2160" fromJunction="J4" toJunction="J3" end="2520" vehsPerHour="9.505248826352647" departLane="free"/>
  <flow id="JF134" begin="2160" fromJunction="J4" toJunction="J5" end="2520" vehsPerHour="0.18727810626393374" departLane="free"/>
  <flow id="JF135" begin="2160" fromJunction="J4" toJunction="J7" end="2520" vehsPerHour="64.58811292000645" departLane="free"/>
  <flow id="JF136" begin="2160" fromJunction="J5" toJunction="J0" end="2520" vehsPerHour="45.02020789048557" departLane="free"/>
  <flow id="JF137" begin="2160" fromJunction="J5" toJunction="J4" end="2520" vehsPerHour="46.751341102348" departLane="free"/>
  <flow id="JF138" begin="2160" fromJunction="J5" toJunction="J7" end="2520" vehsPerHour="13.207612985481877" departLane="free"/>
  <flow id="JF139" begin="2160" fromJunction="J6" toJunction="J4" end="2520" vehsPerHour="27.723544539660136" departLane="free"/>
  <flow id="JF140" begin="2160" fromJunction="J6" toJunction="J5" end="2520" vehsPerHour="6.509130848828936" departLane="free"/>
  <flow id="JF141" begin="2160" fromJunction="J6" toJunction="J7" end="2520" vehsPerHour="39.916434200272406" departLane="free"/>
  <flow id="JF142" begin="2160" fromJunction="J7" toJunction="J3" end="2520" vehsPerHour="44.72339959581422" departLane="free"/>
  <flow id="JF143" begin="2160" fromJunction="J7" toJunction="J4" end="2520" vehsPerHour="57.811649488535316" departLane="free"/>
  <flow id="JF144" begin="2160" fromJunction="J7" toJunction="J5" end="2520" vehsPerHour="56.30762281711025" departLane="free"/>
  <flow id="JF145" begin="2520" fromJunction="J0" toJunction="J3" end="2880" vehsPerHour="1.025720998152633" departLane="free"/>
  <flow id="JF146" begin="2520" fromJunction="J0" toJunction="J4" end="2880" vehsPerHour="30.450477695106635" departLane="free"/>
  <flow id="JF147" begin="2520" fromJunction="J0" toJunction="J6" end="2880" vehsPerHour="1.8846231698968507" departLane="free"/>
  <flow id="JF148" begin="2520" fromJunction="J0" toJunction="J7" end="2880" vehsPerHour="66.15582301792483" departLane="free"/>
  <flow id="JF149" begin="2520" fromJunction="J3" toJunction="J0" end="2880" vehsPerHour="9.014217346182306" departLane="free"/>
  <flow id="JF150" begin="2520" fromJunction="J3" toJunction="J4" end="2880" vehsPerHour="81.85352755860806" departLane="free"/>
  <flow id="JF151" begin="2520" fromJunction="J3" toJunction="J5" end="2880" vehsPerHour="69.4045617061528" departLane="free"/>
  <flow id="JF152" begin="2520" fromJunction="J3" toJunction="J7" end="2880" vehsPerHour="125.78984124657438" departLane="free"/>
  <flow id="JF153" begin="2520" fromJunction="J4" toJunction="J0" end="2880" vehsPerHour="67.23102741113611" departLane="free"/>
  <flow id="JF154" begin="2520" fromJunction="J4" toJunction="J5" end="2880" vehsPerHour="0.6468792227718249" departLane="free"/>
  <flow id="JF155" begin="2520" fromJunction="J4" toJunction="J6" end="2880" vehsPerHour="8.889011623768155" departLane="free"/>
  <flow id="JF156" begin="2520" fromJunction="J4" toJunction="J7" end="2880" vehsPerHour="52.5358416520366" departLane="free"/>
  <flow id="JF157" begin="2520" fromJunction="J5" toJunction="J0" end="2880" vehsPerHour="45.436069427902794" departLane="free"/>
  <flow id="JF158" begin="2520" fromJunction="J5" toJunction="J3" end="2880" vehsPerHour="7.288351439776634" departLane="free"/>
  <flow id="JF159" begin="2520" fromJunction="J5" toJunction="J7" end="2880" vehsPerHour="13.553098141627745" departLane="free"/>
  <flow id="JF160" begin="2520" fromJunction="J6" toJunction="J0" end="2880" vehsPerHour="12.6008748811529" departLane="free"/>
  <flow id="JF161" begin="2520" fromJunction="J6" toJunction="J3" end="2880" vehsPerHour="59.33173768578798" departLane="free"/>
  <flow id="JF162" begin="2520" fromJunction="J6" toJunction="J4" end="2880" vehsPerHour="62.606313134975885" departLane="free"/>
  <flow id="JF163" begin="2520" fromJunction="J6" toJunction="J5" end="2880" vehsPerHour="68.20160305514447" departLane="free"/>
  <flow id="JF164" begin="2520" fromJunction="J7" toJunction="J0" end="2880" vehsPerHour="61.53913484319067" departLane="free"/>
  <flow id="JF165" begin="2520" fromJunction="J7" toJunction="J3" end="2880" vehsPerHour="27.16444711740009" departLane="free"/>
  <flow id="JF166" begin="2520" fromJunction="J7" toJunction="J4" end="2880" vehsPerHour="37.76128283070969" departLane="free"/>
  <flow id="JF167" begin="2520" fromJunction="J7" toJunction="J5" end="2880" vehsPerHour="59.43216978278984" departLane="free"/>
  <flow id="JF168" begin="2520" fromJunction="J7" toJunction="J6" end="2880" vehsPerHour="0.08914094451107783" departLane="free"/>
  <flow id="JF169" begin="2880" fromJunction="J0" toJunction="J3" end="3240" vehsPerHour="134.31871722600235" departLane="free"/>
  <flow id="JF170" begin="2880" fromJunction="J0" toJunction="J6" end="3240" vehsPerHour="42.4304387538833" departLane="free"/>
  <flow id="JF171" begin="2880" fromJunction="J0" toJunction="J7" end="3240" vehsPerHour="77.94821399663866" departLane="free"/>
  <flow id="JF172" begin="2880" fromJunction="J3" toJunction="J4" end="3240" vehsPerHour="21.782078726106366" departLane="free"/>
  <flow id="JF173" begin="2880" fromJunction="J3" toJunction="J5" end="3240" vehsPerHour="30.38056830155939" departLane="free"/>
  <flow id="JF174" begin="2880" fromJunction="J3" toJunction="J7" end="3240" vehsPerHour="23.32760174191523" departLane="free"/>
  <flow id="JF175" begin="2880" fromJunction="J4" toJunction="J0" end="3240" vehsPerHour="2.6420210676754725" departLane="free"/>
  <flow id="JF176" begin="2880" fromJunction="J4" toJunction="J3" end="3240" vehsPerHour="62.426340775966146" departLane="free"/>
  <flow id="JF177" begin="2880" fromJunction="J4" toJunction="J6" end="3240" vehsPerHour="54.7826621674107" departLane="free"/>
  <flow id="JF178" begin="2880" fromJunction="J4" toJunction="J7" end="3240" vehsPerHour="52.77081432981246" departLane="free"/>
  <flow id="JF179" begin="2880" fromJunction="J5" toJunction="J0" end="3240" vehsPerHour="40.92933033345041" departLane="free"/>
  <flow id="JF180" begin="2880" fromJunction="J5" toJunction="J3" end="3240" vehsPerHour="11.032797123020911" departLane="free"/>
  <flow id="JF181" begin="2880" fromJunction="J5" toJunction="J4" end="3240" vehsPerHour="10.795429125407786" departLane="free"/>
  <flow id="JF182" begin="2880" fromJunction="J5" toJunction="J6" end="3240" vehsPerHour="50.53054911064322" departLane="free"/>
  <flow id="JF183" begin="2880" fromJunction="J6" toJunction="J0" end="3240" vehsPerHour="25.991230128247107" departLane="free"/>
  <flow id="JF184" begin="2880" fromJunction="J6" toJunction="J3" end="3240" vehsPerHour="59.62137670993115" departLane="free"/>
  <flow id="JF185" begin="2880" fromJunction="J6" toJunction="J4" end="3240" vehsPerHour="44.05095463136622" departLane="free"/>
  <flow id="JF186" begin="2880" fromJunction="J6" toJunction="J7" end="3240" vehsPerHour="39.857956060199044" departLane="free"/>
  <flow id="JF187" begin="2880" fromJunction="J7" toJunction="J0" end="3240" vehsPerHour="61.31811610786982" departLane="free"/>
  <flow id="JF188" begin="2880" fromJunction="J7" toJunction="J3" end="3240" vehsPerHour="21.68087134187065" departLane="free"/>
  <flow id="JF189" begin="2880" fromJunction="J7" toJunction="J4" end="3240" vehsPerHour="56.08867203868016" departLane="free"/>
  <flow id="JF190" begin="2880" fromJunction="J7" toJunction="J5" end="3240" vehsPerHour="2.2106521063956945" departLane="free"/>
  <flow id="JF191" begin="3240" fromJunction="J0" toJunction="J3" end="3600" vehsPerHour="97.24327784006815" departLane="free"/>
  <flow id="JF192" begin="3240" fromJunction="J0" toJunction="J5" end="3600" vehsPerHour="115.74092232079816" departLane="free"/>
  <flow id="JF193" begin="3240" fromJunction="J0" toJunction="J6" end="3600" vehsPerHour="123.04590688210375" departLane="free"/>
  <flow id="JF194" begin="3240" fromJunction="J0" toJunction="J7" end="3600" vehsPerHour="12.572198815499986" departLane="free"/>
  <flow id="JF195" begin="3240" fromJunction="J3" toJunction="J4" end="3600" vehsPerHour="31.68257546402028" departLane="free"/>
  <flow id="JF196" begin="3240" fromJunction="J4" toJunction="J0" end="3600" vehsPerHour="66.58072377495623" departLane="free"/>
  <flow id="JF197" begin="3240" fromJunction="J4" toJunction="J3" end="3600" vehsPerHour="22.799656693706428" departLane="free"/>
  <flow id="JF198" begin="3240" fromJunction="J4" toJunction="J5" end="3600" vehsPerHour="53.34475765377396" departLane="free"/>
  <flow id="JF199" begin="3240" fromJunction="J4" toJunction="J6" end="3600" vehsPerHour="66.25082986471207" departLane="free"/>
  <flow id="JF200" begin="3240" fromJunction="J4" toJunction="J7" end="3600" vehsPerHour="25.620804365669436" departLane="free"/>
  <flow id="JF201" begin="3240" fromJunction="J5" toJunction="J0" end="3600" vehsPerHour="44.73529851720746" departLane="free"/>
  <flow id="JF202" begin="3240" fromJunction="J5" toJunction="J3" end="3600" vehsPerHour="54.01899805638153" departLane="free"/>
  <flow id="JF203" begin="3240" fromJunction="J5" toJunction="J4" end="3600" vehsPerHour="48.00337977459677" departLane="free"/>
  <flow id="JF204" begin="3240" fromJunction="J5" toJunction="J7" end="3600" vehsPerHour="4.22629209353678" departLane="free"/>
  <flow id="JF205" begin="3240" fromJunction="J6" toJunction="J0" end="3600" vehsPerHour="52.83271452215665" departLane="free"/>
  <flow id="JF206" begin="3240" fromJunction="J6" toJunction="J3" end="3600" vehsPerHour="28.401831991298945" departLane="free"/>
  <flow id="JF207" begin="3240" fromJunction="J6" toJunction="J4" end="3600" vehsPerHour="64.30532005317718" departLane="free"/>
  <flow id="JF208" begin="3240" fromJunction="J6" toJunction="J5" end="3600" vehsPerHour="68.09427403435583" departLane="free"/>
  <flow id="JF209" begin="3240" fromJunction="J6" toJunction="J7" end="3600" vehsPerHour="57.637285578932534" departLane="free"/>
  <flow id="JF210" begin="3240" fromJunction="J7" toJunction="J3" end="3600" vehsPerHour="63.10266942075336" departLane="free"/>
  <flow id="JF211" begin="3240" fromJunction="J7" toJunction="J4" end="3600" vehsPerHour="54.87106183877628" departLane="free"/>
  <flow id="JF212" begin="3240" fromJunction="J7" toJunction="J5" end="3600" vehsPerHour="41.596928331400186" departLane="free"/>
  <flow id="JF213" begin="3600" fromJunction="J0" toJunction="J3" end="3960" vehsPerHour="116.45633933223978" departLane="free"/>
  <flow id="JF214" begin="3600" fromJunction="J0" toJunction="J5" end="3960" vehsPerHour="99.93780309971167" departLane="free"/>
  <flow id="JF215" begin="3600" fromJunction="J0" toJunction="J6" end="3960" vehsPerHour="109.04530957481269" departLane="free"/>
  <flow id="JF216" begin="3600" fromJunction="J0" toJunction="J7" end="3960" vehsPerHour="134.323524933855" departLane="free"/>
  <flow id="JF217" begin="3600" fromJunction="J3" toJunction="J0" end="3960" vehsPerHour="13.741043305113019" departLane="free"/>
  <flow id="JF218" begin="3600" fromJunction="J3" toJunction="J4" end="3960" vehsPerHour="118.967173609172" departLane="free"/>
  <flow id="JF219" begin="3600" fromJunction="J3" toJunction="J5" end="3960" vehsPerHour="2.6914512921585914" departLane="free"/>
  <flow id="JF220" begin="3600" fromJunction="J3" toJunction="J6" end="3960" vehsPerHour="116.15044124637684" departLane="free"/>
  <flow id="JF221" begin="3600" fromJunction="J4" toJunction="J0" end="3960" vehsPerHour="26.261897911723715" departLane="free"/>
  <flow id="JF222" begin="3600" fromJunction="J4" toJunction="J3" end="3960" vehsPerHour="60.50872545235423" departLane="free"/>
  <flow id="JF223" begin="3600" fromJunction="J4" toJunction="J6" end="3960" vehsPerHour="43.419938510001536" departLane="free"/>
  <flow id="JF224" begin="3600" fromJunction="J5" toJunction="J0" end="3960" vehsPerHour="52.75387771623941" departLane="free"/>
  <flow id="JF225" begin="3600" fromJunction="J5" toJunction="J3" end="3960" vehsPerHour="36.05771629149123" departLane="free"/>
  <flow id="JF226" begin="3600" fromJunction="J5" toJunction="J4" end="3960" vehsPerHour="68.25203488964301" departLane="free"/>
  <flow id="JF227" begin="3600" fromJunction="J5" toJunction="J7" end="3960" vehsPerHour="68.09674717297251" departLane="free"/>
  <flow id="JF228" begin="3600" fromJunction="J6" toJunction="J0" end="3960" vehsPerHour="14.746016024611905" departLane="free"/>
  <flow id="JF229" begin="3600" fromJunction="J6" toJunction="J4" end="3960" vehsPerHour="31.09976789306508" departLane="free"/>
  <flow id="JF230" begin="3600" fromJunction="J6" toJunction="J5" end="3960" vehsPerHour="46.08120996355105" departLane="free"/>
  <flow id="JF231" begin="3600" fromJunction="J6" toJunction="J7" end="3960" vehsPerHour="60.085246927997915" departLane="free"/>