<?xml version="1.0" encoding="UTF-8"?>
<routes xmlns:xsi="http://www.w3.org/2001/XMLSchema-instance" xsi:noNamespaceSchemaLocation="http://sumo.dlr.de/xsd/routes_file.xsd">
  <flow id="JF0" begin="0" fromJunction="J0" toJunction="J12" end="360" vehsPerHour="12.05928012802515" departLane="free" arrivalSpeed="0.0"/>
  <flow id="JF1" begin="0" fromJunction="J0" toJunction="J13" end="360" vehsPerHour="67.43162318667301" departLane="free" arrivalSpeed="0.0"/>
  <flow id="JF2" begin="0" fromJunction="J0" toJunction="J14" end="360" vehsPerHour="25.256379401183036" departLane="free" arrivalSpeed="0.0"/>
  <flow id="JF3" begin="0" fromJunction="J0" toJunction="J16" end="360" vehsPerHour="52.338497862622035" departLane="free" arrivalSpeed="0.0"/>
  <flow id="JF4" begin="0" fromJunction="J0" toJunction="J3" end="360" vehsPerHour="64.98027379856751" departLane="free" arrivalSpeed="0.0"/>
  <flow id="JF5" begin="0" fromJunction="J0" toJunction="J6" end="360" vehsPerHour="42.866404336385486" departLane="free" arrivalSpeed="0.0"/>
  <flow id="JF6" begin="0" fromJunction="J0" toJunction="J8" end="360" vehsPerHour="22.83736656511976" departLane="free" arrivalSpeed="0.0"/>
  <flow id="JF7" begin="0" fromJunction="J12" toJunction="J0" end="360" vehsPerHour="14.563296918124596" departLane="free" arrivalSpeed="0.0"/>
  <flow id="JF8" begin="0" fromJunction="J12" toJunction="J14" end="360" vehsPerHour="4.702136685758257" departLane="free" arrivalSpeed="0.0"/>
  <flow id="JF9" begin="0" fromJunction="J12" toJunction="J15" end="360" vehsPerHour="60.07179122970849" departLane="free" arrivalSpeed="0.0"/>
  <flow id="JF10" begin="0" fromJunction="J12" toJunction="J16" end="360" vehsPerHour="23.625999613197184" departLane="free" arrivalSpeed="0.0"/>
  <flow id="JF11" begin="0" fromJunction="J12" toJunction="J3" end="360" vehsPerHour="6.929446092997194" departLane="free" arrivalSpeed="0.0"/>
  <flow id="JF12" begin="0" fromJunction="J12" toJunction="J6" end="360" vehsPerHour="4.95083533875039" departLane="free" arrivalSpeed="0.0"/>
  <flow id="JF13" begin="0" fromJunction="J12" toJunction="J7" end="360" vehsPerHour="14.204218931670761" departLane="free" arrivalSpeed="0.0"/>
  <flow id="JF14" begin="0" fromJunction="J12" toJunction="J8" end="360" vehsPerHour="32.445442183192085" departLane="free" arrivalSpeed="0.0"/>
  <flow id="JF15" begin="0" fromJunction="J12" toJunction="J9" end="360" vehsPerHour="41.30724390635316" departLane="free" arrivalSpeed="0.0"/>
  <flow id="JF16" begin="0" fromJunction="J13" toJunction="J0" end="360" vehsPerHour="66.43474543845248" departLane="free" arrivalSpeed="0.0"/>
  <flow id="JF17" begin="0" fromJunction="J13" toJunction="J12" end="360" vehsPerHour="55.85136464941933" departLane="free" arrivalSpeed="0.0"/>
  <flow id="JF18" begin="0" fromJunction="J13" toJunction="J14" end="360" vehsPerHour="65.12693087491276" departLane="free" arrivalSpeed="0.0"/>
  <flow id="JF19" begin="0" fromJunction="J13" toJunction="J16" end="360" vehsPerHour="50.32653113482842" departLane="free" arrivalSpeed="0.0"/>
  <flow id="JF20" begin="0" fromJunction="J13" toJunction="J2" end="360" vehsPerHour="3.009229922298394" departLane="free" arrivalSpeed="0.0"/>
  <flow id="JF21" begin="0" fromJunction="J13" toJunction="J3" end="360" vehsPerHour="45.31709650240577" departLane="free" arrivalSpeed="0.0"/>
  <flow id="JF22" begin="0" fromJunction="J14" toJunction="J0" end="360" vehsPerHour="32.853540692692405" departLane="free" arrivalSpeed="0.0"/>
  <flow id="JF23" begin="0" fromJunction="J14" toJunction="J12" end="360" vehsPerHour="55.968899262307744" departLane="free" arrivalSpeed="0.0"/>
  <flow id="JF24" begin="0" fromJunction="J14" toJunction="J16" end="360" vehsPerHour="55.10161682613899" departLane="free" arrivalSpeed="0.0"/>
  <flow id="JF25" begin="0" fromJunction="J14" toJunction="J2" end="360" vehsPerHour="22.097107161075005" departLane="free" arrivalSpeed="0.0"/>
  <flow id="JF26" begin="0" fromJunction="J14" toJunction="J3" end="360" vehsPerHour="22.45274850701329" departLane="free" arrivalSpeed="0.0"/>
  <flow id="JF27" begin="0" fromJunction="J14" toJunction="J7" end="360" vehsPerHour="34.325893825459715" departLane="free" arrivalSpeed="0.0"/>
  <flow id="JF28" begin="0" fromJunction="J14" toJunction="J9" end="360" vehsPerHour="7.547024753123702" departLane="free" arrivalSpeed="0.0"/>
  <flow id="JF29" begin="0" fromJunction="J15" toJunction="J0" end="360" vehsPerHour="0.5854515065250278" departLane="free" arrivalSpeed="0.0"/>
  <flow id="JF30" begin="0" fromJunction="J15" toJunction="J12" end="360" vehsPerHour="48.15940497388725" departLane="free" arrivalSpeed="0.0"/>
  <flow id="JF31" begin="0" fromJunction="J15" toJunction="J14" end="360" vehsPerHour="42.49568296291342" departLane="free" arrivalSpeed="0.0"/>
  <flow id="JF32" begin="0" fromJunction="J15" toJunction="J16" end="360" vehsPerHour="53.58948319797323" departLane="free" arrivalSpeed="0.0"/>
  <flow id="JF33" begin="0" fromJunction="J15" toJunction="J2" end="360" vehsPerHour="14.392096512563295" departLane="free" arrivalSpeed="0.0"/>
  <flow id="JF34" begin="0" fromJunction="J15" toJunction="J6" end="360" vehsPerHour="50.457407197053705" departLane="free" arrivalSpeed="0.0"/>
  <flow id="JF35" begin="0" fromJunction="J15" toJunction="J7" end="360" vehsPerHour="32.753794447988376" departLane="free" arrivalSpeed="0.0"/>
  <flow id="JF36" begin="0" fromJunction="J15" toJunction="J9" end="360" vehsPerHour="51.95280036820888" departLane="free" arrivalSpeed="0.0"/>
  <flow id="JF37" begin="0" fromJunction="J16" toJunction="J14" end="360" vehsPerHour="109.09350473904667" departLane="free" arrivalSpeed="0.0"/>
  <flow id="JF38" begin="0" fromJunction="J16" toJunction="J15" end="360" vehsPerHour="94.79314609620667" departLane="free" arrivalSpeed="0.0"/>
  <flow id="JF39" begin="0" fromJunction="J16" toJunction="J2" end="360" vehsPerHour="77.19376801517275" departLane="free" arrivalSpeed="0.0"/>
  <flow id="JF40" begin="0" fromJunction="J16" toJunction="J3" end="360" vehsPerHour="96.95859228772017" departLane="free" arrivalSpeed="0.0"/>
  <flow id="JF41" begin="0" fromJunction="J16" toJunction="J6" end="360" vehsPerHour="54.91556259497045" departLane="free" arrivalSpeed="0.0"/>
  <flow id="JF42" begin="0" fromJunction="J16" toJunction="J7" end="360" vehsPerHour="21.182911088089767" departLane="free" arrivalSpeed="0.0"/>
  <flow id="JF43" begin="0" fromJunction="J16" toJunction="J8" end="360" vehsPerHour="83.6051194606731" departLane="free" arrivalSpeed="0.0"/>
  <flow id="JF44" begin="0" fromJunction="J16" toJunction="J9" end="360" vehsPerHour="80.03549795808516" departLane="free" arrivalSpeed="0.0"/>
  <flow id="JF45" begin="0" fromJunction="J2" toJunction="J12" end="360" vehsPerHour="78.25005025673131" departLane="free" arrivalSpeed="0.0"/>
  <flow id="JF46" begin="0" fromJunction="J2" toJunction="J13" end="360" vehsPerHour="112.67878342840709" departLane="free" arrivalSpeed="0.0"/>
  <flow id="JF47" begin="0" fromJunction="J2" toJunction="J15" end="360" vehsPerHour="56.47382943807236" departLane="free" arrivalSpeed="0.0"/>
  <flow id="JF48" begin="0" fromJunction="J2" toJunction="J16" end="360" vehsPerHour="75.65901196973748" departLane="free" arrivalSpeed="0.0"/>
  <flow id="JF49" begin="0" fromJunction="J2" toJunction="J6" end="360" vehsPerHour="68.63259106156822" departLane="free" arrivalSpeed="0.0"/>
  <flow id="JF50" begin="0" fromJunction="J2" toJunction="J9" end="360" vehsPerHour="30.736735325220856" departLane="free" arrivalSpeed="0.0"/>
  <flow id="JF51" begin="0" fromJunction="J3" toJunction="J12" end="360" vehsPerHour="34.475874568795064" departLane="free" arrivalSpeed="0.0"/>
  <flow id="JF52" begin="0" fromJunction="J3" toJunction="J14" end="360" vehsPerHour="29.684530985421734" departLane="free" arrivalSpeed="0.0"/>
  <flow id="JF53" begin="0" fromJunction="J3" toJunction="J15" end="360" vehsPerHour="63.17289746837118" departLane="free" arrivalSpeed="0.0"/>
  <flow id="JF54" begin="0" fromJunction="J3" toJunction="J16" end="360" vehsPerHour="48.824324711434485" departLane="free" arrivalSpeed="0.0"/>
  <flow id="JF55" begin="0" fromJunction="J3" toJunction="J2" end="360" vehsPerHour="34.33227941038976" departLane="free" arrivalSpeed="0.0"/>
  <flow id="JF56" begin="0" fromJunction="J3" toJunction="J6" end="360" vehsPerHour="57.1614896569495" departLane="free" arrivalSpeed="0.0"/>
  <flow id="JF57" begin="0" fromJunction="J3" toJunction="J7" end="360" vehsPerHour="8.304302317392482" departLane="free" arrivalSpeed="0.0"/>
  <flow id="JF58" begin="0" fromJunction="J3" toJunction="J8" end="360" vehsPerHour="56.53562723730921" departLane="free" arrivalSpeed="0.0"/>
  <flow id="JF59" begin="0" fromJunction="J3" toJunction="J9" end="360" vehsPerHour="45.46369506307845" departLane="free" arrivalSpeed="0.0"/>
  <flow id="JF60" begin="0" fromJunction="J6" toJunction="J0" end="360" vehsPerHour="18.891375894551462" departLane="free" arrivalSpeed="0.0"/>
  <flow id="JF61" begin="0" fromJunction="J6" toJunction="J12" end="360" vehsPerHour="29.26275347677142" departLane="free" arrivalSpeed="0.0"/>
  <flow id="JF62" begin="0" fromJunction="J6" toJunction="J13" end="360" vehsPerHour="2.7251392080348613" departLane="free" arrivalSpeed="0.0"/>
  <flow id="JF63" begin="0" fromJunction="J6" toJunction="J15" end="360" vehsPerHour="67.49995776262266" departLane="free" arrivalSpeed="0.0"/>
  <flow id="JF64" begin="0" fromJunction="J6" toJunction="J16" end="360" vehsPerHour="49.30023374443506" departLane="free" arrivalSpeed="0.0"/>
  <flow id="JF65" begin="0" fromJunction="J6" toJunction="J2" end="360" vehsPerHour="1.0793429206089398" departLane="free" arrivalSpeed="0.0"/>
  <flow id="JF66" begin="0" fromJunction="J6" toJunction="J3" end="360" vehsPerHour="26.113671190933683" departLane="free" arrivalSpeed="0.0"/>
  <flow id="JF67" begin="0" fromJunction="J6" toJunction="J7" end="360" vehsPerHour="7.315678841414085" departLane="free" arrivalSpeed="0.0"/>
  <flow id="JF68" begin="0" fromJunction="J6" toJunction="J8" end="360" vehsPerHour="59.92058322220365" departLane="free" arrivalSpeed="0.0"/>
  <flow id="JF69" begin="0" fromJunction="J7" toJunction="J0" end="360" vehsPerHour="7.1959828545916436" departLane="free" arrivalSpeed="0.0"/>
  <flow id="JF70" begin="0" fromJunction="J7" toJunction="J12" end="360" vehsPerHour="56.28433488887257" departLane="free" arrivalSpeed="0.0"/>
  <flow id="JF71" begin="0" fromJunction="J7" toJunction="J13" end="360" vehsPerHour="56.25503775747009" departLane="free" arrivalSpeed="0.0"/>
  <flow id="JF72" begin="0" fromJunction="J7" toJunction="J14" end="360" vehsPerHour="52.4960893269092" departLane="free" arrivalSpeed="0.0"/>
  <flow id="JF73" begin="0" fromJunction="J7" toJunction="J3" end="360" vehsPerHour="60.68277908214306" departLane="free" arrivalSpeed="0.0"/>
  <flow id="JF74" begin="0" fromJunction="J7" toJunction="J6" end="360" vehsPerHour="62.92478660500886" departLane="free" arrivalSpeed="0.0"/>
  <flow id="JF75" begin="0" fromJunction="J7" toJunction="J8" end="360" vehsPerHour="14.879363852088302" departLane="free" arrivalSpeed="0.0"/>
  <flow id="JF76" begin="0" fromJunction="J8" toJunction="J0" end="360" vehsPerHour="22.499973780459403" departLane="free" arrivalSpeed="0.0"/>
  <flow id="JF77" begin="0" fromJunction="J8" toJunction="J13" end="360" vehsPerHour="68.3690062040787" departLane="free" arrivalSpeed="0.0"/>
  <flow id="JF78" begin="0" fromJunction="J8" toJunction="J14" end="360" vehsPerHour="0.7508680348831043" departLane="free" arrivalSpeed="0.0"/>
  <flow id="JF79" begin="0" fromJunction="J8" toJunction="J15" end="360" vehsPerHour="11.03443583072475" departLane="free" arrivalSpeed="0.0"/>
  <flow id="JF80" begin="0" fromJunction="J8" toJunction="J2" end="360" vehsPerHour="41.981350726188786" departLane="free" arrivalSpeed="0.0"/>
  <flow id="JF81" begin="0" fromJunction="J8" toJunction="J3" end="360" vehsPerHour="62.944469803054766" departLane="free" arrivalSpeed="0.0"/>
  <flow id="JF82" begin="0" fromJunction="J8" toJunction="J9" end="360" vehsPerHour="25.83207310248089" departLane="free" arrivalSpeed="0.0"/>
  <flow id="JF83" begin="0" fromJunction="J9" toJunction="J0" end="360" vehsPerHour="23.78839336444273" departLane="free" arrivalSpeed="0.0"/>
  <flow id="JF84" begin="0" fromJunction="J9" toJunction="J12" end="360" vehsPerHour="44.990261454827305" departLane="free" arrivalSpeed="0.0"/>
  <flow id="JF85" begin="0" fromJunction="J9" toJunction="J13" end="360" vehsPerHour="37.104848184567864" departLane="free" arrivalSpeed="0.0"/>
  <flow id="JF86" begin="0" fromJunction="J9" toJunction="J15" end="360" vehsPerHour="47.58118703035114" departLane="free" arrivalSpeed="0.0"/>
  <flow id="JF87" begin="0" fromJunction="J9" toJunction="J16" end="360" vehsPerHour="10.292383373202153" departLane="free" arrivalSpeed="0.0"/>
  <flow id="JF88" begin="0" fromJunction="J9" toJunction="J2" end="360" vehsPerHour="22.40065983258534" departLane="free" arrivalSpeed="0.0"/>
  <flow id="JF89" begin="0" fromJunction="J9" toJunction="J3" end="360" vehsPerHour="39.25023237467941" departLane="free" arrivalSpeed="0.0"/>
  <flow id="JF90" begin="0" fromJunction="J9" toJunction="J7" end="360" vehsPerHour="56.40790392956428" departLane="free" arrivalSpeed="0.0"/>
  <flow id="JF91" begin="0" fromJunction="J9" toJunction="J8" end="360" vehsPerHour="47.37243235010279" departLane="free" arrivalSpeed="0.0"/>
  <flow id="JF92" begin="360" fromJunction="J0" toJunction="J12" end="720" vehsPerHour="53.21458104698061" departLane="free" arrivalSpeed="0.0"/>
  <flow id="JF93" begin="360" fromJunction="J0" toJunction="J14" end="720" vehsPerHour="47.93714146914168" departLane="free" arrivalSpeed="0.0"/>
  <flow id="JF94" begin="360" fromJunction="J0" toJunction="J16" end="720" vehsPerHour="51.625631569076866" departLane="free" arrivalSpeed="0.0"/>
  <flow id="JF95" begin="360" fromJunction="J0" toJunction="J2" end="720" vehsPerHour="63.60517228396536" departLane="free" arrivalSpeed="0.0"/>
  <flow id="JF96" begin="360" fromJunction="J0" toJunction="J3" end="720" vehsPerHour="21.859013290524643" departLane="free" arrivalSpeed="0.0"/>
  <flow id="JF97" begin="360" fromJunction="J0" toJunction="J6" end="720" vehsPerHour="23.105008062432834" departLane="free" arrivalSpeed="0.0"/>
  <flow id="JF98" begin="360" fromJunction="J0" toJunction="J7" end="720" vehsPerHour="13.77076567434998" departLane="free" arrivalSpeed="0.0"/>
  <flow id="JF99" begin="360" fromJunction="J0" toJunction="J8" end="720" vehsPerHour="16.502779871115592" departLane="free" arrivalSpeed="0.0"/>
  <flow id="JF100" begin="360" fromJunction="J12" toJunction="J0" end="720" vehsPerHour="17.41816136763073" departLane="free" arrivalSpeed="0.0"/>
  <flow id="JF101" begin="360" fromJunction="J12" toJunction="J14" end="720" vehsPerHour="58.68008811538971" departLane="free" arrivalSpeed="0.0"/>
  <flow id="JF102" begin="360" fromJunction="J12" toJunction="J16" end="720" vehsPerHour="31.803338971334014" departLane="free" arrivalSpeed="0.0"/>
  <flow id="JF103" begin="360" fromJunction="J12" toJunction="J2" end="720" vehsPerHour="16.77479297099521" departLane="free" arrivalSpeed="0.0"/>
  <flow id="JF104" begin="360" fromJunction="J12" toJunction="J3" end="720" vehsPerHour="67.45846058373112" departLane="free" arrivalSpeed="0.0"/>
  <flow id="JF105" begin="360" fromJunction="J12" toJunction="J6" end="720" vehsPerHour="49.89357716581209" departLane="free" arrivalSpeed="0.0"/>
  <flow id="JF106" begin="360" fromJunction="J12" toJunction="J7" end="720" vehsPerHour="42.06786494115232" departLane="free" arrivalSpeed="0.0"/>
  <flow id="JF107" begin="360" fromJunction="J12" toJunction="J8" end="720" vehsPerHour="37.16937097499452" departLane="free" arrivalSpeed="0.0"/>
  <flow id="JF108" begin="360" fromJunction="J12" toJunction="J9" end="720" vehsPerHour="4.492214664328198" departLane="free" arrivalSpeed="0.0"/>
  <flow id="JF109" begin="360" fromJunction="J13" toJunction="J12" end="720" vehsPerHour="4.354975109737833" departLane="free" arrivalSpeed="0.0"/>
  <flow id="JF110" begin="360" fromJunction="J13" toJunction="J14" end="720" vehsPerHour="14.37944866490254" departLane="free" arrivalSpeed="0.0"/>
  <flow id="JF111" begin="360" fromJunction="J13" toJunction="J15" end="720" vehsPerHour="8.008965070851863" departLane="free" arrivalSpeed="0.0"/>
  <flow id="JF112" begin="360" fromJunction="J13" toJunction="J16" end="720" vehsPerHour="37.154259261717094" departLane="free" arrivalSpeed="0.0"/>
  <flow id="JF113" begin="360" fromJunction="J13" toJunction="J2" end="720" vehsPerHour="44.90574060121574" departLane="free" arrivalSpeed="0.0"/>
  <flow id="JF114" begin="360" fromJunction="J13" toJunction="J6" end="720" vehsPerHour="18.121209351052478" departLane="free" arrivalSpeed="0.0"/>
  <flow id="JF115" begin="360" fromJunction="J13" toJunction="J7" end="720" vehsPerHour="53.865661045354585" departLane="free" arrivalSpeed="0.0"/>
  <flow id="JF116" begin="360" fromJunction="J13" toJunction="J9" end="720" vehsPerHour="51.005009420326274" departLane="free" arrivalSpeed="0.0"/>
  <flow id="JF117" begin="360" fromJunction="J14" toJunction="J15" end="720" vehsPerHour="53.37301283584765" departLane="free" arrivalSpeed="0.0"/>
  <flow id="JF118" begin="360" fromJunction="J14" toJunction="J16" end="720" vehsPerHour="48.410765768143456" departLane="free" arrivalSpeed="0.0"/>
  <flow id="JF119" begin="360" fromJunction="J14" toJunction="J2" end="720" vehsPerHour="56.1782109265139" departLane="free" arrivalSpeed="0.0"/>
  <flow id="JF120" begin="360" fromJunction="J14" toJunction="J3" end="720" vehsPerHour="26.953709253051983" departLane="free" arrivalSpeed="0.0"/>
  <flow id="JF121" begin="360" fromJunction="J14" toJunction="J6" end="720" vehsPerHour="6.907621453161607" departLane="free" arrivalSpeed="0.0"/>
  <flow id="JF122" begin="360" fromJunction="J14" toJunction="J7" end="720" vehsPerHour="2.168807953503517" departLane="free" arrivalSpeed="0.0"/>
  <flow id="JF123" begin="360" fromJunction="J14" toJunction="J9" end="720" vehsPerHour="1.1198173397387934" departLane="free" arrivalSpeed="0.0"/>
  <flow id="JF124" begin="360" fromJunction="J15" toJunction="J12" end="720" vehsPerHour="0.9255873987318692" departLane="free" arrivalSpeed="0.0"/>
  <flow id="JF125" begin="360" fromJunction="J15" toJunction="J13" end="720" vehsPerHour="0.42879219975558325" departLane="free" arrivalSpeed="0.0"/>
  <flow id="JF126" begin="360" fromJunction="J15" toJunction="J14" end="720" vehsPerHour="36.45614953909748" departLane="free" arrivalSpeed="0.0"/>
  <flow id="JF127" begin="360" fromJunction="J15" toJunction="J16" end="720" vehsPerHour="0.7463421058206909" departLane="free" arrivalSpeed="0.0"/>
  <flow id="JF128" begin="360" fromJunction="J15" toJunction="J2" end="720" vehsPerHour="4.116410930164585" departLane="free" arrivalSpeed="0.0"/>
  <flow id="JF129" begin="360" fromJunction="J15" toJunction="J3" end="720" vehsPerHour="14.94932388124137" departLane="free" arrivalSpeed="0.0"/>
  <flow id="JF130" begin="360" fromJunction="J15" toJunction="J6" end="720" vehsPerHour="50.481135370153474" departLane="free" arrivalSpeed="0.0"/>
  <flow id="JF131" begin="360" fromJunction="J15" toJunction="J8" end="720" vehsPerHour="42.25335094861296" departLane="free" arrivalSpeed="0.0"/>
  <flow id="JF132" begin="360" fromJunction="J15" toJunction="J9" end="720" vehsPerHour="6.564167052345177" departLane="free" arrivalSpeed="0.0"/>
  <flow id="JF133" begin="360" fromJunction="J16" toJunction="J0" end="720" vehsPerHour="119.72614879258424" departLane="free" arrivalSpeed="0.0"/>
  <flow id="JF134" begin="360" fromJunction="J16" toJunction="J12" end="720" vehsPerHour="107.50721820688655" departLane="free" arrivalSpeed="0.0"/>
  <flow id="JF135" begin="360" fromJunction="J16" toJunction="J13" end="720" vehsPerHour="92.26142310886017" departLane="free" arrivalSpeed="0.0"/>
  <flow id="JF136" begin="360" fromJunction="J16" toJunction="J14" end="720" vehsPerHour="37.18230675227035" departLane="free" arrivalSpeed="0.0"/>
  <flow id="JF137" begin="360" fromJunction="J16" toJunction="J2" end="720" vehsPerHour="5.191786689268488" departLane="free" arrivalSpeed="0.0"/>
  <flow id="JF138" begin="360" fromJunction="J16" toJunction="J3" end="720" vehsPerHour="0.3199187137550106" departLane="free" arrivalSpeed="0.0"/>
  <flow id="JF139" begin="360" fromJunction="J16" toJunction="J6" end="720" vehsPerHour="25.64816712989996" departLane="free" arrivalSpeed="0.0"/>
  <flow id="JF140" begin="360" fromJunction="J16" toJunction="J7" end="720" vehsPerHour="3.3254382359833157" departLane="free" arrivalSpeed="0.0"/>
  <flow id="JF141" begin="360" fromJunction="J16" toJunction="J8" end="720" vehsPerHour="51.40756487308533" departLane="free" arrivalSpeed="0.0"/>
  <flow id="JF142" begin="360" fromJunction="J16" toJunction="J9" end="720" vehsPerHour="1.4008753497899906" departLane="free" arrivalSpeed="0.0"/>
  <flow id="JF143" begin="360" fromJunction="J2" toJunction="J0" end="720" vehsPerHour="8.546380225526203" departLane="free" arrivalSpeed="0.0"/>
  <flow id="JF144" begin="360" fromJunction="J2" toJunction="J13" end="720" vehsPerHour="83.31602065895873" departLane="free" arrivalSpeed="0.0"/>
  <flow id="JF145" begin="360" fromJunction="J2" toJunction="J14" end="720" vehsPerHour="31.15067945821928" departLane="free" arrivalSpeed="0.0"/>
  <flow id="JF146" begin="360" fromJunction="J2" toJunction="J15" end="720" vehsPerHour="61.020755001567174" departLane="free" arrivalSpeed="0.0"/>
  <flow id="JF147" begin="360" fromJunction="J2" toJunction="J6" end="720" vehsPerHour="34.98677051135828" departLane="free" arrivalSpeed="0.0"/>
  <flow id="JF148" begin="360" fromJunction="J2" toJunction="J8" end="720" vehsPerHour="3.8622483546240236" departLane="free" arrivalSpeed="0.0"/>
  <flow id="JF149" begin="360" fromJunction="J2" toJunction="J9" end="720" vehsPerHour="117.24914730068404" departLane="free" arrivalSpeed="0.0"/>
  <flow id="JF150" begin="360" fromJunction="J3" toJunction="J14" end="720" vehsPerHour="36.6383396510784" departLane="free" arrivalSpeed="0.0"/>
  <flow id="JF151" begin="360" fromJunction="J3" toJunction="J15" end="720" vehsPerHour="59.79153281295519" departLane="free" arrivalSpeed="0.0"/>
  <flow id="JF152" begin="360" fromJunction="J3" toJunction="J2" end="720" vehsPerHour="51.40374293710433" departLane="free" arrivalSpeed="0.0"/>
  <flow id="JF153" begin="360" fromJunction="J3" toJunction="J6" end="720" vehsPerHour="16.719054720324994" departLane="free" arrivalSpeed="0.0"/>
  <flow id="JF154" begin="360" fromJunction="J3" toJunction="J7" end="720" vehsPerHour="27.916441644074066" departLane="free" arrivalSpeed="0.0"/>
  <flow id="JF155" begin="360" fromJunction="J6" toJunction="J12" end="720" vehsPerHour="4.124194926962494" departLane="free" arrivalSpeed="0.0"/>
  <flow id="JF156" begin="360" fromJunction="J6" toJunction="J13" end="720" vehsPerHour="41.89589887227376" departLane="free" arrivalSpeed="0.0"/>
  <flow id="JF157" begin="360" fromJunction="J6" toJunction="J14" end="720" vehsPerHour="32.67503817964789" departLane="free" arrivalSpeed="0.0"/>
  <flow id="JF158" begin="360" fromJunction="J6" toJunction="J15" end="720" vehsPerHour="26.771777761687584" departLane="free" arrivalSpeed="0.0"/>
  <flow id="JF159" begin="360" fromJunction="J6" toJunction="J16" end="720" vehsPerHour="50.954113489153386" departLane="free" arrivalSpeed="0.0"/>
  <flow id="JF160" begin="360" fromJunction="J6" toJunction="J2" end="720" vehsPerHour="5.378159206814379" departLane="free" arrivalSpeed="0.0"/>
  <flow id="JF161" begin="360" fromJunction="J6" toJunction="J8" end="720" vehsPerHour="48.34505661564484" departLane="free" arrivalSpeed="0.0"/>
  <flow id="JF162" begin="360" fromJunction="J6" toJunction="J9" end="720" vehsPerHour="46.69352626790946" departLane="free" arrivalSpeed="0.0"/>
  <flow id="JF163" begin="360" fromJunction="J7" toJunction="J0" end="720" vehsPerHour="39.04619342522092" departLane="free" arrivalSpeed="0.0"/>
  <flow id="JF164" begin="360" fromJunction="J7" toJunction="J12" end="720" vehsPerHour="7.886096912549631" departLane="free" arrivalSpeed="0.0"/>
  <flow id="JF165" begin="360" fromJunction="J7" toJunction="J13" end="720" vehsPerHour="35.90020442464352" departLane="free" arrivalSpeed="0.0"/>
  <flow id="JF166" begin="360" fromJunction="J7" toJunction="J14" end="720" vehsPerHour="3.8679232498578022" departLane="free" arrivalSpeed="0.0"/>
  <flow id="JF167" begin="360" fromJunction="J7" toJunction="J15" end="720" vehsPerHour="11.130495852669247" departLane="free" arrivalSpeed="0.0"/>
  <flow id="JF168" begin="360" fromJunction="J7" toJunction="J16" end="720" vehsPerHour="10.104725192293715" departLane="free" arrivalSpeed="0.0"/>
  <flow id="JF169" begin="360" fromJunction="J7" toJunction="J2" end="720" vehsPerHour="9.059370839433189" departLane="free" arrivalSpeed="0.0"/>
  <flow id="JF170" begin="360" fromJunction="J7" toJunction="J3" end="720" vehsPerHour="32.483098763730155" departLane="free" arrivalSpeed="0.0"/>
  <flow id="JF171" begin="360" fromJunction="J7" toJunction="J8" end="720" vehsPerHour="46.304772440257175" departLane="free" arrivalSpeed="0.0"/>
  <flow id="JF172" begin="360" fromJunction="J7" toJunction="J9" end="720" vehsPerHour="17.652920632051906" departLane="free" arrivalSpeed="0.0"/>
  <flow id="JF173" begin="360" fromJunction="J8" toJunction="J0" end="720" vehsPerHour="26.276042164768377" departLane="free" arrivalSpeed="0.0"/>
  <flow id="JF174" begin="360" fromJunction="J8" toJunction="J13" end="720" vehsPerHour="20.578914021426467" departLane="free" arrivalSpeed="0.0"/>
  <flow id="JF175" begin="360" fromJunction="J8" toJunction="J14" end="720" vehsPerHour="47.12768595830777" departLane="free" arrivalSpeed="0.0"/>
  <flow id="JF176" begin="360" fromJunction="J8" toJunction="J15" end="720" vehsPerHour="33.76222299802407" departLane="free" arrivalSpeed="0.0"/>
  <flow id="JF177" begin="360" fromJunction="J8" toJunction="J2" end="720" vehsPerHour="41.31830327703569" departLane="free" arrivalSpeed="0.0"/>
  <flow id="JF178" begin="360" fromJunction="J8" toJunction="J6" end="720" vehsPerHour="55.212519543849005" departLane="free" arrivalSpeed="0.0"/>
  <flow id="JF179" begin="360" fromJunction="J8" toJunction="J7" end="720" vehsPerHour="63.77815608046376" departLane="free" arrivalSpeed="0.0"/>
  <flow id="JF180" begin="360" fromJunction="J9" toJunction="J0" end="720" vehsPerHour="16.060681950446924" departLane="free" arrivalSpeed="0.0"/>
  <flow id="JF181" begin="360" fromJunction="J9" toJunction="J13" end="720" vehsPerHour="15.958135536865177" departLane="free" arrivalSpeed="0.0"/>
  <flow id="JF182" begin="360" fromJunction="J9" toJunction="J15" end="720" vehsPerHour="45.93017543776838" departLane="free" arrivalSpeed="0.0"/>
  <flow id="JF183" begin="360" fromJunction="J9" toJunction="J2" end="720" vehsPerHour="16.65773847371643" departLane="free" arrivalSpeed="0.0"/>
  <flow id="JF184" begin="360" fromJunction="J9" toJunction="J3" end="720" vehsPerHour="8.16535565351204" departLane="free" arrivalSpeed="0.0"/>
  <flow id="JF185" begin="360" fromJunction="J9" toJunction="J6" end="720" vehsPerHour="16.719726431103886" departLane="free" arrivalSpeed="0.0"/>
  <flow id="JF186" begin="360" fromJunction="J9" toJunction="J7" end="720" vehsPerHour="36.63134748029513" departLane="free" arrivalSpeed="0.0"/>
  <flow id="JF187" begin="360" fromJunction="J9" toJunction="J8" end="720" vehsPerHour="63.73240771849588" departLane="free" arrivalSpeed="0.0"/>
  <flow id="JF188" begin="720" fromJunction="J0" toJunction="J12" end="1080" vehsPerHour="50.68259410668774" departLane="free" arrivalSpeed="0.0"/>
  <flow id="JF189" begin="720" fromJunction="J0" toJunction="J13" end="1080" vehsPerHour="66.66339407732534" departLane="free" arrivalSpeed="0.0"/>
  <flow id="JF190" begin="720" fromJunction="J0" toJunction="J14" end="1080" vehsPerHour="37.1252296744486" departLane="free" arrivalSpeed="0.0"/>
  <flow id="JF191" begin="720" fromJunction="J0" toJunction="J15" end="1080" vehsPerHour="21.034310200115968" departLane="free" arrivalSpeed="0.0"/>
  <flow id="JF192" begin="720" fromJunction="J0" toJunction="J7" end="1080" vehsPerHour="3.179865559422895" departLane="free" arrivalSpeed="0.0"/>
  <flow id="JF193" begin="720" fromJunction="J0" toJunction="J9" end="1080" vehsPerHour="29.57629865913758" departLane="free" arrivalSpeed="0.0"/>
  <flow id="JF194" begin="720" fromJunction="J12" toJunction="J0" end="1080" vehsPerHour="50.23793952075164" departLane="free" arrivalSpeed="0.0"/>
  <flow id="JF195" begin="720" fromJunction="J12" toJunction="J15" end="1080" vehsPerHour="18.633377558918323" departLane="free" arrivalSpeed="0.0"/>
  <flow id="JF196" begin="720" fromJunction="J12" toJunction="J16" end="1080" vehsPerHour="26.029028353233496" departLane="free" arrivalSpeed="0.0"/>
  <flow id="JF197" begin="720" fromJunction="J12" toJunction="J7" end="1080" vehsPerHour="28.39863942416425" departLane="free" arrivalSpeed="0.0"/>
  <flow id="JF198" begin="720" fromJunction="J12" toJunction="J8" end="1080" vehsPerHour="8.580162475095277" departLane="free" arrivalSpeed="0.0"/>
  <flow id="JF199" begin="720" fromJunction="J12" toJunction="J9" end="1080" vehsPerHour="49.322582475935924" departLane="free" arrivalSpeed="0.0"/>
  <flow id="JF200" begin="720" fromJunction="J13" toJunction="J0" end="1080" vehsPerHour="49.91962947638207" departLane="free" arrivalSpeed="0.0"/>
  <flow id="JF201" begin="720" fromJunction="J13" toJunction="J15" end="1080" vehsPerHour="0.8899096432696834" departLane="free" arrivalSpeed="0.0"/>
  <flow id="JF202" begin="720" fromJunction="J13" toJunction="J16" end="1080" vehsPerHour="47.28662397495938" departLane="free" arrivalSpeed="0.0"/>
  <flow id="JF203" begin="720" fromJunction="J13" toJunction="J2" end="1080" vehsPerHour="38.37774633211146" departLane="free" arrivalSpeed="0.0"/>