<?xml version="1.0" encoding="UTF-8"?>
<routes xmlns:xsi="http://www.w3.org/2001/XMLSchema-instance" xsi:noNamespaceSchemaLocation="http://sumo.dlr.de/xsd/routes_file.xsd">
  <flow id="JF221893" begin="0" fromJunction="J0" toJunction="J3" end="60" vehsPerHour="480.93236034037847"/>
  <flow id="JF221894" begin="0" fromJunction="J3" toJunction="J0" end="60" vehsPerHour="151.63332719128016"/>
  <flow id="JF221895" begin="0" fromJunction="J0" toJunction="J6" end="60" vehsPerHour="115.96194490360973"/>
  <flow id="JF221896" begin="0" fromJunction="J0" toJunction="J4" end="60" vehsPerHour="130.40091613082257"/>
  <flow id="JF221897" begin="0" fromJunction="J0" toJunction="J7" end="60" vehsPerHour="20.504894575618767"/>
  <flow id="JF221898" begin="0" fromJunction="J0" toJunction="J5" end="60" vehsPerHour="22.23071562417292"/>
  <flow id="JF221899" begin="0" fromJunction="J3" toJunction="J6" end="60" vehsPerHour="65.85447861676165"/>
  <flow id="JF221900" begin="0" fromJunction="J3" toJunction="J4" end="60" vehsPerHour="12.499624924440429"/>
  <flow id="JF221901" begin="0" fromJunction="J3" toJunction="J7" end="60" vehsPerHour="70.13592390587368"/>
  <flow id="JF221902" begin="0" fromJunction="J3" toJunction="J5" end="60" vehsPerHour="47.59999012777691"/>
  <flow id="JF221903" begin="0" fromJunction="J6" toJunction="J4" end="60" vehsPerHour="51.1305800323932"/>
  <flow id="JF221904" begin="0" fromJunction="J6" toJunction="J7" end="60" vehsPerHour="0.9175451173830094"/>
  <flow id="JF221905" begin="0" fromJunction="J6" toJunction="J5" end="60" vehsPerHour="46.38872961727611"/>
  <flow id="JF221906" begin="0" fromJunction="J4" toJunction="J6" end="60" vehsPerHour="60.12244050063129"/>
  <flow id="JF221907" begin="0" fromJunction="J4" toJunction="J7" end="60" vehsPerHour="28.98126479269222"/>
  <flow id="JF221908" begin="0" fromJunction="J4" toJunction="J5" end="60" vehsPerHour="41.66185983891238"/>
  <flow id="JF221909" begin="0" fromJunction="J7" toJunction="J6" end="60" vehsPerHour="32.59311714727935"/>
  <flow id="JF221910" begin="0" fromJunction="J7" toJunction="J4" end="60" vehsPerHour="49.310986857675566"/>
  <flow id="JF221911" begin="0" fromJunction="J7" toJunction="J5" end="60" vehsPerHour="3.626098709306547"/>
  <flow id="JF221912" begin="0" fromJunction="J5" toJunction="J6" end="60" vehsPerHour="20.220675979521165"/>
  <flow id="JF221913" begin="0" fromJunction="J5" toJunction="J4" end="60" vehsPerHour="30.570981507071433"/>
  <flow id="JF221914" begin="0" fromJunction="J5" toJunction="J7" end="60" vehsPerHour="15.610276012291429"/>
  <flow id="JF221915" begin="0" fromJunction="J6" toJunction="J0" end="60" vehsPerHour="33.278116657031624"/>
  <flow id="JF221916" begin="0" fromJunction="J6" toJunction="J3" end="60" vehsPerHour="13.067849805882505"/>
  <flow id="JF221917" begin="0" fromJunction="J4" toJunction="J0" end="60" vehsPerHour="32.330194066744696"/>
  <flow id="JF221918" begin="0" fromJunction="J4" toJunction="J3" end="60" vehsPerHour="48.54973504739102"/>
  <flow id="JF221919" begin="0" fromJunction="J7" toJunction="J0" end="60" vehsPerHour="39.11401344509764"/>
  <flow id="JF221920" begin="0" fromJunction="J7" toJunction="J3" end="60" vehsPerHour="29.555987671169444"/>
  <flow id="JF221921" begin="0" fromJunction="J5" toJunction="J0" end="60" vehsPerHour="6.9311742172797715"/>
  <flow id="JF221922" begin="0" fromJunction="J5" toJunction="J3" end="60" vehsPerHour="31.2098402274121"/>
  <flow id="JF221923" begin="60" fromJunction="J0" toJunction="J3" end="120" vehsPerHour="102.29578597843029"/>
  <flow id="JF221924" begin="60" fromJunction="J3" toJunction="J0" end="120" vehsPerHour="76.69995692372584"/>
  <flow id="JF221925" begin="60" fromJunction="J0" toJunction="J6" end="120" vehsPerHour="110.29555572828923"/>
  <flow id="JF221926" begin="60" fromJunction="J0" toJunction="J4" end="120" vehsPerHour="40.121985538050566"/>
  <flow id="JF221927" begin="60" fromJunction="J0" toJunction="J7" end="120" vehsPerHour="123.1262169099824"/>
  <flow id="JF221928" begin="60" fromJunction="J0" toJunction="J5" end="120" vehsPerHour="40.11365072807419"/>
  <flow id="JF221929" begin="60" fromJunction="J3" toJunction="J6" end="120" vehsPerHour="78.56798903199224"/>
  <flow id="JF221930" begin="60" fromJunction="J3" toJunction="J4" end="120" vehsPerHour="103.5855995324423"/>
  <flow id="JF221931" begin="60" fromJunction="J3" toJunction="J7" end="120" vehsPerHour="73.8776668515868"/>
  <flow id="JF221932" begin="60" fromJunction="J3" toJunction="J5" end="120" vehsPerHour="33.32549182781362"/>
  <flow id="JF221933" begin="60" fromJunction="J6" toJunction="J4" end="120" vehsPerHour="63.40067152061154"/>
  <flow id="JF221934" begin="60" fromJunction="J6" toJunction="J7" end="120" vehsPerHour="60.41000353694884"/>
  <flow id="JF221935" begin="60" fromJunction="J6" toJunction="J5" end="120" vehsPerHour="30.377837290451467"/>
  <flow id="JF221936" begin="60" fromJunction="J4" toJunction="J6" end="120" vehsPerHour="22.030413267689983"/>
  <flow id="JF221937" begin="60" fromJunction="J4" toJunction="J7" end="120" vehsPerHour="62.50339844641865"/>
  <flow id="JF221938" begin="60" fromJunction="J4" toJunction="J5" end="120" vehsPerHour="20.84588235005836"/>
  <flow id="JF221939" begin="60" fromJunction="J7" toJunction="J6" end="120" vehsPerHour="4.605624721144642"/>
  <flow id="JF221940" begin="60" fromJunction="J7" toJunction="J4" end="120" vehsPerHour="19.301538230821336"/>
  <flow id="JF221941" begin="60" fromJunction="J7" toJunction="J5" end="120" vehsPerHour="44.579795579467074"/>
  <flow id="JF221942" begin="60" fromJunction="J5" toJunction="J6" end="120" vehsPerHour="12.844006022702006"/>
  <flow id="JF221943" begin="60" fromJunction="J5" toJunction="J4" end="120" vehsPerHour="59.08509309837318"/>
  <flow id="JF221944" begin="60" fromJunction="J5" toJunction="J7" end="120" vehsPerHour="22.030691840166842"/>
  <flow id="JF221945" begin="60" fromJunction="J6" toJunction="J0" end="120" vehsPerHour="49.453618873472"/>
  <flow id="JF221946" begin="60" fromJunction="J6" toJunction="J3" end="120" vehsPerHour="17.761086880175455"/>
  <flow id="JF221947" begin="60" fromJunction="J4" toJunction="J0" end="120" vehsPerHour="30.09182113602257"/>
  <flow id="JF221948" begin="60" fromJunction="J4" toJunction="J3" end="120" vehsPerHour="65.601149582843"/>
  <flow id="JF221949" begin="60" fromJunction="J7" toJunction="J0" end="120" vehsPerHour="24.75051573481505"/>
  <flow id="JF221950" begin="60" fromJunction="J7" toJunction="J3" end="120" vehsPerHour="5.060206936725672"/>
  <flow id="JF221951" begin="60" fromJunction="J5" toJunction="J0" end="120" vehsPerHour="5.850506481817701"/>
  <flow id="JF221952" begin="60" fromJunction="J5" toJunction="J3" end="120" vehsPerHour="17.374788701548834"/>
  <flow id="JF221953" begin="120" fromJunction="J0" toJunction="J3" end="180" vehsPerHour="217.72188757822934"/>
  <flow id="JF221954" begin="120" fromJunction="J3" toJunction="J0" end="180" vehsPerHour="349.22515120200785"/>
  <flow id="JF221955" begin="120" fromJunction="J0" toJunction="J6" end="180" vehsPerHour="11.039750923347528"/>
  <flow id="JF221956" begin="120" fromJunction="J0" toJunction="J4" end="180" vehsPerHour="24.040396036977143"/>
  <flow id="JF221957" begin="120" fromJunction="J0" toJunction="J7" end="180" vehsPerHour="84.75170711366985"/>
  <flow id="JF221958" begin="120" fromJunction="J0" toJunction="J5" end="180" vehsPerHour="123.19281165076637"/>
  <flow id="JF221959" begin="120" fromJunction="J3" toJunction="J6" end="180" vehsPerHour="129.0797541340872"/>
  <flow id="JF221960" begin="120" fromJunction="J3" toJunction="J4" end="180" vehsPerHour="86.5364668359065"/>
  <flow id="JF221961" begin="120" fromJunction="J3" toJunction="J7" end="180" vehsPerHour="60.969426919736144"/>
  <flow id="JF221962" begin="120" fromJunction="J3" toJunction="J5" end="180" vehsPerHour="62.23026623191075"/>
  <flow id="JF221963" begin="180" fromJunction="J0" toJunction="J3" end="240" vehsPerHour="398.5076673687102"/>
  <flow id="JF221964" begin="180" fromJunction="J3" toJunction="J0" end="240" vehsPerHour="289.4766643895035"/>
  <flow id="JF221965" begin="180" fromJunction="J0" toJunction="J6" end="240" vehsPerHour="53.46969696724289"/>
  <flow id="JF221966" begin="180" fromJunction="J0" toJunction="J4" end="240" vehsPerHour="110.86497726097892"/>
  <flow id="JF221967" begin="180" fromJunction="J0" toJunction="J7" end="240" vehsPerHour="41.79256697154094"/>
  <flow id="JF221968" begin="180" fromJunction="J0" toJunction="J5" end="240" vehsPerHour="105.28298396621202"/>
  <flow id="JF221969" begin="180" fromJunction="J3" toJunction="J6" end="240" vehsPerHour="126.73579911726061"/>
  <flow id="JF221970" begin="180" fromJunction="J3" toJunction="J4" end="240" vehsPerHour="131.86443334355295"/>
  <flow id="JF221971" begin="180" fromJunction="J3" toJunction="J7" end="240" vehsPerHour="61.95872701355289"/>
  <flow id="JF221972" begin="180" fromJunction="J3" toJunction="J5" end="240" vehsPerHour="104.55421902907904"/>
  <flow id="JF221973" begin="240" fromJunction="J0" toJunction="J3" end="300" vehsPerHour="265.6863320826495"/>
  <flow id="JF221974" begin="240" fromJunction="J3" toJunction="J0" end="300" vehsPerHour="328.0077076043422"/>
  <flow id="JF221975" begin="240" fromJunction="J0" toJunction="J6" end="300" vehsPerHour="12.124654607643047"/>
  <flow id="JF221976" begin="240" fromJunction="J0" toJunction="J4" end="300" vehsPerHour="111.6180969257331"/>
  <flow id="JF221977" begin="240" fromJunction="J0" toJunction="J7" end="300" vehsPerHour="97.09004221336417"/>
  <flow id="JF221978" begin="240" fromJunction="J0" toJunction="J5" end="300" vehsPerHour="80.32006220868121"/>
  <flow id="JF221979" begin="240" fromJunction="J3" toJunction="J6" end="300" vehsPerHour="131.08386262882004"/>
  <flow id="JF221980" begin="240" fromJunction="J3" toJunction="J4" end="300" vehsPerHour="119.44708365169902"/>
  <flow id="JF221981" begin="240" fromJunction="J3" toJunction="J7" end="300" vehsPerHour="134.45160997860847"/>
  <flow id="JF221982" begin="240" fromJunction="J3" toJunction="J5" end="300" vehsPerHour="63.89363523215616"/>
  <flow id="JF221983" begin="300" fromJunction="J0" toJunction="J3" end="360" vehsPerHour="178.42434965465534"/>
  <flow id="JF221984" begin="300" fromJunction="J3" toJunction="J0" end="360" vehsPerHour="469.8218300137269"/>
  <flow id="JF221985" begin="300" fromJunction="J0" toJunction="J6" end="360" vehsPerHour="0.7147757780067854"/>
  <flow id="JF221986" begin="300" fromJunction="J0" toJunction="J4" end="360" vehsPerHour="99.87569239344612"/>
  <flow id="JF221987" begin="300" fromJunction="J0" toJunction="J7" end="360" vehsPerHour="82.98135495282288"/>
  <flow id="JF221988" begin="300" fromJunction="J0" toJunction="J5" end="360" vehsPerHour="85.91956344568293"/>
  <flow id="JF221989" begin="300" fromJunction="J3" toJunction="J6" end="360" vehsPerHour="116.95265349837656"/>
  <flow id="JF221990" begin="300" fromJunction="J3" toJunction="J4" end="360" vehsPerHour="102.03565249025056"/>
  <flow id="JF221991" begin="300" fromJunction="J3" toJunction="J7" end="360" vehsPerHour="94.00234680173457"/>
  <flow id="JF221992" begin="300" fromJunction="J3" toJunction="J5" end="360" vehsPerHour="16.23577894826703"/>
  <flow id="JF221993" begin="360" fromJunction="J0" toJunction="J3" end="420" vehsPerHour="248.32159758310087"/>
  <flow id="JF221994" begin="360" fromJunction="J3" toJunction="J0" end="420" vehsPerHour="543.8274397514047"/>
  <flow id="JF221995" begin="360" fromJunction="J0" toJunction="J6" end="420" vehsPerHour="61.60206164706985"/>
  <flow id="JF221996" begin="360" fromJunction="J0" toJunction="J4" end="420" vehsPerHour="20.326536960405253"/>
  <flow id="JF221997" begin="360" fromJunction="J0" toJunction="J7" end="420" vehsPerHour="3.0825391140110536"/>
  <flow id="JF221998" begin="360" fromJunction="J0" toJunction="J5" end="420" vehsPerHour="132.38102333303286"/>
  <flow id="JF221999" begin="360" fromJunction="J3" toJunction="J6" end="420" vehsPerHour="89.15911280587692"/>
  <flow id="JF222000" begin="360" fromJunction="J3" toJunction="J4" end="420" vehsPerHour="88.3027996082834"/>
  <flow id="JF222001" begin="360" fromJunction="J3" toJunction="J7" end="420" vehsPerHour="129.02893434838646"/>
  <flow id="JF222002" begin="360" fromJunction="J3" toJunction="J5" end="420" vehsPerHour="115.65036805677433"/>
  <flow id="JF222003" begin="360" fromJunction="J6" toJunction="J4" end="420" vehsPerHour="15.4473654270661"/>
  <flow id="JF222004" begin="360" fromJunction="J6" toJunction="J7" end="420" vehsPerHour="23.65847655233935"/>
  <flow id="JF222005" begin="360" fromJunction="J6" toJunction="J5" end="420" vehsPerHour="35.89452950520087"/>
  <flow id="JF222006" begin="360" fromJunction="J4" toJunction="J6" end="420" vehsPerHour="26.482679291904827"/>
  <flow id="JF222007" begin="360" fromJunction="J4" toJunction="J7" end="420" vehsPerHour="13.865137018804445"/>
  <flow id="JF222008" begin="360" fromJunction="J4" toJunction="J5" end="420" vehsPerHour="57.21406297037083"/>
  <flow id="JF222009" begin="360" fromJunction="J7" toJunction="J6" end="420" vehsPerHour="21.832697334033202"/>
  <flow id="JF222010" begin="360" fromJunction="J7" toJunction="J4" end="420" vehsPerHour="9.998790408604634"/>
  <flow id="JF222011" begin="360" fromJunction="J7" toJunction="J5" end="420" vehsPerHour="67.86610792176617"/>
  <flow id="JF222012" begin="360" fromJunction="J5" toJunction="J6" end="420" vehsPerHour="19.826202340694586"/>
  <flow id="JF222013" begin="360" fromJunction="J5" toJunction="J4" end="420" vehsPerHour="59.08208458150874"/>
  <flow id="JF222014" begin="360" fromJunction="J5" toJunction="J7" end="420" vehsPerHour="24.787384751764243"/>
  <flow id="JF222015" begin="360" fromJunction="J6" toJunction="J0" end="420" vehsPerHour="6.898147461495943"/>
  <flow id="JF222016" begin="360" fromJunction="J6" toJunction="J3" end="420" vehsPerHour="54.81915762447035"/>
  <flow id="JF222017" begin="360" fromJunction="J4" toJunction="J0" end="420" vehsPerHour="47.393779717364026"/>
  <flow id="JF222018" begin="360" fromJunction="J4" toJunction="J3" end="420" vehsPerHour="41.56641727378806"/>
  <flow id="JF222019" begin="360" fromJunction="J7" toJunction="J0" end="420" vehsPerHour="32.51645341399275"/>
  <flow id="JF222020" begin="360" fromJunction="J7" toJunction="J3" end="420" vehsPerHour="57.04475259700776"/>
  <flow id="JF222021" begin="360" fromJunction="J5" toJunction="J0" end="420" vehsPerHour="22.960211569496934"/>
  <flow id="JF222022" begin="360" fromJunction="J5" toJunction="J3" end="420" vehsPerHour="14.536353589162434"/>
  <flow id="JF222023" begin="420" fromJunction="J0" toJunction="J3" end="480" vehsPerHour="164.1106808421554"/>
  <flow id="JF222024" begin="420" fromJunction="J3" toJunction="J0" end="480" vehsPerHour="424.5263222377558"/>
  <flow id="JF222025" begin="420" fromJunction="J0" toJunction="J6" end="480" vehsPerHour="8.836178333798776"/>
  <flow id="JF222026" begin="420" fromJunction="J0" toJunction="J4" end="480" vehsPerHour="73.60564912928213"/>
  <flow id="JF222027" begin="420" fromJunction="J0" toJunction="J7" end="480" vehsPerHour="5.537908520830059"/>
  <flow id="JF222028" begin="420" fromJunction="J0" toJunction="J5" end="480" vehsPerHour="71.61078213821708"/>
  <flow id="JF222029" begin="420" fromJunction="J3" toJunction="J6" end="480" vehsPerHour="95.58778156456488"/>
  <flow id="JF222030" begin="420" fromJunction="J3" toJunction="J4" end="480" vehsPerHour="32.86210981366744"/>
  <flow id="JF222031" begin="420" fromJunction="J3" toJunction="J7" end="480" vehsPerHour="136.90698391672507"/>
  <flow id="JF222032" begin="420" fromJunction="J3" toJunction="J5" end="480" vehsPerHour="44.063357605037694"/>
  <flow id="JF222033" begin="420" fromJunction="J6" toJunction="J4" end="480" vehsPerHour="62.11392078148399"/>
  <flow id="JF222034" begin="420" fromJunction="J6" toJunction="J7" end="480" vehsPerHour="67.75225348594603"/>
  <flow id="JF222035" begin="420" fromJunction="J6" toJunction="J5" end="480" vehsPerHour="31.838303770230628"/>
  <flow id="JF222036" begin="420" fromJunction="J4" toJunction="J6" end="480" vehsPerHour="24.769251837467284"/>
  <flow id="JF222037" begin="420" fromJunction="J4" toJunction="J7" end="480" vehsPerHour="32.80094238463463"/>
  <flow id="JF222038" begin="420" fromJunction="J4" toJunction="J5" end="480" vehsPerHour="51.67206489720639"/>
  <flow id="JF222039" begin="420" fromJunction="J7" toJunction="J6" end="480" vehsPerHour="67.68486245470918"/>
  <flow id="JF222040" begin="420" fromJunction="J7" toJunction="J4" end="480" vehsPerHour="12.936391638265228"/>
  <flow id="JF222041" begin="420" fromJunction="J7" toJunction="J5" end="480" vehsPerHour="28.5329107368022"/>
  <flow id="JF222042" begin="420" fromJunction="J5" toJunction="J6" end="480" vehsPerHour="46.11694229854794"/>
  <flow id="JF222043" begin="420" fromJunction="J5" toJunction="J4" end="480" vehsPerHour="67.51475535301097"/>
  <flow id="JF222044" begin="420" fromJunction="J5" toJunction="J7" end="480" vehsPerHour="38.70895544680251"/>
  <flow id="JF222045" begin="420" fromJunction="J6" toJunction="J0" end="480" vehsPerHour="39.4726171303376"/>
  <flow id="JF222046" begin="420" fromJunction="J6" toJunction="J3" end="480" vehsPerHour="35.51912437481433"/>
  <flow id="JF222047" begin="420" fromJunction="J4" toJunction="J0" end="480" vehsPerHour="17.160704495537725"/>
  <flow id="JF222048" begin="420" fromJunction="J4" toJunction="J3" end="480" vehsPerHour="66.96577872186278"/>
  <flow id="JF222049" begin="420" fromJunction="J7" toJunction="J0" end="480" vehsPerHour="25.97158122601095"/>
  <flow id="JF222050" begin="420" fromJunction="J7" toJunction="J3" end="480" vehsPerHour="21.974760994495334"/>
  <flow id="JF222051" begin="420" fromJunction="J5" toJunction="J0" end="480" vehsPerHour="7.922318266036004"/>
  <flow id="JF222052" begin="420" fromJunction="J5" toJunction="J3" end="480" vehsPerHour="34.36060867067551"/>
  <flow id="JF222053" begin="480" fromJunction="J0" toJunction="J3" end="540" vehsPerHour="165.98873193430651"/>
  <flow id="JF222054" begin="480" fromJunction="J3" toJunction="J0" end="540" vehsPerHour="535.735680442203"/>
  <flow id="JF222055" begin="480" fromJunction="J0" toJunction="J6" end="540" vehsPerHour="20.172118803921073"/>
  <flow id="JF222056" begin="480" fromJunction="J0" toJunction="J4" end="540" vehsPerHour="87.16839345353901"/>
  <flow id="JF222057" begin="480" fromJunction="J0" toJunction="J7" end="540" vehsPerHour="81.05919823627927"/>
  <flow id="JF222058" begin="480" fromJunction="J0" toJunction="J5" end="540" vehsPerHour="118.64842779988577"/>
  <flow id="JF222059" begin="480" fromJunction="J3" toJunction="J6" end="540" vehsPerHour="75.1073086456615"/>
  <flow id="JF222060" begin="480" fromJunction="J3" toJunction="J4" end="540" vehsPerHour="34.5163629113283"/>
  <flow id="JF222061" begin="480" fromJunction="J3" toJunction="J7" end="540" vehsPerHour="132.20487628276655"/>
  <flow id="JF222062" begin="480" fromJunction="J3" toJunction="J5" end="540" vehsPerHour="114.30199542202524"/>
  <flow id="JF222063" begin="480" fromJunction="J6" toJunction="J4" end="540" vehsPerHour="40.640721087473125"/>
  <flow id="JF222064" begin="480" fromJunction="J6" toJunction="J7" end="540" vehsPerHour="2.0448725889846724"/>
  <flow id="JF222065" begin="480" fromJunction="J6" toJunction="J5" end="540" vehsPerHour="21.362007507720268"/>
  <flow id="JF222066" begin="480" fromJunction="J4" toJunction="J6" end="540" vehsPerHour="45.61602231966137"/>
  <flow id="JF222067" begin="480" fromJunction="J4" toJunction="J7" end="540" vehsPerHour="32.24385576840259"/>
  <flow id="JF222068" begin="480" fromJunction="J4" toJunction="J5" end="540" vehsPerHour="20.53269530656208"/>
  <flow id="JF222069" begin="480" fromJunction="J7" toJunction="J6" end="540" vehsPerHour="40.281636474525676"/>
  <flow id="JF222070" begin="480" fromJunction="J7" toJunction="J4" end="540" vehsPerHour="19.527944671840334"/>
  <flow id="JF222071" begin="480" fromJunction="J7" toJunction="J5" end="540" vehsPerHour="51.91364040829676"/>
  <flow id="JF222072" begin="480" fromJunction="J5" toJunction="J6" end="540" vehsPerHour="4.348777063769187"/>
  <flow id="JF222073" begin="480" fromJunction="J5" toJunction="J4" end="540" vehsPerHour="46.30602377510615"/>
  <flow id="JF222074" begin="480" fromJunction="J5" toJunction="J7" end="540" vehsPerHour="23.58563862512727"/>
  <flow id="JF222075" begin="480" fromJunction="J6" toJunction="J0" end="540" vehsPerHour="51.857973513523035"/>
  <flow id="JF222076" begin="480" fromJunction="J6" toJunction="J3" end="540" vehsPerHour="54.68144451375014"/>
  <flow id="JF222077" begin="480" fromJunction="J4" toJunction="J0" end="540" vehsPerHour="65.28894095679563"/>
  <flow id="JF222078" begin="480" fromJunction="J4" toJunction="J3" end="540" vehsPerHour="18.9422667673566"/>
  <flow id="JF222079" begin="480" fromJunction="J7" toJunction="J0" end="540" vehsPerHour="41.43007443848441"/>
  <flow id="JF222080" begin="480" fromJunction="J7" toJunction="J3" end="540" vehsPerHour="15.369747508378705"/>
  <flow id="JF222081" begin="480" fromJunction="J5" toJunction="J0" end="540" vehsPerHour="66.75154199587917"/>
  <flow id="JF222082" begin="480" fromJunction="J5" toJunction="J3" end="540" vehsPerHour="35.709056736139416"/>
  <flow id="JF222083" begin="540" fromJunction="J0" toJunction="J3" end="600" vehsPerHour="386.3710969344916"/>
  <flow id="JF222084" begin="540" fromJunction="J3" toJunction="J0" end="600" vehsPerHour="333.41151436881466"/>
  <flow id="JF222085" begin="540" fromJunction="J0" toJunction="J6" end="600" vehsPerHour="50.70235201339759"/>
  <flow id="JF222086" begin="540" fromJunction="J0" toJunction="J4" end="600" vehsPerHour="35.26521711109143"/>
  <flow id="JF222087" begin="540" fromJunction="J0" toJunction="J7" end="600" vehsPerHour="20.54519518459136"/>
  <flow id="JF222088" begin="540" fromJunction="J0" toJunction="J5" end="600" vehsPerHour="118.11843592083797"/>
  <flow id="JF222089" begin="540" fromJunction="J3" toJunction="J6" end="600" vehsPerHour="109.5050547151929"/>
  <flow id="JF222090" begin="540" fromJunction="J3" toJunction="J4" end="600" vehsPerHour="131.84246328050077"/>
  <flow id="JF222091" begin="540" fromJunction="J3" toJunction="J7" end="600" vehsPerHour="3.8111657142647966"/>
  <flow id="JF222092" begin="540" fromJunction="J3" toJunction="J5" end="600" vehsPerHour="15.595704200630932"/>
  <flow id="JF222093" begin="540" fromJunction="J6" toJunction="J4" end="600" vehsPerHour="68.45813616863218"/>
  <flow id="JF222094" begin="540" fromJunction="J6" toJunction="J7" end="600" vehsPerHour="68.59789820811784"/>
  <flow id="JF222095" begin="540" fromJunction="J6" toJunction="J5" end="600" vehsPerHour="29.324981933697863"/>
  <flow id="JF222096" begin="540" fromJunction="J4" toJunction="J6" end="600" vehsPerHour="28.412292536227454"/>
  <flow id="JF222097" begin="540" fromJunction="J4" toJunction="J7" end="600" vehsPerHour="65.79944434089604"/>
  <flow id="JF222098" begin="540" fromJunction="J4" toJunction="J5" end="600" vehsPerHour="55.54846263022901"/>
  <flow id="JF222099" begin="540" fromJunction="J7" toJunction="J6" end="600" vehsPerHour="14.472577677342075"/>
  <flow id="JF222100" begin="540" fromJunction="J7" toJunction="J4" end="600" vehsPerHour="64.26830841608758"/>
  <flow id="JF222101" begin="540" fromJunction="J7" toJunction="J5" end="600" vehsPerHour="39.43282384587332"/>
  <flow id="JF222102" begin="540" fromJunction="J5" toJunction="J6" end="600" vehsPerHour="11.21671256598448"/>
  <flow id="JF222103" begin="540" fromJunction="J5" toJunction="J4" end="600" vehsPerHour="3.241819422885519"/>
  <flow id="JF222104" begin="540" fromJunction="J5" toJunction="J7" end="600" vehsPerHour="29.516788419105254"/>
  <flow id="JF222105" begin="540" fromJunction="J6" toJunction="J0" end="600" vehsPerHour="8.270508553197708"/>
  <flow id="JF222106" begin="540" fromJunction="J6" toJunction="J3" end="600" vehsPerHour="29.180588569967384"/>
  <flow id="JF222107" begin="540" fromJunction="J4" toJunction="J0" end="600" vehsPerHour="45.79205514134971"/>
  <flow id="JF222108" begin="540" fromJunction="J4" toJunction="J3" end="600" vehsPerHour="41.72143749238847"/>
  <flow id="JF222109" begin="540" fromJunction="J7" toJunction="J0" end="600" vehsPerHour="9.549751838897986"/>
  <flow id="JF222110" begin="540" fromJunction="J7" toJunction="J3" end="600" vehsPerHour="60.80679369247104"/>
  <flow id="JF222111" begin="540" fromJunction="J5" toJunction="J0" end="600" vehsPerHour="20.78325844971394"/>
  <flow id="JF222112" begin="540" fromJunction="J5" toJunction="J3" end="600" vehsPerHour="55.68501499538023"/>
  <flow id="JF222113" begin="600" fromJunction="J0" toJunction="J3" end="660" vehsPerHour="126.30597608514398"/>
  <flow id="JF222114" begin="600" fromJunction="J3" toJunction="J0" end="660" vehsPerHour="424.9260898756417"/>
  <flow id="JF222115" begin="600" fromJunction="J0" toJunction="J6" end="660" vehsPerHour="44.741319991371164"/>
  <flow id="JF222116" begin="600" fromJunction="J0" toJunction="J4" end="660" vehsPerHour="36.005306264554385"/>
  <flow id="JF222117" begin="600" fromJunction="J0" toJunction="J7" end="660" vehsPerHour="126.71142908966073"/>
  <flow id="JF222118" begin="600" fromJunction="J0" toJunction="J5" end="660" vehsPerHour="49.161467371333686"/>
  <flow id="JF222119" begin="600" fromJunction="J3" toJunction="J6" end="660" vehsPerHour="32.18075272379308"/>
  <flow id="JF222120" begin="600" fromJunction="J3" toJunction="J4" end="660" vehsPerHour="91.31404108919578"/>
  <flow id="JF222121" begin="600" fromJunction="J3" toJunction="J7" end="660" vehsPerHour="51.81151454024358"/>
  <flow id="JF222122" begin="600" fromJunction="J3" toJunction="J5" end="660" vehsPerHour="34.82756340741292"/>
  <flow id="JF222123" begin="660" fromJunction="J0" toJunction="J3" end="720" vehsPerHour="172.6871979717138"/>
  <flow id="JF222124" begin="660" fromJunction="J3" toJunction="J0" end="720" vehsPerHour="480.9491130039322"/>
  <flow id="JF222125" begin="660" fromJunction="J0" toJunction="J6" end="720" vehsPerHour="14.934053721071061"/>
  <flow id="JF222126" begin="660" fromJunction="J0" toJunction="J4" end="720" vehsPerHour="118.9304383403873"/>
  <flow id="JF222127" begin="660" fromJunction="J0" toJunction="J7" end="720" vehsPerHour="23.525335088305166"/>
  <flow id="JF222128" begin="660" fromJunction="J0" toJunction="J5" end="720" vehsPerHour="117.31401649833694"/>
  <flow id="JF222129" begin="660" fromJunction="J3" toJunction="J6" end="720" vehsPerHour="98.79228248021519"/>
  <flow id="JF222130" begin="660" fromJunction="J3" toJunction="J4" end="720" vehsPerHour="32.00533598844636"/>
  <flow id="JF222131" begin="660" fromJunction="J3" toJunction="J7" end="720" vehsPerHour="23.631141943544645"/>
  <flow id="JF222132" begin="660" fromJunction="J3" toJunction="J5" end="720" vehsPerHour="22.307844037595125"/>
  <flow id="JF222133" begin="660" fromJunction="J6" toJunction="J4" end="720" vehsPerHour="62.71868804753487"/>
  <flow id="JF222134" begin="660" fromJunction="J6" toJunction="J7" end="720" vehsPerHour="7.324075451782788"/>
  <flow id="JF222135" begin="660" fromJunction="J6" toJunction="J5" end="720" vehsPerHour="7.024558777050115"/>
  <flow id="JF222136" begin="660" fromJunction="J4" toJunction="J6" end="720" vehsPerHour="43.833613737905374"/>
  <flow id="JF222137" begin="660" fromJunction="J4" toJunction="J7" end="720" vehsPerHour="56.760040013566666"/>
  <flow id="JF222138" begin="660" fromJunction="J4" toJunction="J5" end="720" vehsPerHour="43.56807683419196"/>
  <flow id="JF222139" begin="660" fromJunction="J7" toJunction="J6" end="720" vehsPerHour="59.93929911784808"/>
  <flow id="JF222140" begin="660" fromJunction="J7" toJunction="J4" end="720" vehsPerHour="33.663716428660365"/>
  <flow id="JF222141" begin="660" fromJunction="J7" toJunction="J5" end="720" vehsPerHour="67.26477845717042"/>
  <flow id="JF222142" begin="660" fromJunction="J5" toJunction="J6" end="720" vehsPerHour="1.773986047298984"/>
  <flow id="JF222143" begin="660" fromJunction="J5" toJunction="J4" end="720" vehsPerHour="49.56867782996506"/>
  <flow id="JF222144" begin="660" fromJunction="J5" toJunction="J7" end="720" vehsPerHour="60.84102776470018"/>
  <flow id="JF222145" begin="660" fromJunction="J6" toJunction="J0" end="720" vehsPerHour="48.41789417589216"/>
  <flow id="JF222146" begin="660" fromJunction="J6" toJunction="J3" end="720" vehsPerHour="62.31274309037076"/>
  <flow id="JF222147" begin="660" fromJunction="J4" toJunction="J0" end="720" vehsPerHour="27.50065927895644"/>
  <flow id="JF222148" begin="660" fromJunction="J4" toJunction="J3" end="720" vehsPerHour="27.03271980379238"/>
  <flow id="JF222149" begin="660" fromJunction="J7" toJunction="J0" end="720" vehsPerHour="45.90915307632483"/>
  <flow id="JF222150" begin="660" fromJunction="J7" toJunction="J3" end="720" vehsPerHour="51.62572342785711"/>
  <flow id="JF222151" begin="660" fromJunction="J5" toJunction="J0" end="720" vehsPerHour="64.04869378770518"/>
  <flow id="JF222152" begin="660" fromJunction="J5" toJunction="J3" end="720" vehsPerHour="63.159245946706754"/>
  <flow id="JF222153" begin="720" fromJunction="J0" toJunction="J3" end="780" vehsPerHour="191.56469884132147"/>
  <flow id="JF222154" begin="720" fromJunction="J3" toJunction="J0" end="780" vehsPerHour="358.04182086640196"/>
  <flow id="JF222155" begin="720" fromJunction="J0" toJunction="J6" end="780" vehsPerHour="19.609554166181912"/>
  <flow id="JF222156" begin="720" fromJunction="J0" toJunction="J4" end="780" vehsPerHour="59.70518134493371"/>
  <flow id="JF222157" begin="720" fromJunction="J0" toJunction="J7" end="780" vehsPerHour="103.93013913261689"/>
  <flow id="JF222158" begin="720" fromJunction="J0" toJunction="J5" end="780" vehsPerHour="75.44553030270376"/>