<?xml version="1.0" encoding="UTF-8"?>
<routes xmlns:xsi="http://www.w3.org/2001/XMLSchema-instance" xsi:noNamespaceSchemaLocation="http://sumo.dlr.de/xsd/routes_file.xsd">
  <flow id="JF209433" begin="0" fromJunction="J0" toJunction="J3" end="60" vehsPerHour="79.13409165049795"/>
  <flow id="JF209434" begin="0" fromJunction="J3" toJunction="J0" end="60" vehsPerHour="368.4550054307262"/>
  <flow id="JF209435" begin="0" fromJunction="J0" toJunction="J6" end="60" vehsPerHour="67.99353248203116"/>
  <flow id="JF209436" begin="0" fromJunction="J0" toJunction="J4" end="60" vehsPerHour="76.91239203346655"/>
  <flow id="JF209437" begin="0" fromJunction="J0" toJunction="J7" end="60" vehsPerHour="135.8024200385737"/>
  <flow id="JF209438" begin="0" fromJunction="J0" toJunction="J5" end="60" vehsPerHour="5.820570612595073"/>
  <flow id="JF209439" begin="0" fromJunction="J3" toJunction="J6" end="60" vehsPerHour="5.65244708593208"/>
  <flow id="JF209440" begin="0" fromJunction="J3" toJunction="J4" end="60" vehsPerHour="72.35389199149641"/>
  <flow id="JF209441" begin="0" fromJunction="J3" toJunction="J7" end="60" vehsPerHour="88.88708741221113"/>
  <flow id="JF209442" begin="0" fromJunction="J3" toJunction="J5" end="60" vehsPerHour="104.49717534315786"/>
  <flow id="JF209443" begin="0" fromJunction="J6" toJunction="J4" end="60" vehsPerHour="50.87687624140575"/>
  <flow id="JF209444" begin="0" fromJunction="J6" toJunction="J7" end="60" vehsPerHour="34.68526393521766"/>
  <flow id="JF209445" begin="0" fromJunction="J6" toJunction="J5" end="60" vehsPerHour="32.435685052874184"/>
  <flow id="JF209446" begin="0" fromJunction="J4" toJunction="J6" end="60" vehsPerHour="50.025931907632284"/>
  <flow id="JF209447" begin="0" fromJunction="J4" toJunction="J7" end="60" vehsPerHour="30.89493908114767"/>
  <flow id="JF209448" begin="0" fromJunction="J4" toJunction="J5" end="60" vehsPerHour="27.843113171960734"/>
  <flow id="JF209449" begin="0" fromJunction="J7" toJunction="J6" end="60" vehsPerHour="4.4251824250051905"/>
  <flow id="JF209450" begin="0" fromJunction="J7" toJunction="J4" end="60" vehsPerHour="35.24192098160045"/>
  <flow id="JF209451" begin="0" fromJunction="J7" toJunction="J5" end="60" vehsPerHour="65.63903031000169"/>
  <flow id="JF209452" begin="0" fromJunction="J5" toJunction="J6" end="60" vehsPerHour="46.067908927363"/>
  <flow id="JF209453" begin="0" fromJunction="J5" toJunction="J4" end="60" vehsPerHour="0.4963593754314981"/>
  <flow id="JF209454" begin="0" fromJunction="J5" toJunction="J7" end="60" vehsPerHour="5.4673307146765415"/>
  <flow id="JF209455" begin="0" fromJunction="J6" toJunction="J0" end="60" vehsPerHour="8.361139167923833"/>
  <flow id="JF209456" begin="0" fromJunction="J6" toJunction="J3" end="60" vehsPerHour="65.75196649895746"/>
  <flow id="JF209457" begin="0" fromJunction="J4" toJunction="J0" end="60" vehsPerHour="33.00207207401628"/>
  <flow id="JF209458" begin="0" fromJunction="J4" toJunction="J3" end="60" vehsPerHour="61.76170628681819"/>
  <flow id="JF209459" begin="0" fromJunction="J7" toJunction="J0" end="60" vehsPerHour="43.36184684722321"/>
  <flow id="JF209460" begin="0" fromJunction="J7" toJunction="J3" end="60" vehsPerHour="57.90403480792282"/>
  <flow id="JF209461" begin="0" fromJunction="J5" toJunction="J0" end="60" vehsPerHour="3.0104371033955477"/>
  <flow id="JF209462" begin="0" fromJunction="J5" toJunction="J3" end="60" vehsPerHour="59.63938930979095"/>
  <flow id="JF209463" begin="60" fromJunction="J0" toJunction="J3" end="120" vehsPerHour="394.35593969174266"/>
  <flow id="JF209464" begin="60" fromJunction="J3" toJunction="J0" end="120" vehsPerHour="123.43154794614341"/>
  <flow id="JF209465" begin="60" fromJunction="J0" toJunction="J6" end="120" vehsPerHour="128.01022949104205"/>
  <flow id="JF209466" begin="60" fromJunction="J0" toJunction="J4" end="120" vehsPerHour="35.15622744723654"/>
  <flow id="JF209467" begin="60" fromJunction="J0" toJunction="J7" end="120" vehsPerHour="65.28138213023152"/>
  <flow id="JF209468" begin="60" fromJunction="J0" toJunction="J5" end="120" vehsPerHour="18.38533459554731"/>
  <flow id="JF209469" begin="60" fromJunction="J3" toJunction="J6" end="120" vehsPerHour="91.79321412935941"/>
  <flow id="JF209470" begin="60" fromJunction="J3" toJunction="J4" end="120" vehsPerHour="67.17098503486221"/>
  <flow id="JF209471" begin="60" fromJunction="J3" toJunction="J7" end="120" vehsPerHour="136.96124662055792"/>
  <flow id="JF209472" begin="60" fromJunction="J3" toJunction="J5" end="120" vehsPerHour="93.46617553430441"/>
  <flow id="JF209473" begin="60" fromJunction="J6" toJunction="J4" end="120" vehsPerHour="14.78185930752744"/>
  <flow id="JF209474" begin="60" fromJunction="J6" toJunction="J7" end="120" vehsPerHour="54.682718709600536"/>
  <flow id="JF209475" begin="60" fromJunction="J6" toJunction="J5" end="120" vehsPerHour="18.07829616992244"/>
  <flow id="JF209476" begin="60" fromJunction="J4" toJunction="J6" end="120" vehsPerHour="65.17795280923988"/>
  <flow id="JF209477" begin="60" fromJunction="J4" toJunction="J7" end="120" vehsPerHour="54.936214512882984"/>
  <flow id="JF209478" begin="60" fromJunction="J4" toJunction="J5" end="120" vehsPerHour="49.679478707999834"/>
  <flow id="JF209479" begin="60" fromJunction="J7" toJunction="J6" end="120" vehsPerHour="68.32343584043403"/>
  <flow id="JF209480" begin="60" fromJunction="J7" toJunction="J4" end="120" vehsPerHour="35.73216732102128"/>
  <flow id="JF209481" begin="60" fromJunction="J7" toJunction="J5" end="120" vehsPerHour="17.236644897801565"/>
  <flow id="JF209482" begin="60" fromJunction="J5" toJunction="J6" end="120" vehsPerHour="30.91165267115526"/>
  <flow id="JF209483" begin="60" fromJunction="J5" toJunction="J4" end="120" vehsPerHour="67.61436295582533"/>
  <flow id="JF209484" begin="60" fromJunction="J5" toJunction="J7" end="120" vehsPerHour="38.19439944056042"/>
  <flow id="JF209485" begin="60" fromJunction="J6" toJunction="J0" end="120" vehsPerHour="22.661190514011405"/>
  <flow id="JF209486" begin="60" fromJunction="J6" toJunction="J3" end="120" vehsPerHour="54.760364474593445"/>
  <flow id="JF209487" begin="60" fromJunction="J4" toJunction="J0" end="120" vehsPerHour="55.51740593748778"/>
  <flow id="JF209488" begin="60" fromJunction="J4" toJunction="J3" end="120" vehsPerHour="42.52119977006768"/>
  <flow id="JF209489" begin="60" fromJunction="J7" toJunction="J0" end="120" vehsPerHour="46.3183024122564"/>
  <flow id="JF209490" begin="60" fromJunction="J7" toJunction="J3" end="120" vehsPerHour="13.974762782925401"/>
  <flow id="JF209491" begin="60" fromJunction="J5" toJunction="J0" end="120" vehsPerHour="53.81817212594795"/>
  <flow id="JF209492" begin="60" fromJunction="J5" toJunction="J3" end="120" vehsPerHour="58.92423924199262"/>
  <flow id="JF209493" begin="120" fromJunction="J0" toJunction="J3" end="180" vehsPerHour="379.4735544434571"/>
  <flow id="JF209494" begin="120" fromJunction="J3" toJunction="J0" end="180" vehsPerHour="31.85824867333119"/>
  <flow id="JF209495" begin="120" fromJunction="J0" toJunction="J6" end="180" vehsPerHour="122.46461707939967"/>
  <flow id="JF209496" begin="120" fromJunction="J0" toJunction="J4" end="180" vehsPerHour="17.44306393099868"/>
  <flow id="JF209497" begin="120" fromJunction="J0" toJunction="J7" end="180" vehsPerHour="113.90509412277241"/>
  <flow id="JF209498" begin="120" fromJunction="J0" toJunction="J5" end="180" vehsPerHour="129.14631260471424"/>
  <flow id="JF209499" begin="120" fromJunction="J3" toJunction="J6" end="180" vehsPerHour="54.988803431807966"/>
  <flow id="JF209500" begin="120" fromJunction="J3" toJunction="J4" end="180" vehsPerHour="17.716504402798062"/>
  <flow id="JF209501" begin="120" fromJunction="J3" toJunction="J7" end="180" vehsPerHour="33.53441638004292"/>
  <flow id="JF209502" begin="120" fromJunction="J3" toJunction="J5" end="180" vehsPerHour="99.85717358492134"/>
  <flow id="JF209503" begin="120" fromJunction="J6" toJunction="J4" end="180" vehsPerHour="10.374476870651902"/>
  <flow id="JF209504" begin="120" fromJunction="J6" toJunction="J7" end="180" vehsPerHour="56.867957405046624"/>
  <flow id="JF209505" begin="120" fromJunction="J6" toJunction="J5" end="180" vehsPerHour="22.776776823229117"/>
  <flow id="JF209506" begin="120" fromJunction="J4" toJunction="J6" end="180" vehsPerHour="63.16405509641358"/>
  <flow id="JF209507" begin="120" fromJunction="J4" toJunction="J7" end="180" vehsPerHour="46.45981153856834"/>
  <flow id="JF209508" begin="120" fromJunction="J4" toJunction="J5" end="180" vehsPerHour="48.879188177095166"/>
  <flow id="JF209509" begin="120" fromJunction="J7" toJunction="J6" end="180" vehsPerHour="50.8106766408115"/>
  <flow id="JF209510" begin="120" fromJunction="J7" toJunction="J4" end="180" vehsPerHour="27.47279607793854"/>
  <flow id="JF209511" begin="120" fromJunction="J7" toJunction="J5" end="180" vehsPerHour="48.116385791545"/>
  <flow id="JF209512" begin="120" fromJunction="J5" toJunction="J6" end="180" vehsPerHour="36.270773526134036"/>
  <flow id="JF209513" begin="120" fromJunction="J5" toJunction="J4" end="180" vehsPerHour="64.7161212029812"/>
  <flow id="JF209514" begin="120" fromJunction="J5" toJunction="J7" end="180" vehsPerHour="0.9272947066795058"/>
  <flow id="JF209515" begin="120" fromJunction="J6" toJunction="J0" end="180" vehsPerHour="62.16624635530447"/>
  <flow id="JF209516" begin="120" fromJunction="J6" toJunction="J3" end="180" vehsPerHour="6.5744377359253585"/>
  <flow id="JF209517" begin="120" fromJunction="J4" toJunction="J0" end="180" vehsPerHour="57.98236143046179"/>
  <flow id="JF209518" begin="120" fromJunction="J4" toJunction="J3" end="180" vehsPerHour="62.66606217146641"/>
  <flow id="JF209519" begin="120" fromJunction="J7" toJunction="J0" end="180" vehsPerHour="5.04301892689569"/>
  <flow id="JF209520" begin="120" fromJunction="J7" toJunction="J3" end="180" vehsPerHour="27.079881424961403"/>
  <flow id="JF209521" begin="120" fromJunction="J5" toJunction="J0" end="180" vehsPerHour="9.439647185069294"/>
  <flow id="JF209522" begin="120" fromJunction="J5" toJunction="J3" end="180" vehsPerHour="34.26069032564561"/>
  <flow id="JF209523" begin="180" fromJunction="J0" toJunction="J3" end="240" vehsPerHour="327.7396855886571"/>
  <flow id="JF209524" begin="180" fromJunction="J3" toJunction="J0" end="240" vehsPerHour="365.1129779256584"/>
  <flow id="JF209525" begin="180" fromJunction="J0" toJunction="J6" end="240" vehsPerHour="79.79059699748731"/>
  <flow id="JF209526" begin="180" fromJunction="J0" toJunction="J4" end="240" vehsPerHour="16.59049640637118"/>
  <flow id="JF209527" begin="180" fromJunction="J0" toJunction="J7" end="240" vehsPerHour="43.032233388608795"/>
  <flow id="JF209528" begin="180" fromJunction="J0" toJunction="J5" end="240" vehsPerHour="50.22321800946755"/>
  <flow id="JF209529" begin="180" fromJunction="J3" toJunction="J6" end="240" vehsPerHour="113.85860206262649"/>
  <flow id="JF209530" begin="180" fromJunction="J3" toJunction="J4" end="240" vehsPerHour="51.82375251757199"/>
  <flow id="JF209531" begin="180" fromJunction="J3" toJunction="J7" end="240" vehsPerHour="48.02297733805072"/>
  <flow id="JF209532" begin="180" fromJunction="J3" toJunction="J5" end="240" vehsPerHour="98.4411206429955"/>
  <flow id="JF209533" begin="180" fromJunction="J6" toJunction="J4" end="240" vehsPerHour="31.968171542065036"/>
  <flow id="JF209534" begin="180" fromJunction="J6" toJunction="J7" end="240" vehsPerHour="23.18172492930074"/>
  <flow id="JF209535" begin="180" fromJunction="J6" toJunction="J5" end="240" vehsPerHour="48.642056703006254"/>
  <flow id="JF209536" begin="180" fromJunction="J4" toJunction="J6" end="240" vehsPerHour="63.05611734953798"/>
  <flow id="JF209537" begin="180" fromJunction="J4" toJunction="J7" end="240" vehsPerHour="67.60950079815268"/>
  <flow id="JF209538" begin="180" fromJunction="J4" toJunction="J5" end="240" vehsPerHour="2.938906861282457"/>
  <flow id="JF209539" begin="180" fromJunction="J7" toJunction="J6" end="240" vehsPerHour="55.847864896569135"/>
  <flow id="JF209540" begin="180" fromJunction="J7" toJunction="J4" end="240" vehsPerHour="12.432744768553945"/>
  <flow id="JF209541" begin="180" fromJunction="J7" toJunction="J5" end="240" vehsPerHour="26.225860993394964"/>
  <flow id="JF209542" begin="180" fromJunction="J5" toJunction="J6" end="240" vehsPerHour="39.824149572818996"/>
  <flow id="JF209543" begin="180" fromJunction="J5" toJunction="J4" end="240" vehsPerHour="54.42589774517062"/>
  <flow id="JF209544" begin="180" fromJunction="J5" toJunction="J7" end="240" vehsPerHour="33.61321397257704"/>
  <flow id="JF209545" begin="180" fromJunction="J6" toJunction="J0" end="240" vehsPerHour="12.189683343283088"/>
  <flow id="JF209546" begin="180" fromJunction="J6" toJunction="J3" end="240" vehsPerHour="55.50725071119668"/>
  <flow id="JF209547" begin="180" fromJunction="J4" toJunction="J0" end="240" vehsPerHour="6.066007665455806"/>
  <flow id="JF209548" begin="180" fromJunction="J4" toJunction="J3" end="240" vehsPerHour="45.287092670061234"/>
  <flow id="JF209549" begin="180" fromJunction="J7" toJunction="J0" end="240" vehsPerHour="16.118921936175497"/>
  <flow id="JF209550" begin="180" fromJunction="J7" toJunction="J3" end="240" vehsPerHour="51.53065890347486"/>
  <flow id="JF209551" begin="180" fromJunction="J5" toJunction="J0" end="240" vehsPerHour="19.880257049282964"/>
  <flow id="JF209552" begin="180" fromJunction="J5" toJunction="J3" end="240" vehsPerHour="20.956727231245427"/>
  <flow id="JF209553" begin="240" fromJunction="J0" toJunction="J3" end="300" vehsPerHour="196.23649810066294"/>
  <flow id="JF209554" begin="240" fromJunction="J3" toJunction="J0" end="300" vehsPerHour="44.010069080953954"/>
  <flow id="JF209555" begin="240" fromJunction="J0" toJunction="J6" end="300" vehsPerHour="87.60093547295673"/>
  <flow id="JF209556" begin="240" fromJunction="J0" toJunction="J4" end="300" vehsPerHour="91.01462580977984"/>
  <flow id="JF209557" begin="240" fromJunction="J0" toJunction="J7" end="300" vehsPerHour="72.1539812950221"/>
  <flow id="JF209558" begin="240" fromJunction="J0" toJunction="J5" end="300" vehsPerHour="75.34438450949652"/>
  <flow id="JF209559" begin="240" fromJunction="J3" toJunction="J6" end="300" vehsPerHour="108.70266218495077"/>
  <flow id="JF209560" begin="240" fromJunction="J3" toJunction="J4" end="300" vehsPerHour="62.79975066299088"/>
  <flow id="JF209561" begin="240" fromJunction="J3" toJunction="J7" end="300" vehsPerHour="108.05203867722113"/>
  <flow id="JF209562" begin="240" fromJunction="J3" toJunction="J5" end="300" vehsPerHour="118.59445810366793"/>
  <flow id="JF209563" begin="240" fromJunction="J6" toJunction="J4" end="300" vehsPerHour="14.460251767359715"/>
  <flow id="JF209564" begin="240" fromJunction="J6" toJunction="J7" end="300" vehsPerHour="62.96432028278913"/>
  <flow id="JF209565" begin="240" fromJunction="J6" toJunction="J5" end="300" vehsPerHour="28.622195039422543"/>
  <flow id="JF209566" begin="240" fromJunction="J4" toJunction="J6" end="300" vehsPerHour="0.29801340849928165"/>
  <flow id="JF209567" begin="240" fromJunction="J4" toJunction="J7" end="300" vehsPerHour="40.16116629305641"/>
  <flow id="JF209568" begin="240" fromJunction="J4" toJunction="J5" end="300" vehsPerHour="5.218688608251045"/>
  <flow id="JF209569" begin="240" fromJunction="J7" toJunction="J6" end="300" vehsPerHour="40.20648485715335"/>
  <flow id="JF209570" begin="240" fromJunction="J7" toJunction="J4" end="300" vehsPerHour="56.99710737676184"/>
  <flow id="JF209571" begin="240" fromJunction="J7" toJunction="J5" end="300" vehsPerHour="54.438901628126686"/>
  <flow id="JF209572" begin="240" fromJunction="J5" toJunction="J6" end="300" vehsPerHour="21.474290085456932"/>
  <flow id="JF209573" begin="240" fromJunction="J5" toJunction="J4" end="300" vehsPerHour="6.877848085095184"/>
  <flow id="JF209574" begin="240" fromJunction="J5" toJunction="J7" end="300" vehsPerHour="45.43586783691384"/>
  <flow id="JF209575" begin="240" fromJunction="J6" toJunction="J0" end="300" vehsPerHour="1.0481479913843579"/>
  <flow id="JF209576" begin="240" fromJunction="J6" toJunction="J3" end="300" vehsPerHour="68.44936561233864"/>
  <flow id="JF209577" begin="240" fromJunction="J4" toJunction="J0" end="300" vehsPerHour="46.83966999888994"/>
  <flow id="JF209578" begin="240" fromJunction="J4" toJunction="J3" end="300" vehsPerHour="9.475471604104053"/>
  <flow id="JF209579" begin="240" fromJunction="J7" toJunction="J0" end="300" vehsPerHour="18.943874396392737"/>
  <flow id="JF209580" begin="240" fromJunction="J7" toJunction="J3" end="300" vehsPerHour="35.70405851627666"/>
  <flow id="JF209581" begin="240" fromJunction="J5" toJunction="J0" end="300" vehsPerHour="29.28741599254669"/>
  <flow id="JF209582" begin="240" fromJunction="J5" toJunction="J3" end="300" vehsPerHour="12.542713864700348"/>
  <flow id="JF209583" begin="300" fromJunction="J0" toJunction="J3" end="360" vehsPerHour="207.93393989139324"/>
  <flow id="JF209584" begin="300" fromJunction="J3" toJunction="J0" end="360" vehsPerHour="524.6326738391869"/>
  <flow id="JF209585" begin="300" fromJunction="J0" toJunction="J6" end="360" vehsPerHour="131.5188128269823"/>
  <flow id="JF209586" begin="300" fromJunction="J0" toJunction="J4" end="360" vehsPerHour="114.01651970434921"/>
  <flow id="JF209587" begin="300" fromJunction="J0" toJunction="J7" end="360" vehsPerHour="21.507062523640368"/>
  <flow id="JF209588" begin="300" fromJunction="J0" toJunction="J5" end="360" vehsPerHour="8.399759770201397"/>
  <flow id="JF209589" begin="300" fromJunction="J3" toJunction="J6" end="360" vehsPerHour="11.374993161913181"/>
  <flow id="JF209590" begin="300" fromJunction="J3" toJunction="J4" end="360" vehsPerHour="47.51721062853669"/>
  <flow id="JF209591" begin="300" fromJunction="J3" toJunction="J7" end="360" vehsPerHour="30.769281852738043"/>
  <flow id="JF209592" begin="300" fromJunction="J3" toJunction="J5" end="360" vehsPerHour="105.31680914760939"/>
  <flow id="JF209593" begin="300" fromJunction="J6" toJunction="J4" end="360" vehsPerHour="8.931184695663585"/>
  <flow id="JF209594" begin="300" fromJunction="J6" toJunction="J7" end="360" vehsPerHour="64.76992428722554"/>
  <flow id="JF209595" begin="300" fromJunction="J6" toJunction="J5" end="360" vehsPerHour="21.916470627755967"/>
  <flow id="JF209596" begin="300" fromJunction="J4" toJunction="J6" end="360" vehsPerHour="36.43939439055108"/>
  <flow id="JF209597" begin="300" fromJunction="J4" toJunction="J7" end="360" vehsPerHour="16.54921886179317"/>
  <flow id="JF209598" begin="300" fromJunction="J4" toJunction="J5" end="360" vehsPerHour="43.99094352631034"/>
  <flow id="JF209599" begin="300" fromJunction="J7" toJunction="J6" end="360" vehsPerHour="61.14293794175337"/>
  <flow id="JF209600" begin="300" fromJunction="J7" toJunction="J4" end="360" vehsPerHour="23.15118544135079"/>
  <flow id="JF209601" begin="300" fromJunction="J7" toJunction="J5" end="360" vehsPerHour="64.55319351815012"/>
  <flow id="JF209602" begin="300" fromJunction="J5" toJunction="J6" end="360" vehsPerHour="44.27216308606609"/>
  <flow id="JF209603" begin="300" fromJunction="J5" toJunction="J4" end="360" vehsPerHour="18.442020467461546"/>
  <flow id="JF209604" begin="300" fromJunction="J5" toJunction="J7" end="360" vehsPerHour="52.88192745750812"/>
  <flow id="JF209605" begin="300" fromJunction="J6" toJunction="J0" end="360" vehsPerHour="37.8710646445659"/>
  <flow id="JF209606" begin="300" fromJunction="J6" toJunction="J3" end="360" vehsPerHour="27.109169354317935"/>
  <flow id="JF209607" begin="300" fromJunction="J4" toJunction="J0" end="360" vehsPerHour="45.825380767880986"/>
  <flow id="JF209608" begin="300" fromJunction="J4" toJunction="J3" end="360" vehsPerHour="38.89361486053503"/>
  <flow id="JF209609" begin="300" fromJunction="J7" toJunction="J0" end="360" vehsPerHour="50.87133111018121"/>
  <flow id="JF209610" begin="300" fromJunction="J7" toJunction="J3" end="360" vehsPerHour="26.73304685353314"/>
  <flow id="JF209611" begin="300" fromJunction="J5" toJunction="J0" end="360" vehsPerHour="20.331019558776216"/>
  <flow id="JF209612" begin="300" fromJunction="J5" toJunction="J3" end="360" vehsPerHour="37.1870949263105"/>
  <flow id="JF209613" begin="360" fromJunction="J0" toJunction="J3" end="420" vehsPerHour="162.73973428874825"/>
  <flow id="JF209614" begin="360" fromJunction="J3" toJunction="J0" end="420" vehsPerHour="234.53556521539232"/>
  <flow id="JF209615" begin="360" fromJunction="J0" toJunction="J6" end="420" vehsPerHour="84.03839615243389"/>
  <flow id="JF209616" begin="360" fromJunction="J0" toJunction="J4" end="420" vehsPerHour="123.4038195896723"/>
  <flow id="JF209617" begin="360" fromJunction="J0" toJunction="J7" end="420" vehsPerHour="58.17798243810986"/>
  <flow id="JF209618" begin="360" fromJunction="J0" toJunction="J5" end="420" vehsPerHour="11.684922333467588"/>
  <flow id="JF209619" begin="360" fromJunction="J3" toJunction="J6" end="420" vehsPerHour="85.7423862216065"/>
  <flow id="JF209620" begin="360" fromJunction="J3" toJunction="J4" end="420" vehsPerHour="57.813932085217104"/>
  <flow id="JF209621" begin="360" fromJunction="J3" toJunction="J7" end="420" vehsPerHour="77.2582954798719"/>
  <flow id="JF209622" begin="360" fromJunction="J3" toJunction="J5" end="420" vehsPerHour="59.05815899685355"/>
  <flow id="JF209623" begin="360" fromJunction="J6" toJunction="J4" end="420" vehsPerHour="1.648996432626208"/>
  <flow id="JF209624" begin="360" fromJunction="J6" toJunction="J7" end="420" vehsPerHour="66.97690443334423"/>
  <flow id="JF209625" begin="360" fromJunction="J6" toJunction="J5" end="420" vehsPerHour="20.633416667073647"/>
  <flow id="JF209626" begin="360" fromJunction="J4" toJunction="J6" end="420" vehsPerHour="6.219266672174627"/>
  <flow id="JF209627" begin="360" fromJunction="J4" toJunction="J7" end="420" vehsPerHour="16.115366531696676"/>
  <flow id="JF209628" begin="360" fromJunction="J4" toJunction="J5" end="420" vehsPerHour="34.95413261411417"/>
  <flow id="JF209629" begin="360" fromJunction="J7" toJunction="J6" end="420" vehsPerHour="26.52603579083229"/>
  <flow id="JF209630" begin="360" fromJunction="J7" toJunction="J4" end="420" vehsPerHour="14.761178899579736"/>
  <flow id="JF209631" begin="360" fromJunction="J7" toJunction="J5" end="420" vehsPerHour="15.087666059483691"/>
  <flow id="JF209632" begin="360" fromJunction="J5" toJunction="J6" end="420" vehsPerHour="40.7963766726667"/>
  <flow id="JF209633" begin="360" fromJunction="J5" toJunction="J4" end="420" vehsPerHour="27.81367811212653"/>
  <flow id="JF209634" begin="360" fromJunction="J5" toJunction="J7" end="420" vehsPerHour="22.426262974800267"/>
  <flow id="JF209635" begin="360" fromJunction="J6" toJunction="J0" end="420" vehsPerHour="10.889066792639563"/>
  <flow id="JF209636" begin="360" fromJunction="J6" toJunction="J3" end="420" vehsPerHour="54.723725847672306"/>
  <flow id="JF209637" begin="360" fromJunction="J4" toJunction="J0" end="420" vehsPerHour="17.05513078901591"/>
  <flow id="JF209638" begin="360" fromJunction="J4" toJunction="J3" end="420" vehsPerHour="35.775788076098166"/>
  <flow id="JF209639" begin="360" fromJunction="J7" toJunction="J0" end="420" vehsPerHour="45.657788274395585"/>
  <flow id="JF209640" begin="360" fromJunction="J7" toJunction="J3" end="420" vehsPerHour="30.75297429843438"/>
  <flow id="JF209641" begin="360" fromJunction="J5" toJunction="J0" end="420" vehsPerHour="60.832737446501255"/>
  <flow id="JF209642" begin="360" fromJunction="J5" toJunction="J3" end="420" vehsPerHour="68.18743008919002"/>
  <flow id="JF209643" begin="420" fromJunction="J0" toJunction="J3" end="480" vehsPerHour="216.2932074705311"/>
  <flow id="JF209644" begin="420" fromJunction="J3" toJunction="J0" end="480" vehsPerHour="297.2213240981092"/>
  <flow id="JF209645" begin="420" fromJunction="J0" toJunction="J6" end="480" vehsPerHour="50.30313722147626"/>
  <flow id="JF209646" begin="420" fromJunction="J0" toJunction="J4" end="480" vehsPerHour="15.836219028803606"/>
  <flow id="JF209647" begin="420" fromJunction="J0" toJunction="J7" end="480" vehsPerHour="77.00089818604265"/>
  <flow id="JF209648" begin="420" fromJunction="J0" toJunction="J5" end="480" vehsPerHour="69.28836547746917"/>
  <flow id="JF209649" begin="420" fromJunction="J3" toJunction="J6" end="480" vehsPerHour="0.22796501577324862"/>
  <flow id="JF209650" begin="420" fromJunction="J3" toJunction="J4" end="480" vehsPerHour="53.40077455840087"/>
  <flow id="JF209651" begin="420" fromJunction="J3" toJunction="J7" end="480" vehsPerHour="117.64431078870554"/>
  <flow id="JF209652" begin="420" fromJunction="J3" toJunction="J5" end="480" vehsPerHour="125.97320367565999"/>
  <flow id="JF209653" begin="420" fromJunction="J6" toJunction="J4" end="480" vehsPerHour="66.43952032256696"/>
  <flow id="JF209654" begin="420" fromJunction="J6" toJunction="J7" end="480" vehsPerHour="30.16559822037902"/>
  <flow id="JF209655" begin="420" fromJunction="J6" toJunction="J5" end="480" vehsPerHour="15.355638776749917"/>
  <flow id="JF209656" begin="420" fromJunction="J4" toJunction="J6" end="480" vehsPerHour="5.940974918948912"/>
  <flow id="JF209657" begin="420" fromJunction="J4" toJunction="J7" end="480" vehsPerHour="23.711073998893657"/>
  <flow id="JF209658" begin="420" fromJunction="J4" toJunction="J5" end="480" vehsPerHour="41.64790254785162"/>
  <flow id="JF209659" begin="420" fromJunction="J7" toJunction="J6" end="480" vehsPerHour="30.27705832342035"/>
  <flow id="JF209660" begin="420" fromJunction="J7" toJunction="J4" end="480" vehsPerHour="27.395112192870812"/>
  <flow id="JF209661" begin="420" fromJunction="J7" toJunction="J5" end="480" vehsPerHour="0.8606772384864554"/>
  <flow id="JF209662" begin="420" fromJunction="J5" toJunction="J6" end="480" vehsPerHour="42.71675802396771"/>
  <flow id="JF209663" begin="420" fromJunction="J5" toJunction="J4" end="480" vehsPerHour="15.198875672579472"/>
  <flow id="JF209664" begin="420" fromJunction="J5" toJunction="J7" end="480" vehsPerHour="23.13085457268193"/>
  <flow id="JF209665" begin="420" fromJunction="J6" toJunction="J0" end="480" vehsPerHour="13.114649851473887"/>
  <flow id="JF209666" begin="420" fromJunction="J6" toJunction="J3" end="480" vehsPerHour="2.403363204469625"/>
  <flow id="JF209667" begin="420" fromJunction="J4" toJunction="J0" end="480" vehsPerHour="64.73998025154457"/>
  <flow id="JF209668" begin="420" fromJunction="J4" toJunction="J3" end="480" vehsPerHour="27.556117074115804"/>
  <flow id="JF209669" begin="420" fromJunction="J7" toJunction="J0" end="480" vehsPerHour="24.176463476909564"/>
  <flow id="JF209670" begin="420" fromJunction="J7" toJunction="J3" end="480" vehsPerHour="60.60086302742635"/>
  <flow id="JF209671" begin="420" fromJunction="J5" toJunction="J0" end="480" vehsPerHour="38.52527427351882"/>
  <flow id="JF209672" begin="420" fromJunction="J5" toJunction="J3" end="480" vehsPerHour="18.573393705080537"/>
  <flow id="JF209673" begin="480" fromJunction="J0" toJunction="J3" end="540" vehsPerHour="189.9206837180786"/>
  <flow id="JF209674" begin="480" fromJunction="J3" toJunction="J0" end="540" vehsPerHour="234.4309348358827"/>
  <flow id="JF209675" begin="480" fromJunction="J0" toJunction="J6" end="540" vehsPerHour="26.19536591067814"/>
  <flow id="JF209676" begin="480" fromJunction="J0" toJunction="J4" end="540" vehsPerHour="104.05053788086734"/>
  <flow id="JF209677" begin="480" fromJunction="J0" toJunction="J7" end="540" vehsPerHour="118.16745734232751"/>
  <flow id="JF209678" begin="480" fromJunction="J0" toJunction="J5" end="540" vehsPerHour="123.11582310070496"/>
  <flow id="JF209679" begin="480" fromJunction="J3" toJunction="J6" end="540" vehsPerHour="92.48993086839997"/>
  <flow id="JF209680" begin="480" fromJunction="J3" toJunction="J4" end="540" vehsPerHour="85.83802991723161"/>
  <flow id="JF209681" begin="480" fromJunction="J3" toJunction="J7" end="540" vehsPerHour="41.963300547089766"/>
  <flow id="JF209682" begin="480" fromJunction="J3" toJunction="J5" end="540" vehsPerHour="49.97287909004464"/>
  <flow id="JF209683" begin="480" fromJunction="J6" toJunction="J4" end="540" vehsPerHour="37.1739866621455"/>
  <flow id="JF209684" begin="480" fromJunction="J6" toJunction="J7" end="540" vehsPerHour="40.97427717074342"/>
  <flow id="JF209685" begin="480" fromJunction="J6" toJunction="J5" end="540" vehsPerHour="50.91648671356161"/>
  <flow id="JF209686" begin="480" fromJunction="J4" toJunction="J6" end="540" vehsPerHour="19.586951115092937"/>
  <flow id="JF209687" begin="480" fromJunction="J4" toJunction="J7" end="540" vehsPerHour="29.680647552649553"/>
  <flow id="JF209688" begin="480" fromJunction="J4" toJunction="J5" end="540" vehsPerHour="16.765313999745004"/>
  <flow id="JF209689" begin="480" fromJunction="J7" toJunction="J6" end="540" vehsPerHour="62.27280842780845"/>
  <flow id="JF209690" begin="480" fromJunction="J7" toJunction="J4" end="540" vehsPerHour="61.3581714743606"/>
  <flow id="JF209691" begin="480" fromJunction="J7" toJunction="J5" end="540" vehsPerHour="45.236878491913"/>
  <flow id="JF209692" begin="480" fromJunction="J5" toJunction="J6" end="540" vehsPerHour="13.175925734058952"/>
  <flow id="JF209693" begin="480" fromJunction="J5" toJunction="J4" end="540" vehsPerHour="2.4866540520210716"/>
  <flow id="JF209694" begin="480" fromJunction="J5" toJunction="J7" end="540" vehsPerHour="49.97430681298872"/>
  <flow id="JF209695" begin="480" fromJunction="J6" toJunction="J0" end="540" vehsPerHour="64.37036358777847"/>
  <flow id="JF209696" begin="480" fromJunction="J6" toJunction="J3" end="540" vehsPerHour="0.1252639326396653"/>
  <flow id="JF209697" begin="480" fromJunction="J4" toJunction="J0" end="540" vehsPerHour="37.3144146778675"/>
  <flow id="JF209698" begin="480" fromJunction="J4" toJunction="J3" end="540" vehsPerHour="0.7974570698702728"/>