<?xml version="1.0" encoding="UTF-8"?>
<routes xmlns:xsi="http://www.w3.org/2001/XMLSchema-instance" xsi:noNamespaceSchemaLocation="http://sumo.dlr.de/xsd/routes_file.xsd">
  <flow id="JF213573" begin="0" fromJunction="J0" toJunction="J3" end="60" vehsPerHour="176.88257651223373"/>
  <flow id="JF213574" begin="0" fromJunction="J3" toJunction="J0" end="60" vehsPerHour="414.4524085369266"/>
  <flow id="JF213575" begin="0" fromJunction="J0" toJunction="J6" end="60" vehsPerHour="97.27394855136647"/>
  <flow id="JF213576" begin="0" fromJunction="J0" toJunction="J4" end="60" vehsPerHour="107.90147420084968"/>
  <flow id="JF213577" begin="0" fromJunction="J0" toJunction="J7" end="60" vehsPerHour="118.75840056092268"/>
  <flow id="JF213578" begin="0" fromJunction="J0" toJunction="J5" end="60" vehsPerHour="4.516725706185925"/>
  <flow id="JF213579" begin="0" fromJunction="J3" toJunction="J6" end="60" vehsPerHour="11.641866910041607"/>
  <flow id="JF213580" begin="0" fromJunction="J3" toJunction="J4" end="60" vehsPerHour="121.55381090352918"/>
  <flow id="JF213581" begin="0" fromJunction="J3" toJunction="J7" end="60" vehsPerHour="94.389047292945"/>
  <flow id="JF213582" begin="0" fromJunction="J3" toJunction="J5" end="60" vehsPerHour="93.41377494823492"/>
  <flow id="JF213583" begin="0" fromJunction="J6" toJunction="J4" end="60" vehsPerHour="50.34195597245622"/>
  <flow id="JF213584" begin="0" fromJunction="J6" toJunction="J7" end="60" vehsPerHour="66.68851398850603"/>
  <flow id="JF213585" begin="0" fromJunction="J6" toJunction="J5" end="60" vehsPerHour="15.614698512589436"/>
  <flow id="JF213586" begin="0" fromJunction="J4" toJunction="J6" end="60" vehsPerHour="29.069655334852484"/>
  <flow id="JF213587" begin="0" fromJunction="J4" toJunction="J7" end="60" vehsPerHour="49.85279717707716"/>
  <flow id="JF213588" begin="0" fromJunction="J4" toJunction="J5" end="60" vehsPerHour="46.537335262920266"/>
  <flow id="JF213589" begin="0" fromJunction="J7" toJunction="J6" end="60" vehsPerHour="42.96119511324264"/>
  <flow id="JF213590" begin="0" fromJunction="J7" toJunction="J4" end="60" vehsPerHour="52.615252442325776"/>
  <flow id="JF213591" begin="0" fromJunction="J7" toJunction="J5" end="60" vehsPerHour="18.75756520288184"/>
  <flow id="JF213592" begin="0" fromJunction="J5" toJunction="J6" end="60" vehsPerHour="27.369795618937644"/>
  <flow id="JF213593" begin="0" fromJunction="J5" toJunction="J4" end="60" vehsPerHour="59.852680262329464"/>
  <flow id="JF213594" begin="0" fromJunction="J5" toJunction="J7" end="60" vehsPerHour="16.47508108608357"/>
  <flow id="JF213595" begin="0" fromJunction="J6" toJunction="J0" end="60" vehsPerHour="31.27788294465537"/>
  <flow id="JF213596" begin="0" fromJunction="J6" toJunction="J3" end="60" vehsPerHour="56.74450730058895"/>
  <flow id="JF213597" begin="0" fromJunction="J4" toJunction="J0" end="60" vehsPerHour="14.780095141588518"/>
  <flow id="JF213598" begin="0" fromJunction="J4" toJunction="J3" end="60" vehsPerHour="47.1127118635321"/>
  <flow id="JF213599" begin="0" fromJunction="J7" toJunction="J0" end="60" vehsPerHour="50.776938359193"/>
  <flow id="JF213600" begin="0" fromJunction="J7" toJunction="J3" end="60" vehsPerHour="11.571594129045861"/>
  <flow id="JF213601" begin="0" fromJunction="J5" toJunction="J0" end="60" vehsPerHour="49.05755785668092"/>
  <flow id="JF213602" begin="0" fromJunction="J5" toJunction="J3" end="60" vehsPerHour="30.587701592618004"/>
  <flow id="JF213603" begin="60" fromJunction="J0" toJunction="J3" end="120" vehsPerHour="410.61031623461616"/>
  <flow id="JF213604" begin="60" fromJunction="J3" toJunction="J0" end="120" vehsPerHour="245.10976771225623"/>
  <flow id="JF213605" begin="60" fromJunction="J0" toJunction="J6" end="120" vehsPerHour="93.93256656736352"/>
  <flow id="JF213606" begin="60" fromJunction="J0" toJunction="J4" end="120" vehsPerHour="92.78493648602925"/>
  <flow id="JF213607" begin="60" fromJunction="J0" toJunction="J7" end="120" vehsPerHour="36.70173342888219"/>
  <flow id="JF213608" begin="60" fromJunction="J0" toJunction="J5" end="120" vehsPerHour="77.83349032988895"/>
  <flow id="JF213609" begin="60" fromJunction="J3" toJunction="J6" end="120" vehsPerHour="99.66302157848942"/>
  <flow id="JF213610" begin="60" fromJunction="J3" toJunction="J4" end="120" vehsPerHour="6.868606009993358"/>
  <flow id="JF213611" begin="60" fromJunction="J3" toJunction="J7" end="120" vehsPerHour="129.303635908256"/>
  <flow id="JF213612" begin="60" fromJunction="J3" toJunction="J5" end="120" vehsPerHour="10.464153649677788"/>
  <flow id="JF213613" begin="60" fromJunction="J6" toJunction="J4" end="120" vehsPerHour="29.128705218224937"/>
  <flow id="JF213614" begin="60" fromJunction="J6" toJunction="J7" end="120" vehsPerHour="24.592241370499046"/>
  <flow id="JF213615" begin="60" fromJunction="J6" toJunction="J5" end="120" vehsPerHour="31.549821291375807"/>
  <flow id="JF213616" begin="60" fromJunction="J4" toJunction="J6" end="120" vehsPerHour="18.834653486314814"/>
  <flow id="JF213617" begin="60" fromJunction="J4" toJunction="J7" end="120" vehsPerHour="14.891588214507303"/>
  <flow id="JF213618" begin="60" fromJunction="J4" toJunction="J5" end="120" vehsPerHour="63.23000668755531"/>
  <flow id="JF213619" begin="60" fromJunction="J7" toJunction="J6" end="120" vehsPerHour="4.889920561715622"/>
  <flow id="JF213620" begin="60" fromJunction="J7" toJunction="J4" end="120" vehsPerHour="42.804231344715596"/>
  <flow id="JF213621" begin="60" fromJunction="J7" toJunction="J5" end="120" vehsPerHour="55.788570064170216"/>
  <flow id="JF213622" begin="60" fromJunction="J5" toJunction="J6" end="120" vehsPerHour="31.500542747075453"/>
  <flow id="JF213623" begin="60" fromJunction="J5" toJunction="J4" end="120" vehsPerHour="40.82109198290631"/>
  <flow id="JF213624" begin="60" fromJunction="J5" toJunction="J7" end="120" vehsPerHour="68.31875214438"/>
  <flow id="JF213625" begin="60" fromJunction="J6" toJunction="J0" end="120" vehsPerHour="58.76995493927594"/>
  <flow id="JF213626" begin="60" fromJunction="J6" toJunction="J3" end="120" vehsPerHour="42.23995567674738"/>
  <flow id="JF213627" begin="60" fromJunction="J4" toJunction="J0" end="120" vehsPerHour="62.50688823656137"/>
  <flow id="JF213628" begin="60" fromJunction="J4" toJunction="J3" end="120" vehsPerHour="26.041152636715783"/>
  <flow id="JF213629" begin="60" fromJunction="J7" toJunction="J0" end="120" vehsPerHour="36.4538654861265"/>
  <flow id="JF213630" begin="60" fromJunction="J7" toJunction="J3" end="120" vehsPerHour="18.419665644556936"/>
  <flow id="JF213631" begin="60" fromJunction="J5" toJunction="J0" end="120" vehsPerHour="11.07893061303094"/>
  <flow id="JF213632" begin="60" fromJunction="J5" toJunction="J3" end="120" vehsPerHour="28.69447798008933"/>
  <flow id="JF213633" begin="120" fromJunction="J0" toJunction="J3" end="180" vehsPerHour="527.8873253802365"/>
  <flow id="JF213634" begin="120" fromJunction="J3" toJunction="J0" end="180" vehsPerHour="128.7791511828146"/>
  <flow id="JF213635" begin="120" fromJunction="J0" toJunction="J6" end="180" vehsPerHour="67.90824375710142"/>
  <flow id="JF213636" begin="120" fromJunction="J0" toJunction="J4" end="180" vehsPerHour="77.80221525009785"/>
  <flow id="JF213637" begin="120" fromJunction="J0" toJunction="J7" end="180" vehsPerHour="41.24776044016505"/>
  <flow id="JF213638" begin="120" fromJunction="J0" toJunction="J5" end="180" vehsPerHour="71.02846466915308"/>
  <flow id="JF213639" begin="120" fromJunction="J3" toJunction="J6" end="180" vehsPerHour="91.01740642844774"/>
  <flow id="JF213640" begin="120" fromJunction="J3" toJunction="J4" end="180" vehsPerHour="121.33643076107619"/>
  <flow id="JF213641" begin="120" fromJunction="J3" toJunction="J7" end="180" vehsPerHour="59.997761378318714"/>
  <flow id="JF213642" begin="120" fromJunction="J3" toJunction="J5" end="180" vehsPerHour="57.53020463223966"/>
  <flow id="JF213643" begin="120" fromJunction="J6" toJunction="J4" end="180" vehsPerHour="56.47119949980306"/>
  <flow id="JF213644" begin="120" fromJunction="J6" toJunction="J7" end="180" vehsPerHour="30.26824410780027"/>
  <flow id="JF213645" begin="120" fromJunction="J6" toJunction="J5" end="180" vehsPerHour="37.97454414141722"/>
  <flow id="JF213646" begin="120" fromJunction="J4" toJunction="J6" end="180" vehsPerHour="63.06358297612645"/>
  <flow id="JF213647" begin="120" fromJunction="J4" toJunction="J7" end="180" vehsPerHour="14.244761651184326"/>
  <flow id="JF213648" begin="120" fromJunction="J4" toJunction="J5" end="180" vehsPerHour="0.08932305451185707"/>
  <flow id="JF213649" begin="120" fromJunction="J7" toJunction="J6" end="180" vehsPerHour="16.782254581968544"/>
  <flow id="JF213650" begin="120" fromJunction="J7" toJunction="J4" end="180" vehsPerHour="21.88928201817295"/>
  <flow id="JF213651" begin="120" fromJunction="J7" toJunction="J5" end="180" vehsPerHour="38.901063697816326"/>
  <flow id="JF213652" begin="120" fromJunction="J5" toJunction="J6" end="180" vehsPerHour="4.073832877962878"/>
  <flow id="JF213653" begin="120" fromJunction="J5" toJunction="J4" end="180" vehsPerHour="46.99392569982259"/>
  <flow id="JF213654" begin="120" fromJunction="J5" toJunction="J7" end="180" vehsPerHour="63.97809193093706"/>
  <flow id="JF213655" begin="120" fromJunction="J6" toJunction="J0" end="180" vehsPerHour="10.698329714531434"/>
  <flow id="JF213656" begin="120" fromJunction="J6" toJunction="J3" end="180" vehsPerHour="34.78451695298357"/>
  <flow id="JF213657" begin="120" fromJunction="J4" toJunction="J0" end="180" vehsPerHour="4.19591773949275"/>
  <flow id="JF213658" begin="120" fromJunction="J4" toJunction="J3" end="180" vehsPerHour="48.08246080012394"/>
  <flow id="JF213659" begin="120" fromJunction="J7" toJunction="J0" end="180" vehsPerHour="12.674495025068728"/>
  <flow id="JF213660" begin="120" fromJunction="J7" toJunction="J3" end="180" vehsPerHour="45.54135686276981"/>
  <flow id="JF213661" begin="120" fromJunction="J5" toJunction="J0" end="180" vehsPerHour="65.73265288343985"/>
  <flow id="JF213662" begin="120" fromJunction="J5" toJunction="J3" end="180" vehsPerHour="50.68273467015324"/>
  <flow id="JF213663" begin="180" fromJunction="J0" toJunction="J3" end="240" vehsPerHour="45.88275531168926"/>
  <flow id="JF213664" begin="180" fromJunction="J3" toJunction="J0" end="240" vehsPerHour="33.01975218147093"/>
  <flow id="JF213665" begin="180" fromJunction="J0" toJunction="J6" end="240" vehsPerHour="39.684051444952324"/>
  <flow id="JF213666" begin="180" fromJunction="J0" toJunction="J4" end="240" vehsPerHour="108.94278243548622"/>
  <flow id="JF213667" begin="180" fromJunction="J0" toJunction="J7" end="240" vehsPerHour="117.75063030430387"/>
  <flow id="JF213668" begin="180" fromJunction="J0" toJunction="J5" end="240" vehsPerHour="57.085500910700645"/>
  <flow id="JF213669" begin="180" fromJunction="J3" toJunction="J6" end="240" vehsPerHour="43.997184881730306"/>
  <flow id="JF213670" begin="180" fromJunction="J3" toJunction="J4" end="240" vehsPerHour="66.81703899405802"/>
  <flow id="JF213671" begin="180" fromJunction="J3" toJunction="J7" end="240" vehsPerHour="84.81240396120543"/>
  <flow id="JF213672" begin="180" fromJunction="J3" toJunction="J5" end="240" vehsPerHour="62.993620347014605"/>
  <flow id="JF213673" begin="240" fromJunction="J0" toJunction="J3" end="300" vehsPerHour="91.11196253159606"/>
  <flow id="JF213674" begin="240" fromJunction="J3" toJunction="J0" end="300" vehsPerHour="214.01317210976555"/>
  <flow id="JF213675" begin="240" fromJunction="J0" toJunction="J6" end="300" vehsPerHour="103.61230584026293"/>
  <flow id="JF213676" begin="240" fromJunction="J0" toJunction="J4" end="300" vehsPerHour="100.88308887032456"/>
  <flow id="JF213677" begin="240" fromJunction="J0" toJunction="J7" end="300" vehsPerHour="36.776648849876864"/>
  <flow id="JF213678" begin="240" fromJunction="J0" toJunction="J5" end="300" vehsPerHour="67.41842740557924"/>
  <flow id="JF213679" begin="240" fromJunction="J3" toJunction="J6" end="300" vehsPerHour="37.443023741250265"/>
  <flow id="JF213680" begin="240" fromJunction="J3" toJunction="J4" end="300" vehsPerHour="1.0606540741212818"/>
  <flow id="JF213681" begin="240" fromJunction="J3" toJunction="J7" end="300" vehsPerHour="88.20520578928901"/>
  <flow id="JF213682" begin="240" fromJunction="J3" toJunction="J5" end="300" vehsPerHour="122.98574540885886"/>
  <flow id="JF213683" begin="240" fromJunction="J6" toJunction="J4" end="300" vehsPerHour="4.380755376195766"/>
  <flow id="JF213684" begin="240" fromJunction="J6" toJunction="J7" end="300" vehsPerHour="63.33459123021587"/>
  <flow id="JF213685" begin="240" fromJunction="J6" toJunction="J5" end="300" vehsPerHour="29.621693441220295"/>
  <flow id="JF213686" begin="240" fromJunction="J4" toJunction="J6" end="300" vehsPerHour="29.577722963170636"/>
  <flow id="JF213687" begin="240" fromJunction="J4" toJunction="J7" end="300" vehsPerHour="29.4144922811072"/>
  <flow id="JF213688" begin="240" fromJunction="J4" toJunction="J5" end="300" vehsPerHour="55.19292906259133"/>
  <flow id="JF213689" begin="240" fromJunction="J7" toJunction="J6" end="300" vehsPerHour="17.85857990800071"/>
  <flow id="JF213690" begin="240" fromJunction="J7" toJunction="J4" end="300" vehsPerHour="27.022546797422915"/>
  <flow id="JF213691" begin="240" fromJunction="J7" toJunction="J5" end="300" vehsPerHour="14.213899088477326"/>
  <flow id="JF213692" begin="240" fromJunction="J5" toJunction="J6" end="300" vehsPerHour="33.74256992022545"/>
  <flow id="JF213693" begin="240" fromJunction="J5" toJunction="J4" end="300" vehsPerHour="11.444142084947732"/>
  <flow id="JF213694" begin="240" fromJunction="J5" toJunction="J7" end="300" vehsPerHour="28.65204554286759"/>
  <flow id="JF213695" begin="240" fromJunction="J6" toJunction="J0" end="300" vehsPerHour="38.82506956671064"/>
  <flow id="JF213696" begin="240" fromJunction="J6" toJunction="J3" end="300" vehsPerHour="64.82012084074402"/>
  <flow id="JF213697" begin="240" fromJunction="J4" toJunction="J0" end="300" vehsPerHour="11.270989750808996"/>
  <flow id="JF213698" begin="240" fromJunction="J4" toJunction="J3" end="300" vehsPerHour="42.447669304930855"/>
  <flow id="JF213699" begin="240" fromJunction="J7" toJunction="J0" end="300" vehsPerHour="0.6940458723373971"/>
  <flow id="JF213700" begin="240" fromJunction="J7" toJunction="J3" end="300" vehsPerHour="49.52432490959312"/>
  <flow id="JF213701" begin="240" fromJunction="J5" toJunction="J0" end="300" vehsPerHour="24.46429348256917"/>
  <flow id="JF213702" begin="240" fromJunction="J5" toJunction="J3" end="300" vehsPerHour="11.501351395568333"/>
  <flow id="JF213703" begin="300" fromJunction="J0" toJunction="J3" end="360" vehsPerHour="439.1221241529366"/>
  <flow id="JF213704" begin="300" fromJunction="J3" toJunction="J0" end="360" vehsPerHour="428.21925980988215"/>
  <flow id="JF213705" begin="300" fromJunction="J0" toJunction="J6" end="360" vehsPerHour="100.65143576089035"/>
  <flow id="JF213706" begin="300" fromJunction="J0" toJunction="J4" end="360" vehsPerHour="7.720946872772722"/>
  <flow id="JF213707" begin="300" fromJunction="J0" toJunction="J7" end="360" vehsPerHour="71.64874247411542"/>
  <flow id="JF213708" begin="300" fromJunction="J0" toJunction="J5" end="360" vehsPerHour="34.92951833774379"/>
  <flow id="JF213709" begin="300" fromJunction="J3" toJunction="J6" end="360" vehsPerHour="7.937914358399225"/>
  <flow id="JF213710" begin="300" fromJunction="J3" toJunction="J4" end="360" vehsPerHour="105.14046924958441"/>
  <flow id="JF213711" begin="300" fromJunction="J3" toJunction="J7" end="360" vehsPerHour="84.07146365387858"/>
  <flow id="JF213712" begin="300" fromJunction="J3" toJunction="J5" end="360" vehsPerHour="31.33785485149755"/>
  <flow id="JF213713" begin="300" fromJunction="J6" toJunction="J4" end="360" vehsPerHour="61.26207254813098"/>
  <flow id="JF213714" begin="300" fromJunction="J6" toJunction="J7" end="360" vehsPerHour="18.28749433837835"/>
  <flow id="JF213715" begin="300" fromJunction="J6" toJunction="J5" end="360" vehsPerHour="49.684684413000575"/>
  <flow id="JF213716" begin="300" fromJunction="J4" toJunction="J6" end="360" vehsPerHour="61.557132370822025"/>
  <flow id="JF213717" begin="300" fromJunction="J4" toJunction="J7" end="360" vehsPerHour="59.21099264813466"/>
  <flow id="JF213718" begin="300" fromJunction="J4" toJunction="J5" end="360" vehsPerHour="48.91211227502607"/>
  <flow id="JF213719" begin="300" fromJunction="J7" toJunction="J6" end="360" vehsPerHour="9.52511987527514"/>
  <flow id="JF213720" begin="300" fromJunction="J7" toJunction="J4" end="360" vehsPerHour="54.81915399285814"/>
  <flow id="JF213721" begin="300" fromJunction="J7" toJunction="J5" end="360" vehsPerHour="8.125146594809879"/>
  <flow id="JF213722" begin="300" fromJunction="J5" toJunction="J6" end="360" vehsPerHour="10.879086624647854"/>
  <flow id="JF213723" begin="300" fromJunction="J5" toJunction="J4" end="360" vehsPerHour="67.20085020568"/>
  <flow id="JF213724" begin="300" fromJunction="J5" toJunction="J7" end="360" vehsPerHour="5.837643887063711"/>
  <flow id="JF213725" begin="300" fromJunction="J6" toJunction="J0" end="360" vehsPerHour="52.683523755110734"/>
  <flow id="JF213726" begin="300" fromJunction="J6" toJunction="J3" end="360" vehsPerHour="36.158233661060876"/>
  <flow id="JF213727" begin="300" fromJunction="J4" toJunction="J0" end="360" vehsPerHour="48.02807999710685"/>
  <flow id="JF213728" begin="300" fromJunction="J4" toJunction="J3" end="360" vehsPerHour="40.370572296801384"/>
  <flow id="JF213729" begin="300" fromJunction="J7" toJunction="J0" end="360" vehsPerHour="18.998479319729082"/>
  <flow id="JF213730" begin="300" fromJunction="J7" toJunction="J3" end="360" vehsPerHour="64.86965741166466"/>
  <flow id="JF213731" begin="300" fromJunction="J5" toJunction="J0" end="360" vehsPerHour="38.18911978491081"/>
  <flow id="JF213732" begin="300" fromJunction="J5" toJunction="J3" end="360" vehsPerHour="62.332701958938785"/>
  <flow id="JF213733" begin="360" fromJunction="J0" toJunction="J3" end="420" vehsPerHour="104.24209567640978"/>
  <flow id="JF213734" begin="360" fromJunction="J3" toJunction="J0" end="420" vehsPerHour="273.720338271806"/>
  <flow id="JF213735" begin="360" fromJunction="J0" toJunction="J6" end="420" vehsPerHour="111.24153331982531"/>
  <flow id="JF213736" begin="360" fromJunction="J0" toJunction="J4" end="420" vehsPerHour="4.6065117656906995"/>
  <flow id="JF213737" begin="360" fromJunction="J0" toJunction="J7" end="420" vehsPerHour="31.170484424817808"/>
  <flow id="JF213738" begin="360" fromJunction="J0" toJunction="J5" end="420" vehsPerHour="69.71491804877517"/>
  <flow id="JF213739" begin="360" fromJunction="J3" toJunction="J6" end="420" vehsPerHour="15.16894162591147"/>
  <flow id="JF213740" begin="360" fromJunction="J3" toJunction="J4" end="420" vehsPerHour="6.505647414734688"/>
  <flow id="JF213741" begin="360" fromJunction="J3" toJunction="J7" end="420" vehsPerHour="136.22244957353047"/>
  <flow id="JF213742" begin="360" fromJunction="J3" toJunction="J5" end="420" vehsPerHour="134.9704891667174"/>
  <flow id="JF213743" begin="360" fromJunction="J6" toJunction="J4" end="420" vehsPerHour="30.834732101877403"/>
  <flow id="JF213744" begin="360" fromJunction="J6" toJunction="J7" end="420" vehsPerHour="24.98675463965371"/>
  <flow id="JF213745" begin="360" fromJunction="J6" toJunction="J5" end="420" vehsPerHour="9.524695828888975"/>
  <flow id="JF213746" begin="360" fromJunction="J4" toJunction="J6" end="420" vehsPerHour="29.976540007127625"/>
  <flow id="JF213747" begin="360" fromJunction="J4" toJunction="J7" end="420" vehsPerHour="56.15294234076839"/>
  <flow id="JF213748" begin="360" fromJunction="J4" toJunction="J5" end="420" vehsPerHour="5.224196748211131"/>
  <flow id="JF213749" begin="360" fromJunction="J7" toJunction="J6" end="420" vehsPerHour="60.504857256328634"/>
  <flow id="JF213750" begin="360" fromJunction="J7" toJunction="J4" end="420" vehsPerHour="47.810724521867286"/>
  <flow id="JF213751" begin="360" fromJunction="J7" toJunction="J5" end="420" vehsPerHour="55.47967502115373"/>
  <flow id="JF213752" begin="360" fromJunction="J5" toJunction="J6" end="420" vehsPerHour="20.54215997365387"/>
  <flow id="JF213753" begin="360" fromJunction="J5" toJunction="J4" end="420" vehsPerHour="47.46255109914715"/>
  <flow id="JF213754" begin="360" fromJunction="J5" toJunction="J7" end="420" vehsPerHour="59.14599733681663"/>
  <flow id="JF213755" begin="360" fromJunction="J6" toJunction="J0" end="420" vehsPerHour="46.865945995672504"/>
  <flow id="JF213756" begin="360" fromJunction="J6" toJunction="J3" end="420" vehsPerHour="67.37422464305524"/>
  <flow id="JF213757" begin="360" fromJunction="J4" toJunction="J0" end="420" vehsPerHour="9.140856784121015"/>
  <flow id="JF213758" begin="360" fromJunction="J4" toJunction="J3" end="420" vehsPerHour="9.877446582135224"/>
  <flow id="JF213759" begin="360" fromJunction="J7" toJunction="J0" end="420" vehsPerHour="4.959881125660778"/>
  <flow id="JF213760" begin="360" fromJunction="J7" toJunction="J3" end="420" vehsPerHour="57.30254076585204"/>
  <flow id="JF213761" begin="360" fromJunction="J5" toJunction="J0" end="420" vehsPerHour="19.237656967996294"/>
  <flow id="JF213762" begin="360" fromJunction="J5" toJunction="J3" end="420" vehsPerHour="5.993756075873025"/>
  <flow id="JF213763" begin="420" fromJunction="J0" toJunction="J3" end="480" vehsPerHour="366.8007839819209"/>
  <flow id="JF213764" begin="420" fromJunction="J3" toJunction="J0" end="480" vehsPerHour="427.23363957028937"/>
  <flow id="JF213765" begin="420" fromJunction="J0" toJunction="J6" end="480" vehsPerHour="28.279472733525044"/>
  <flow id="JF213766" begin="420" fromJunction="J0" toJunction="J4" end="480" vehsPerHour="76.8545214676181"/>
  <flow id="JF213767" begin="420" fromJunction="J0" toJunction="J7" end="480" vehsPerHour="111.9334665793778"/>
  <flow id="JF213768" begin="420" fromJunction="J0" toJunction="J5" end="480" vehsPerHour="11.643844165928337"/>
  <flow id="JF213769" begin="420" fromJunction="J3" toJunction="J6" end="480" vehsPerHour="51.77631361436228"/>
  <flow id="JF213770" begin="420" fromJunction="J3" toJunction="J4" end="480" vehsPerHour="69.53424897412644"/>
  <flow id="JF213771" begin="420" fromJunction="J3" toJunction="J7" end="480" vehsPerHour="41.03940314556564"/>
  <flow id="JF213772" begin="420" fromJunction="J3" toJunction="J5" end="480" vehsPerHour="100.15031249197159"/>
  <flow id="JF213773" begin="480" fromJunction="J0" toJunction="J3" end="540" vehsPerHour="425.6708207447373"/>
  <flow id="JF213774" begin="480" fromJunction="J3" toJunction="J0" end="540" vehsPerHour="199.77927458801412"/>
  <flow id="JF213775" begin="480" fromJunction="J0" toJunction="J6" end="540" vehsPerHour="17.044039161255355"/>
  <flow id="JF213776" begin="480" fromJunction="J0" toJunction="J4" end="540" vehsPerHour="130.82016240522523"/>
  <flow id="JF213777" begin="480" fromJunction="J0" toJunction="J7" end="540" vehsPerHour="75.89922835729386"/>
  <flow id="JF213778" begin="480" fromJunction="J0" toJunction="J5" end="540" vehsPerHour="56.536847323084686"/>
  <flow id="JF213779" begin="480" fromJunction="J3" toJunction="J6" end="540" vehsPerHour="47.10165425068868"/>
  <flow id="JF213780" begin="480" fromJunction="J3" toJunction="J4" end="540" vehsPerHour="85.31811722588006"/>
  <flow id="JF213781" begin="480" fromJunction="J3" toJunction="J7" end="540" vehsPerHour="59.792416390170445"/>
  <flow id="JF213782" begin="480" fromJunction="J3" toJunction="J5" end="540" vehsPerHour="130.41543210037923"/>
  <flow id="JF213783" begin="540" fromJunction="J0" toJunction="J3" end="600" vehsPerHour="101.34056816667233"/>
  <flow id="JF213784" begin="540" fromJunction="J3" toJunction="J0" end="600" vehsPerHour="266.26001557237237"/>
  <flow id="JF213785" begin="540" fromJunction="J0" toJunction="J6" end="600" vehsPerHour="134.11195149578631"/>
  <flow id="JF213786" begin="540" fromJunction="J0" toJunction="J4" end="600" vehsPerHour="10.491150503369946"/>
  <flow id="JF213787" begin="540" fromJunction="J0" toJunction="J7" end="600" vehsPerHour="50.367947180099115"/>
  <flow id="JF213788" begin="540" fromJunction="J0" toJunction="J5" end="600" vehsPerHour="92.6496674148957"/>
  <flow id="JF213789" begin="540" fromJunction="J3" toJunction="J6" end="600" vehsPerHour="45.6075577682836"/>
  <flow id="JF213790" begin="540" fromJunction="J3" toJunction="J4" end="600" vehsPerHour="54.15862638354518"/>
  <flow id="JF213791" begin="540" fromJunction="J3" toJunction="J7" end="600" vehsPerHour="25.936226976288413"/>
  <flow id="JF213792" begin="540" fromJunction="J3" toJunction="J5" end="600" vehsPerHour="32.51393130327454"/>
  <flow id="JF213793" begin="540" fromJunction="J6" toJunction="J4" end="600" vehsPerHour="53.786292334568415"/>
  <flow id="JF213794" begin="540" fromJunction="J6" toJunction="J7" end="600" vehsPerHour="28.523525432441485"/>
  <flow id="JF213795" begin="540" fromJunction="J6" toJunction="J5" end="600" vehsPerHour="36.76209607543551"/>
  <flow id="JF213796" begin="540" fromJunction="J4" toJunction="J6" end="600" vehsPerHour="38.66450105384197"/>
  <flow id="JF213797" begin="540" fromJunction="J4" toJunction="J7" end="600" vehsPerHour="49.2387317297142"/>
  <flow id="JF213798" begin="540" fromJunction="J4" toJunction="J5" end="600" vehsPerHour="17.18793620409092"/>
  <flow id="JF213799" begin="540" fromJunction="J7" toJunction="J6" end="600" vehsPerHour="42.36720399827455"/>
  <flow id="JF213800" begin="540" fromJunction="J7" toJunction="J4" end="600" vehsPerHour="29.06760678779143"/>
  <flow id="JF213801" begin="540" fromJunction="J7" toJunction="J5" end="600" vehsPerHour="3.2074605384227834"/>
  <flow id="JF213802" begin="540" fromJunction="J5" toJunction="J6" end="600" vehsPerHour="57.24013299658056"/>
  <flow id="JF213803" begin="540" fromJunction="J5" toJunction="J4" end="600" vehsPerHour="64.18247035135772"/>
  <flow id="JF213804" begin="540" fromJunction="J5" toJunction="J7" end="600" vehsPerHour="5.76082171155078"/>
  <flow id="JF213805" begin="540" fromJunction="J6" toJunction="J0" end="600" vehsPerHour="39.55180953822831"/>
  <flow id="JF213806" begin="540" fromJunction="J6" toJunction="J3" end="600" vehsPerHour="7.720284679239745"/>
  <flow id="JF213807" begin="540" fromJunction="J4" toJunction="J0" end="600" vehsPerHour="45.0730034961325"/>
  <flow id="JF213808" begin="540" fromJunction="J4" toJunction="J3" end="600" vehsPerHour="36.491782789112804"/>
  <flow id="JF213809" begin="540" fromJunction="J7" toJunction="J0" end="600" vehsPerHour="42.88770737560193"/>
  <flow id="JF213810" begin="540" fromJunction="J7" toJunction="J3" end="600" vehsPerHour="12.267808023399247"/>
  <flow id="JF213811" begin="540" fromJunction="J5" toJunction="J0" end="600" vehsPerHour="35.145505347430245"/>
  <flow id="JF213812" begin="540" fromJunction="J5" toJunction="J3" end="600" vehsPerHour="36.628009456930876"/>
  <flow id="JF213813" begin="600" fromJunction="J0" toJunction="J3" end="660" vehsPerHour="32.52978408204035"/>
  <flow id="JF213814" begin="600" fromJunction="J3" toJunction="J0" end="660" vehsPerHour="260.7060948499013"/>
  <flow id="JF213815" begin="600" fromJunction="J0" toJunction="J6" end="660" vehsPerHour="52.70259656162758"/>
  <flow id="JF213816" begin="600" fromJunction="J0" toJunction="J4" end="660" vehsPerHour="130.99023788651226"/>
  <flow id="JF213817" begin="600" fromJunction="J0" toJunction="J7" end="660" vehsPerHour="71.0365605890649"/>
  <flow id="JF213818" begin="600" fromJunction="J0" toJunction="J5" end="660" vehsPerHour="62.70787145863006"/>
  <flow id="JF213819" begin="600" fromJunction="J3" toJunction="J6" end="660" vehsPerHour="71.02069154063544"/>
  <flow id="JF213820" begin="600" fromJunction="J3" toJunction="J4" end="660" vehsPerHour="61.909953533172235"/>
  <flow id="JF213821" begin="600" fromJunction="J3" toJunction="J7" end="660" vehsPerHour="54.626958776901844"/>
  <flow id="JF213822" begin="600" fromJunction="J3" toJunction="J5" end="660" vehsPerHour="123.68169762532321"/>
  <flow id="JF213823" begin="660" fromJunction="J0" toJunction="J3" end="720" vehsPerHour="34.68199725460147"/>
  <flow id="JF213824" begin="660" fromJunction="J3" toJunction="J0" end="720" vehsPerHour="486.5177524010059"/>
  <flow id="JF213825" begin="660" fromJunction="J0" toJunction="J6" end="720" vehsPerHour="39.49842843819899"/>
  <flow id="JF213826" begin="660" fromJunction="J0" toJunction="J4" end="720" vehsPerHour="88.14883769213445"/>
  <flow id="JF213827" begin="660" fromJunction="J0" toJunction="J7" end="720" vehsPerHour="119.45146542519558"/>
  <flow id="JF213828" begin="660" fromJunction="J0" toJunction="J5" end="720" vehsPerHour="84.96345057093619"/>
  <flow id="JF213829" begin="660" fromJunction="J3" toJunction="J6" end="720" vehsPerHour="41.874882049633804"/>
  <flow id="JF213830" begin="660" fromJunction="J3" toJunction="J4" end="720" vehsPerHour="89.56481801413365"/>
  <flow id="JF213831" begin="660" fromJunction="J3" toJunction="J7" end="720" vehsPerHour="121.90047325863468"/>
  <flow id="JF213832" begin="660" fromJunction="J3" toJunction="J5" end="720" vehsPerHour="128.5597757022718"/>
  <flow id="JF213833" begin="660" fromJunction="J6" toJunction="J4" end="720" vehsPerHour="1.5943106962908866"/>
  <flow id="JF213834" begin="660" fromJunction="J6" toJunction="J7" end="720" vehsPerHour="59.49537023841188"/>
  <flow id="JF213835" begin="660" fromJunction="J6" toJunction="J5" end="720" vehsPerHour="38.684400997793944"/>
  <flow id="JF213836" begin="660" fromJunction="J4" toJunction="J6" end="720" vehsPerHour="19.196676393747037"/>
  <flow id="JF213837" begin="660" fromJunction="J4" toJunction="J7" end="720" vehsPerHour="52.55663575188995"/>
  <flow id="JF213838" begin="660" fromJunction="J4" toJunction="J5" end="720" vehsPerHour="0.17574483677812516"/>