<?xml version="1.0" encoding="UTF-8"?>
<routes xmlns:xsi="http://www.w3.org/2001/XMLSchema-instance" xsi:noNamespaceSchemaLocation="http://sumo.dlr.de/xsd/routes_file.xsd">
  <flow id="JF219833" begin="0" fromJunction="J0" toJunction="J3" end="60" vehsPerHour="524.5723754015133"/>
  <flow id="JF219834" begin="0" fromJunction="J3" toJunction="J0" end="60" vehsPerHour="351.98663598556783"/>
  <flow id="JF219835" begin="0" fromJunction="J0" toJunction="J6" end="60" vehsPerHour="6.826823034008211"/>
  <flow id="JF219836" begin="0" fromJunction="J0" toJunction="J4" end="60" vehsPerHour="77.87677846852829"/>
  <flow id="JF219837" begin="0" fromJunction="J0" toJunction="J7" end="60" vehsPerHour="44.28099968641661"/>
  <flow id="JF219838" begin="0" fromJunction="J0" toJunction="J5" end="60" vehsPerHour="45.736746093590206"/>
  <flow id="JF219839" begin="0" fromJunction="J3" toJunction="J6" end="60" vehsPerHour="27.855386201569623"/>
  <flow id="JF219840" begin="0" fromJunction="J3" toJunction="J4" end="60" vehsPerHour="92.42245039313961"/>
  <flow id="JF219841" begin="0" fromJunction="J3" toJunction="J7" end="60" vehsPerHour="124.61389363963723"/>
  <flow id="JF219842" begin="0" fromJunction="J3" toJunction="J5" end="60" vehsPerHour="121.89523892333087"/>
  <flow id="JF219843" begin="0" fromJunction="J6" toJunction="J4" end="60" vehsPerHour="60.21736056696256"/>
  <flow id="JF219844" begin="0" fromJunction="J6" toJunction="J7" end="60" vehsPerHour="57.352418961960886"/>
  <flow id="JF219845" begin="0" fromJunction="J6" toJunction="J5" end="60" vehsPerHour="4.502023249159393"/>
  <flow id="JF219846" begin="0" fromJunction="J4" toJunction="J6" end="60" vehsPerHour="30.757663166659334"/>
  <flow id="JF219847" begin="0" fromJunction="J4" toJunction="J7" end="60" vehsPerHour="10.02141666716609"/>
  <flow id="JF219848" begin="0" fromJunction="J4" toJunction="J5" end="60" vehsPerHour="58.07589145080303"/>
  <flow id="JF219849" begin="0" fromJunction="J7" toJunction="J6" end="60" vehsPerHour="42.18779085400954"/>
  <flow id="JF219850" begin="0" fromJunction="J7" toJunction="J4" end="60" vehsPerHour="58.79395171299874"/>
  <flow id="JF219851" begin="0" fromJunction="J7" toJunction="J5" end="60" vehsPerHour="28.20573392902738"/>
  <flow id="JF219852" begin="0" fromJunction="J5" toJunction="J6" end="60" vehsPerHour="58.91544248591215"/>
  <flow id="JF219853" begin="0" fromJunction="J5" toJunction="J4" end="60" vehsPerHour="44.35854405949637"/>
  <flow id="JF219854" begin="0" fromJunction="J5" toJunction="J7" end="60" vehsPerHour="36.8176729420914"/>
  <flow id="JF219855" begin="0" fromJunction="J6" toJunction="J0" end="60" vehsPerHour="6.767135628946765"/>
  <flow id="JF219856" begin="0" fromJunction="J6" toJunction="J3" end="60" vehsPerHour="52.885843507176396"/>
  <flow id="JF219857" begin="0" fromJunction="J4" toJunction="J0" end="60" vehsPerHour="51.41171869415886"/>
  <flow id="JF219858" begin="0" fromJunction="J4" toJunction="J3" end="60" vehsPerHour="49.155709383439024"/>
  <flow id="JF219859" begin="0" fromJunction="J7" toJunction="J0" end="60" vehsPerHour="37.09381637835755"/>
  <flow id="JF219860" begin="0" fromJunction="J7" toJunction="J3" end="60" vehsPerHour="3.378047993581393"/>
  <flow id="JF219861" begin="0" fromJunction="J5" toJunction="J0" end="60" vehsPerHour="20.907322200697276"/>
  <flow id="JF219862" begin="0" fromJunction="J5" toJunction="J3" end="60" vehsPerHour="34.294234257887474"/>
  <flow id="JF219863" begin="60" fromJunction="J0" toJunction="J3" end="120" vehsPerHour="255.24770554693097"/>
  <flow id="JF219864" begin="60" fromJunction="J3" toJunction="J0" end="120" vehsPerHour="496.74038360703753"/>
  <flow id="JF219865" begin="60" fromJunction="J0" toJunction="J6" end="120" vehsPerHour="91.04899002047502"/>
  <flow id="JF219866" begin="60" fromJunction="J0" toJunction="J4" end="120" vehsPerHour="112.88024173197445"/>
  <flow id="JF219867" begin="60" fromJunction="J0" toJunction="J7" end="120" vehsPerHour="92.63273023503139"/>
  <flow id="JF219868" begin="60" fromJunction="J0" toJunction="J5" end="120" vehsPerHour="112.89970343518186"/>
  <flow id="JF219869" begin="60" fromJunction="J3" toJunction="J6" end="120" vehsPerHour="102.17743379235893"/>
  <flow id="JF219870" begin="60" fromJunction="J3" toJunction="J4" end="120" vehsPerHour="95.42769562354214"/>
  <flow id="JF219871" begin="60" fromJunction="J3" toJunction="J7" end="120" vehsPerHour="22.35063693916518"/>
  <flow id="JF219872" begin="60" fromJunction="J3" toJunction="J5" end="120" vehsPerHour="108.34030401286905"/>
  <flow id="JF219873" begin="60" fromJunction="J6" toJunction="J4" end="120" vehsPerHour="44.43071513921995"/>
  <flow id="JF219874" begin="60" fromJunction="J6" toJunction="J7" end="120" vehsPerHour="30.42533681222544"/>
  <flow id="JF219875" begin="60" fromJunction="J6" toJunction="J5" end="120" vehsPerHour="15.864912688231703"/>
  <flow id="JF219876" begin="60" fromJunction="J4" toJunction="J6" end="120" vehsPerHour="16.895161244863846"/>
  <flow id="JF219877" begin="60" fromJunction="J4" toJunction="J7" end="120" vehsPerHour="6.816822480217235"/>
  <flow id="JF219878" begin="60" fromJunction="J4" toJunction="J5" end="120" vehsPerHour="36.5800314062871"/>
  <flow id="JF219879" begin="60" fromJunction="J7" toJunction="J6" end="120" vehsPerHour="48.52288309833378"/>
  <flow id="JF219880" begin="60" fromJunction="J7" toJunction="J4" end="120" vehsPerHour="19.844857925769517"/>
  <flow id="JF219881" begin="60" fromJunction="J7" toJunction="J5" end="120" vehsPerHour="43.666021864189"/>
  <flow id="JF219882" begin="60" fromJunction="J5" toJunction="J6" end="120" vehsPerHour="48.17775649795541"/>
  <flow id="JF219883" begin="60" fromJunction="J5" toJunction="J4" end="120" vehsPerHour="18.56787260727157"/>
  <flow id="JF219884" begin="60" fromJunction="J5" toJunction="J7" end="120" vehsPerHour="34.80137926600113"/>
  <flow id="JF219885" begin="60" fromJunction="J6" toJunction="J0" end="120" vehsPerHour="37.6483221271183"/>
  <flow id="JF219886" begin="60" fromJunction="J6" toJunction="J3" end="120" vehsPerHour="53.439937091668504"/>
  <flow id="JF219887" begin="60" fromJunction="J4" toJunction="J0" end="120" vehsPerHour="2.8603685924596935"/>
  <flow id="JF219888" begin="60" fromJunction="J4" toJunction="J3" end="120" vehsPerHour="60.4364646933188"/>
  <flow id="JF219889" begin="60" fromJunction="J7" toJunction="J0" end="120" vehsPerHour="46.47611065033481"/>
  <flow id="JF219890" begin="60" fromJunction="J7" toJunction="J3" end="120" vehsPerHour="23.704768742919004"/>
  <flow id="JF219891" begin="60" fromJunction="J5" toJunction="J0" end="120" vehsPerHour="13.280352748981604"/>
  <flow id="JF219892" begin="60" fromJunction="J5" toJunction="J3" end="120" vehsPerHour="39.501983956028326"/>
  <flow id="JF219893" begin="120" fromJunction="J0" toJunction="J3" end="180" vehsPerHour="501.7152270297624"/>
  <flow id="JF219894" begin="120" fromJunction="J3" toJunction="J0" end="180" vehsPerHour="395.56615306423436"/>
  <flow id="JF219895" begin="120" fromJunction="J0" toJunction="J6" end="180" vehsPerHour="0.5183238730089771"/>
  <flow id="JF219896" begin="120" fromJunction="J0" toJunction="J4" end="180" vehsPerHour="101.12527744486653"/>
  <flow id="JF219897" begin="120" fromJunction="J0" toJunction="J7" end="180" vehsPerHour="32.3142295248243"/>
  <flow id="JF219898" begin="120" fromJunction="J0" toJunction="J5" end="180" vehsPerHour="119.23200575180148"/>
  <flow id="JF219899" begin="120" fromJunction="J3" toJunction="J6" end="180" vehsPerHour="133.88735347497305"/>
  <flow id="JF219900" begin="120" fromJunction="J3" toJunction="J4" end="180" vehsPerHour="33.585632004550746"/>
  <flow id="JF219901" begin="120" fromJunction="J3" toJunction="J7" end="180" vehsPerHour="102.35590390499007"/>
  <flow id="JF219902" begin="120" fromJunction="J3" toJunction="J5" end="180" vehsPerHour="42.70984819367291"/>
  <flow id="JF219903" begin="180" fromJunction="J0" toJunction="J3" end="240" vehsPerHour="181.26276295704358"/>
  <flow id="JF219904" begin="180" fromJunction="J3" toJunction="J0" end="240" vehsPerHour="70.19530724395253"/>
  <flow id="JF219905" begin="180" fromJunction="J0" toJunction="J6" end="240" vehsPerHour="128.68265541614417"/>
  <flow id="JF219906" begin="180" fromJunction="J0" toJunction="J4" end="240" vehsPerHour="70.80064674860692"/>
  <flow id="JF219907" begin="180" fromJunction="J0" toJunction="J7" end="240" vehsPerHour="74.75223855539538"/>
  <flow id="JF219908" begin="180" fromJunction="J0" toJunction="J5" end="240" vehsPerHour="0.6971053074709245"/>
  <flow id="JF219909" begin="180" fromJunction="J3" toJunction="J6" end="240" vehsPerHour="42.42920059757757"/>
  <flow id="JF219910" begin="180" fromJunction="J3" toJunction="J4" end="240" vehsPerHour="134.93939844843007"/>
  <flow id="JF219911" begin="180" fromJunction="J3" toJunction="J7" end="240" vehsPerHour="103.68291386983458"/>
  <flow id="JF219912" begin="180" fromJunction="J3" toJunction="J5" end="240" vehsPerHour="49.990870534922436"/>
  <flow id="JF219913" begin="180" fromJunction="J6" toJunction="J4" end="240" vehsPerHour="59.392613554324264"/>
  <flow id="JF219914" begin="180" fromJunction="J6" toJunction="J7" end="240" vehsPerHour="37.41322986466222"/>
  <flow id="JF219915" begin="180" fromJunction="J6" toJunction="J5" end="240" vehsPerHour="27.870117358660288"/>
  <flow id="JF219916" begin="180" fromJunction="J4" toJunction="J6" end="240" vehsPerHour="62.6559364120608"/>
  <flow id="JF219917" begin="180" fromJunction="J4" toJunction="J7" end="240" vehsPerHour="64.29408994841219"/>
  <flow id="JF219918" begin="180" fromJunction="J4" toJunction="J5" end="240" vehsPerHour="14.54581036695751"/>
  <flow id="JF219919" begin="180" fromJunction="J7" toJunction="J6" end="240" vehsPerHour="59.07369432523153"/>
  <flow id="JF219920" begin="180" fromJunction="J7" toJunction="J4" end="240" vehsPerHour="67.84622491925893"/>
  <flow id="JF219921" begin="180" fromJunction="J7" toJunction="J5" end="240" vehsPerHour="55.38470934907811"/>
  <flow id="JF219922" begin="180" fromJunction="J5" toJunction="J6" end="240" vehsPerHour="49.85812846804253"/>
  <flow id="JF219923" begin="180" fromJunction="J5" toJunction="J4" end="240" vehsPerHour="12.356173434299649"/>
  <flow id="JF219924" begin="180" fromJunction="J5" toJunction="J7" end="240" vehsPerHour="34.606208032149986"/>
  <flow id="JF219925" begin="180" fromJunction="J6" toJunction="J0" end="240" vehsPerHour="14.27972194172997"/>
  <flow id="JF219926" begin="180" fromJunction="J6" toJunction="J3" end="240" vehsPerHour="14.555888523834236"/>
  <flow id="JF219927" begin="180" fromJunction="J4" toJunction="J0" end="240" vehsPerHour="6.490340669055518"/>
  <flow id="JF219928" begin="180" fromJunction="J4" toJunction="J3" end="240" vehsPerHour="39.06055417091561"/>
  <flow id="JF219929" begin="180" fromJunction="J7" toJunction="J0" end="240" vehsPerHour="30.53752805850776"/>
  <flow id="JF219930" begin="180" fromJunction="J7" toJunction="J3" end="240" vehsPerHour="22.265235934536193"/>
  <flow id="JF219931" begin="180" fromJunction="J5" toJunction="J0" end="240" vehsPerHour="58.21517101299747"/>
  <flow id="JF219932" begin="180" fromJunction="J5" toJunction="J3" end="240" vehsPerHour="29.429442155672913"/>
  <flow id="JF219933" begin="240" fromJunction="J0" toJunction="J3" end="300" vehsPerHour="190.5092145176801"/>
  <flow id="JF219934" begin="240" fromJunction="J3" toJunction="J0" end="300" vehsPerHour="253.78783412569499"/>
  <flow id="JF219935" begin="240" fromJunction="J0" toJunction="J6" end="300" vehsPerHour="85.49202133765436"/>
  <flow id="JF219936" begin="240" fromJunction="J0" toJunction="J4" end="300" vehsPerHour="69.09915397749089"/>
  <flow id="JF219937" begin="240" fromJunction="J0" toJunction="J7" end="300" vehsPerHour="7.975723982012921"/>
  <flow id="JF219938" begin="240" fromJunction="J0" toJunction="J5" end="300" vehsPerHour="130.0287788987386"/>
  <flow id="JF219939" begin="240" fromJunction="J3" toJunction="J6" end="300" vehsPerHour="12.72675646313656"/>
  <flow id="JF219940" begin="240" fromJunction="J3" toJunction="J4" end="300" vehsPerHour="87.73007314200805"/>
  <flow id="JF219941" begin="240" fromJunction="J3" toJunction="J7" end="300" vehsPerHour="125.78989543758584"/>
  <flow id="JF219942" begin="240" fromJunction="J3" toJunction="J5" end="300" vehsPerHour="8.256936311470692"/>
  <flow id="JF219943" begin="240" fromJunction="J6" toJunction="J4" end="300" vehsPerHour="53.33873948431098"/>
  <flow id="JF219944" begin="240" fromJunction="J6" toJunction="J7" end="300" vehsPerHour="58.74913253932796"/>
  <flow id="JF219945" begin="240" fromJunction="J6" toJunction="J5" end="300" vehsPerHour="56.1556798373447"/>
  <flow id="JF219946" begin="240" fromJunction="J4" toJunction="J6" end="300" vehsPerHour="63.731410438377395"/>
  <flow id="JF219947" begin="240" fromJunction="J4" toJunction="J7" end="300" vehsPerHour="15.008853189378447"/>
  <flow id="JF219948" begin="240" fromJunction="J4" toJunction="J5" end="300" vehsPerHour="21.514275828565417"/>
  <flow id="JF219949" begin="240" fromJunction="J7" toJunction="J6" end="300" vehsPerHour="59.63512733529732"/>
  <flow id="JF219950" begin="240" fromJunction="J7" toJunction="J4" end="300" vehsPerHour="42.33419908639779"/>
  <flow id="JF219951" begin="240" fromJunction="J7" toJunction="J5" end="300" vehsPerHour="12.993133398024877"/>
  <flow id="JF219952" begin="240" fromJunction="J5" toJunction="J6" end="300" vehsPerHour="51.616721808799284"/>
  <flow id="JF219953" begin="240" fromJunction="J5" toJunction="J4" end="300" vehsPerHour="48.97142577386587"/>
  <flow id="JF219954" begin="240" fromJunction="J5" toJunction="J7" end="300" vehsPerHour="29.868370258626328"/>
  <flow id="JF219955" begin="240" fromJunction="J6" toJunction="J0" end="300" vehsPerHour="10.334105414091445"/>
  <flow id="JF219956" begin="240" fromJunction="J6" toJunction="J3" end="300" vehsPerHour="68.35297064386683"/>
  <flow id="JF219957" begin="240" fromJunction="J4" toJunction="J0" end="300" vehsPerHour="16.9111291956223"/>
  <flow id="JF219958" begin="240" fromJunction="J4" toJunction="J3" end="300" vehsPerHour="27.774473266208943"/>
  <flow id="JF219959" begin="240" fromJunction="J7" toJunction="J0" end="300" vehsPerHour="27.973417220424928"/>
  <flow id="JF219960" begin="240" fromJunction="J7" toJunction="J3" end="300" vehsPerHour="54.035870416611296"/>
  <flow id="JF219961" begin="240" fromJunction="J5" toJunction="J0" end="300" vehsPerHour="61.55624483041942"/>
  <flow id="JF219962" begin="240" fromJunction="J5" toJunction="J3" end="300" vehsPerHour="39.83261955275589"/>
  <flow id="JF219963" begin="300" fromJunction="J0" toJunction="J3" end="360" vehsPerHour="29.529916558573653"/>
  <flow id="JF219964" begin="300" fromJunction="J3" toJunction="J0" end="360" vehsPerHour="239.1683603555131"/>
  <flow id="JF219965" begin="300" fromJunction="J0" toJunction="J6" end="360" vehsPerHour="102.57395117006818"/>
  <flow id="JF219966" begin="300" fromJunction="J0" toJunction="J4" end="360" vehsPerHour="16.225866172545544"/>
  <flow id="JF219967" begin="300" fromJunction="J0" toJunction="J7" end="360" vehsPerHour="97.50137598734314"/>
  <flow id="JF219968" begin="300" fromJunction="J0" toJunction="J5" end="360" vehsPerHour="129.51179148469365"/>
  <flow id="JF219969" begin="300" fromJunction="J3" toJunction="J6" end="360" vehsPerHour="78.33527238761684"/>
  <flow id="JF219970" begin="300" fromJunction="J3" toJunction="J4" end="360" vehsPerHour="84.02094222883356"/>
  <flow id="JF219971" begin="300" fromJunction="J3" toJunction="J7" end="360" vehsPerHour="104.50332460321303"/>
  <flow id="JF219972" begin="300" fromJunction="J3" toJunction="J5" end="360" vehsPerHour="1.1326807968812875"/>
  <flow id="JF219973" begin="300" fromJunction="J6" toJunction="J4" end="360" vehsPerHour="62.461868423567836"/>
  <flow id="JF219974" begin="300" fromJunction="J6" toJunction="J7" end="360" vehsPerHour="3.727670079223154"/>
  <flow id="JF219975" begin="300" fromJunction="J6" toJunction="J5" end="360" vehsPerHour="14.094824974049759"/>
  <flow id="JF219976" begin="300" fromJunction="J4" toJunction="J6" end="360" vehsPerHour="17.223188360503222"/>
  <flow id="JF219977" begin="300" fromJunction="J4" toJunction="J7" end="360" vehsPerHour="31.722543330901843"/>
  <flow id="JF219978" begin="300" fromJunction="J4" toJunction="J5" end="360" vehsPerHour="24.464991061324557"/>
  <flow id="JF219979" begin="300" fromJunction="J7" toJunction="J6" end="360" vehsPerHour="20.584131088904062"/>
  <flow id="JF219980" begin="300" fromJunction="J7" toJunction="J4" end="360" vehsPerHour="20.450752361167034"/>
  <flow id="JF219981" begin="300" fromJunction="J7" toJunction="J5" end="360" vehsPerHour="49.38258346475649"/>
  <flow id="JF219982" begin="300" fromJunction="J5" toJunction="J6" end="360" vehsPerHour="68.65388223650989"/>
  <flow id="JF219983" begin="300" fromJunction="J5" toJunction="J4" end="360" vehsPerHour="58.11844403378519"/>
  <flow id="JF219984" begin="300" fromJunction="J5" toJunction="J7" end="360" vehsPerHour="68.68454356382506"/>
  <flow id="JF219985" begin="300" fromJunction="J6" toJunction="J0" end="360" vehsPerHour="63.24661363353876"/>
  <flow id="JF219986" begin="300" fromJunction="J6" toJunction="J3" end="360" vehsPerHour="37.93655927282329"/>
  <flow id="JF219987" begin="300" fromJunction="J4" toJunction="J0" end="360" vehsPerHour="35.85482741872309"/>
  <flow id="JF219988" begin="300" fromJunction="J4" toJunction="J3" end="360" vehsPerHour="25.8793816649349"/>
  <flow id="JF219989" begin="300" fromJunction="J7" toJunction="J0" end="360" vehsPerHour="6.620825932031056"/>
  <flow id="JF219990" begin="300" fromJunction="J7" toJunction="J3" end="360" vehsPerHour="29.998885286721574"/>
  <flow id="JF219991" begin="300" fromJunction="J5" toJunction="J0" end="360" vehsPerHour="45.59051255648436"/>
  <flow id="JF219992" begin="300" fromJunction="J5" toJunction="J3" end="360" vehsPerHour="47.85896105457716"/>
  <flow id="JF219993" begin="360" fromJunction="J0" toJunction="J3" end="420" vehsPerHour="197.72403982471042"/>
  <flow id="JF219994" begin="360" fromJunction="J3" toJunction="J0" end="420" vehsPerHour="427.5490679244968"/>
  <flow id="JF219995" begin="360" fromJunction="J0" toJunction="J6" end="420" vehsPerHour="2.480052659335311"/>
  <flow id="JF219996" begin="360" fromJunction="J0" toJunction="J4" end="420" vehsPerHour="58.75776352351349"/>
  <flow id="JF219997" begin="360" fromJunction="J0" toJunction="J7" end="420" vehsPerHour="41.465551340315876"/>
  <flow id="JF219998" begin="360" fromJunction="J0" toJunction="J5" end="420" vehsPerHour="115.85105753060368"/>
  <flow id="JF219999" begin="360" fromJunction="J3" toJunction="J6" end="420" vehsPerHour="22.70188433826508"/>
  <flow id="JF220000" begin="360" fromJunction="J3" toJunction="J4" end="420" vehsPerHour="128.78422246514376"/>
  <flow id="JF220001" begin="360" fromJunction="J3" toJunction="J7" end="420" vehsPerHour="82.83255647554164"/>
  <flow id="JF220002" begin="360" fromJunction="J3" toJunction="J5" end="420" vehsPerHour="77.2654311119279"/>
  <flow id="JF220003" begin="360" fromJunction="J6" toJunction="J4" end="420" vehsPerHour="44.133217326721976"/>
  <flow id="JF220004" begin="360" fromJunction="J6" toJunction="J7" end="420" vehsPerHour="56.01089237212811"/>
  <flow id="JF220005" begin="360" fromJunction="J6" toJunction="J5" end="420" vehsPerHour="47.03961122214246"/>
  <flow id="JF220006" begin="360" fromJunction="J4" toJunction="J6" end="420" vehsPerHour="43.913980077571416"/>
  <flow id="JF220007" begin="360" fromJunction="J4" toJunction="J7" end="420" vehsPerHour="23.667703903474575"/>
  <flow id="JF220008" begin="360" fromJunction="J4" toJunction="J5" end="420" vehsPerHour="11.66725422514613"/>
  <flow id="JF220009" begin="360" fromJunction="J7" toJunction="J6" end="420" vehsPerHour="60.52428986421527"/>
  <flow id="JF220010" begin="360" fromJunction="J7" toJunction="J4" end="420" vehsPerHour="47.197826430620424"/>
  <flow id="JF220011" begin="360" fromJunction="J7" toJunction="J5" end="420" vehsPerHour="7.936880766665646"/>
  <flow id="JF220012" begin="360" fromJunction="J5" toJunction="J6" end="420" vehsPerHour="30.94971873511513"/>
  <flow id="JF220013" begin="360" fromJunction="J5" toJunction="J4" end="420" vehsPerHour="44.50013465510992"/>
  <flow id="JF220014" begin="360" fromJunction="J5" toJunction="J7" end="420" vehsPerHour="67.68569665584445"/>
  <flow id="JF220015" begin="360" fromJunction="J6" toJunction="J0" end="420" vehsPerHour="6.249426033526311"/>
  <flow id="JF220016" begin="360" fromJunction="J6" toJunction="J3" end="420" vehsPerHour="53.894806698145196"/>
  <flow id="JF220017" begin="360" fromJunction="J4" toJunction="J0" end="420" vehsPerHour="10.248361983871225"/>
  <flow id="JF220018" begin="360" fromJunction="J4" toJunction="J3" end="420" vehsPerHour="15.374421746844163"/>
  <flow id="JF220019" begin="360" fromJunction="J7" toJunction="J0" end="420" vehsPerHour="44.262215444621255"/>
  <flow id="JF220020" begin="360" fromJunction="J7" toJunction="J3" end="420" vehsPerHour="29.99839707128599"/>
  <flow id="JF220021" begin="360" fromJunction="J5" toJunction="J0" end="420" vehsPerHour="20.242922874369743"/>
  <flow id="JF220022" begin="360" fromJunction="J5" toJunction="J3" end="420" vehsPerHour="22.079324641666147"/>
  <flow id="JF220023" begin="420" fromJunction="J0" toJunction="J3" end="480" vehsPerHour="356.4612194013313"/>
  <flow id="JF220024" begin="420" fromJunction="J3" toJunction="J0" end="480" vehsPerHour="180.10403731463524"/>
  <flow id="JF220025" begin="420" fromJunction="J0" toJunction="J6" end="480" vehsPerHour="62.91080345955795"/>
  <flow id="JF220026" begin="420" fromJunction="J0" toJunction="J4" end="480" vehsPerHour="21.576803434041558"/>
  <flow id="JF220027" begin="420" fromJunction="J0" toJunction="J7" end="480" vehsPerHour="19.8758508830696"/>
  <flow id="JF220028" begin="420" fromJunction="J0" toJunction="J5" end="480" vehsPerHour="82.74626186182307"/>
  <flow id="JF220029" begin="420" fromJunction="J3" toJunction="J6" end="480" vehsPerHour="69.7087626822698"/>
  <flow id="JF220030" begin="420" fromJunction="J3" toJunction="J4" end="480" vehsPerHour="2.323047626655255"/>
  <flow id="JF220031" begin="420" fromJunction="J3" toJunction="J7" end="480" vehsPerHour="129.35423917430444"/>
  <flow id="JF220032" begin="420" fromJunction="J3" toJunction="J5" end="480" vehsPerHour="75.14122194657898"/>
  <flow id="JF220033" begin="420" fromJunction="J6" toJunction="J4" end="480" vehsPerHour="58.405481344089154"/>
  <flow id="JF220034" begin="420" fromJunction="J6" toJunction="J7" end="480" vehsPerHour="2.7013872143098405"/>
  <flow id="JF220035" begin="420" fromJunction="J6" toJunction="J5" end="480" vehsPerHour="51.073938147794514"/>
  <flow id="JF220036" begin="420" fromJunction="J4" toJunction="J6" end="480" vehsPerHour="4.305628061841751"/>
  <flow id="JF220037" begin="420" fromJunction="J4" toJunction="J7" end="480" vehsPerHour="9.60578806897056"/>
  <flow id="JF220038" begin="420" fromJunction="J4" toJunction="J5" end="480" vehsPerHour="42.225838569545395"/>
  <flow id="JF220039" begin="420" fromJunction="J7" toJunction="J6" end="480" vehsPerHour="14.223049522695597"/>
  <flow id="JF220040" begin="420" fromJunction="J7" toJunction="J4" end="480" vehsPerHour="6.300583692691285"/>
  <flow id="JF220041" begin="420" fromJunction="J7" toJunction="J5" end="480" vehsPerHour="16.089100013231487"/>
  <flow id="JF220042" begin="420" fromJunction="J5" toJunction="J6" end="480" vehsPerHour="54.12154019359184"/>
  <flow id="JF220043" begin="420" fromJunction="J5" toJunction="J4" end="480" vehsPerHour="50.866721368180094"/>
  <flow id="JF220044" begin="420" fromJunction="J5" toJunction="J7" end="480" vehsPerHour="0.7444586621738208"/>
  <flow id="JF220045" begin="420" fromJunction="J6" toJunction="J0" end="480" vehsPerHour="12.715493154889224"/>
  <flow id="JF220046" begin="420" fromJunction="J6" toJunction="J3" end="480" vehsPerHour="59.16770527780513"/>
  <flow id="JF220047" begin="420" fromJunction="J4" toJunction="J0" end="480" vehsPerHour="52.522237482656045"/>
  <flow id="JF220048" begin="420" fromJunction="J4" toJunction="J3" end="480" vehsPerHour="46.64731905453231"/>
  <flow id="JF220049" begin="420" fromJunction="J7" toJunction="J0" end="480" vehsPerHour="19.216359731783253"/>
  <flow id="JF220050" begin="420" fromJunction="J7" toJunction="J3" end="480" vehsPerHour="41.3773228328007"/>
  <flow id="JF220051" begin="420" fromJunction="J5" toJunction="J0" end="480" vehsPerHour="34.0485095917228"/>
  <flow id="JF220052" begin="420" fromJunction="J5" toJunction="J3" end="480" vehsPerHour="19.09582166430673"/>
  <flow id="JF220053" begin="480" fromJunction="J0" toJunction="J3" end="540" vehsPerHour="459.0769678694808"/>
  <flow id="JF220054" begin="480" fromJunction="J3" toJunction="J0" end="540" vehsPerHour="179.9307575253344"/>
  <flow id="JF220055" begin="480" fromJunction="J0" toJunction="J6" end="540" vehsPerHour="76.25688798787073"/>
  <flow id="JF220056" begin="480" fromJunction="J0" toJunction="J4" end="540" vehsPerHour="4.930965079554591"/>
  <flow id="JF220057" begin="480" fromJunction="J0" toJunction="J7" end="540" vehsPerHour="25.0708880726387"/>
  <flow id="JF220058" begin="480" fromJunction="J0" toJunction="J5" end="540" vehsPerHour="52.76668866501519"/>
  <flow id="JF220059" begin="480" fromJunction="J3" toJunction="J6" end="540" vehsPerHour="43.62056901813024"/>
  <flow id="JF220060" begin="480" fromJunction="J3" toJunction="J4" end="540" vehsPerHour="83.31539863623281"/>
  <flow id="JF220061" begin="480" fromJunction="J3" toJunction="J7" end="540" vehsPerHour="28.437726076743928"/>
  <flow id="JF220062" begin="480" fromJunction="J3" toJunction="J5" end="540" vehsPerHour="88.90076561604432"/>
  <flow id="JF220063" begin="540" fromJunction="J0" toJunction="J3" end="600" vehsPerHour="466.62266828652884"/>
  <flow id="JF220064" begin="540" fromJunction="J3" toJunction="J0" end="600" vehsPerHour="467.3906365472319"/>
  <flow id="JF220065" begin="540" fromJunction="J0" toJunction="J6" end="600" vehsPerHour="125.76425676715314"/>
  <flow id="JF220066" begin="540" fromJunction="J0" toJunction="J4" end="600" vehsPerHour="131.87848898986272"/>
  <flow id="JF220067" begin="540" fromJunction="J0" toJunction="J7" end="600" vehsPerHour="105.12539075673722"/>
  <flow id="JF220068" begin="540" fromJunction="J0" toJunction="J5" end="600" vehsPerHour="105.25844657949852"/>
  <flow id="JF220069" begin="540" fromJunction="J3" toJunction="J6" end="600" vehsPerHour="129.7529038948023"/>
  <flow id="JF220070" begin="540" fromJunction="J3" toJunction="J4" end="600" vehsPerHour="124.89945507346359"/>
  <flow id="JF220071" begin="540" fromJunction="J3" toJunction="J7" end="600" vehsPerHour="18.965848618026577"/>
  <flow id="JF220072" begin="540" fromJunction="J3" toJunction="J5" end="600" vehsPerHour="105.70681711590473"/>
  <flow id="JF220073" begin="540" fromJunction="J6" toJunction="J4" end="600" vehsPerHour="57.17606648737642"/>
  <flow id="JF220074" begin="540" fromJunction="J6" toJunction="J7" end="600" vehsPerHour="16.312575497460863"/>
  <flow id="JF220075" begin="540" fromJunction="J6" toJunction="J5" end="600" vehsPerHour="60.31256559479809"/>
  <flow id="JF220076" begin="540" fromJunction="J4" toJunction="J6" end="600" vehsPerHour="54.30075800874373"/>
  <flow id="JF220077" begin="540" fromJunction="J4" toJunction="J7" end="600" vehsPerHour="61.03995384823771"/>
  <flow id="JF220078" begin="540" fromJunction="J4" toJunction="J5" end="600" vehsPerHour="41.961918377080224"/>
  <flow id="JF220079" begin="540" fromJunction="J7" toJunction="J6" end="600" vehsPerHour="50.0702063855057"/>
  <flow id="JF220080" begin="540" fromJunction="J7" toJunction="J4" end="600" vehsPerHour="37.78226330268845"/>
  <flow id="JF220081" begin="540" fromJunction="J7" toJunction="J5" end="600" vehsPerHour="3.077101166153824"/>
  <flow id="JF220082" begin="540" fromJunction="J5" toJunction="J6" end="600" vehsPerHour="38.719390089892364"/>
  <flow id="JF220083" begin="540" fromJunction="J5" toJunction="J4" end="600" vehsPerHour="7.89422050322967"/>
  <flow id="JF220084" begin="540" fromJunction="J5" toJunction="J7" end="600" vehsPerHour="9.105289507858558"/>
  <flow id="JF220085" begin="540" fromJunction="J6" toJunction="J0" end="600" vehsPerHour="22.51661252422789"/>
  <flow id="JF220086" begin="540" fromJunction="J6" toJunction="J3" end="600" vehsPerHour="54.40811781261303"/>
  <flow id="JF220087" begin="540" fromJunction="J4" toJunction="J0" end="600" vehsPerHour="4.423437061128528"/>
  <flow id="JF220088" begin="540" fromJunction="J4" toJunction="J3" end="600" vehsPerHour="59.20390025610338"/>
  <flow id="JF220089" begin="540" fromJunction="J7" toJunction="J0" end="600" vehsPerHour="68.55372057737237"/>
  <flow id="JF220090" begin="540" fromJunction="J7" toJunction="J3" end="600" vehsPerHour="37.537189295522005"/>
  <flow id="JF220091" begin="540" fromJunction="J5" toJunction="J0" end="600" vehsPerHour="44.40683652857069"/>
  <flow id="JF220092" begin="540" fromJunction="J5" toJunction="J3" end="600" vehsPerHour="63.65049894011237"/>
  <flow id="JF220093" begin="600" fromJunction="J0" toJunction="J3" end="660" vehsPerHour="124.2391688990112"/>
  <flow id="JF220094" begin="600" fromJunction="J3" toJunction="J0" end="660" vehsPerHour="379.9252363754708"/>
  <flow id="JF220095" begin="600" fromJunction="J0" toJunction="J6" end="660" vehsPerHour="4.724543711728199"/>
  <flow id="JF220096" begin="600" fromJunction="J0" toJunction="J4" end="660" vehsPerHour="129.26739689310224"/>
  <flow id="JF220097" begin="600" fromJunction="J0" toJunction="J7" end="660" vehsPerHour="27.15573970031411"/>
  <flow id="JF220098" begin="600" fromJunction="J0" toJunction="J5" end="660" vehsPerHour="88.57646014725478"/>