<?xml version="1.0" encoding="UTF-8"?>
<routes xmlns:xsi="http://www.w3.org/2001/XMLSchema-instance" xsi:noNamespaceSchemaLocation="http://sumo.dlr.de/xsd/routes_file.xsd">
  <flow id="JF217833" begin="0" fromJunction="J0" toJunction="J3" end="60" vehsPerHour="479.63095754761184"/>
  <flow id="JF217834" begin="0" fromJunction="J3" toJunction="J0" end="60" vehsPerHour="479.19742057035614"/>
  <flow id="JF217835" begin="0" fromJunction="J0" toJunction="J6" end="60" vehsPerHour="84.10100797948108"/>
  <flow id="JF217836" begin="0" fromJunction="J0" toJunction="J4" end="60" vehsPerHour="44.75906141000291"/>
  <flow id="JF217837" begin="0" fromJunction="J0" toJunction="J7" end="60" vehsPerHour="63.34981035436486"/>
  <flow id="JF217838" begin="0" fromJunction="J0" toJunction="J5" end="60" vehsPerHour="67.25306623045535"/>
  <flow id="JF217839" begin="0" fromJunction="J3" toJunction="J6" end="60" vehsPerHour="16.932049132405982"/>
  <flow id="JF217840" begin="0" fromJunction="J3" toJunction="J4" end="60" vehsPerHour="91.39103713289566"/>
  <flow id="JF217841" begin="0" fromJunction="J3" toJunction="J7" end="60" vehsPerHour="18.798776054198935"/>
  <flow id="JF217842" begin="0" fromJunction="J3" toJunction="J5" end="60" vehsPerHour="57.64458291643602"/>
  <flow id="JF217843" begin="0" fromJunction="J6" toJunction="J4" end="60" vehsPerHour="17.49236228037497"/>
  <flow id="JF217844" begin="0" fromJunction="J6" toJunction="J7" end="60" vehsPerHour="45.42856153206729"/>
  <flow id="JF217845" begin="0" fromJunction="J6" toJunction="J5" end="60" vehsPerHour="4.348568000219864"/>
  <flow id="JF217846" begin="0" fromJunction="J4" toJunction="J6" end="60" vehsPerHour="54.72937187099307"/>
  <flow id="JF217847" begin="0" fromJunction="J4" toJunction="J7" end="60" vehsPerHour="68.52871654696592"/>
  <flow id="JF217848" begin="0" fromJunction="J4" toJunction="J5" end="60" vehsPerHour="65.43944781505671"/>
  <flow id="JF217849" begin="0" fromJunction="J7" toJunction="J6" end="60" vehsPerHour="9.367802912843583"/>
  <flow id="JF217850" begin="0" fromJunction="J7" toJunction="J4" end="60" vehsPerHour="18.803617804486283"/>
  <flow id="JF217851" begin="0" fromJunction="J7" toJunction="J5" end="60" vehsPerHour="54.37358266899512"/>
  <flow id="JF217852" begin="0" fromJunction="J5" toJunction="J6" end="60" vehsPerHour="27.849358555156822"/>
  <flow id="JF217853" begin="0" fromJunction="J5" toJunction="J4" end="60" vehsPerHour="67.08660190605707"/>
  <flow id="JF217854" begin="0" fromJunction="J5" toJunction="J7" end="60" vehsPerHour="42.61840672442538"/>
  <flow id="JF217855" begin="0" fromJunction="J6" toJunction="J0" end="60" vehsPerHour="43.29243067350913"/>
  <flow id="JF217856" begin="0" fromJunction="J6" toJunction="J3" end="60" vehsPerHour="46.15975109297876"/>
  <flow id="JF217857" begin="0" fromJunction="J4" toJunction="J0" end="60" vehsPerHour="6.213935108994034"/>
  <flow id="JF217858" begin="0" fromJunction="J4" toJunction="J3" end="60" vehsPerHour="12.808225048591886"/>
  <flow id="JF217859" begin="0" fromJunction="J7" toJunction="J0" end="60" vehsPerHour="5.667885450011323"/>
  <flow id="JF217860" begin="0" fromJunction="J7" toJunction="J3" end="60" vehsPerHour="55.06902131396381"/>
  <flow id="JF217861" begin="0" fromJunction="J5" toJunction="J0" end="60" vehsPerHour="65.31499233698426"/>
  <flow id="JF217862" begin="0" fromJunction="J5" toJunction="J3" end="60" vehsPerHour="42.554062512136035"/>
  <flow id="JF217863" begin="60" fromJunction="J0" toJunction="J3" end="120" vehsPerHour="192.74020125144483"/>
  <flow id="JF217864" begin="60" fromJunction="J3" toJunction="J0" end="120" vehsPerHour="88.04248218367005"/>
  <flow id="JF217865" begin="60" fromJunction="J0" toJunction="J6" end="120" vehsPerHour="45.49816397748333"/>
  <flow id="JF217866" begin="60" fromJunction="J0" toJunction="J4" end="120" vehsPerHour="41.639474685133976"/>
  <flow id="JF217867" begin="60" fromJunction="J0" toJunction="J7" end="120" vehsPerHour="106.0000501201948"/>
  <flow id="JF217868" begin="60" fromJunction="J0" toJunction="J5" end="120" vehsPerHour="32.87563657967721"/>
  <flow id="JF217869" begin="60" fromJunction="J3" toJunction="J6" end="120" vehsPerHour="135.8930013842358"/>
  <flow id="JF217870" begin="60" fromJunction="J3" toJunction="J4" end="120" vehsPerHour="56.00970662337944"/>
  <flow id="JF217871" begin="60" fromJunction="J3" toJunction="J7" end="120" vehsPerHour="93.78891224282104"/>
  <flow id="JF217872" begin="60" fromJunction="J3" toJunction="J5" end="120" vehsPerHour="103.42720268141576"/>
  <flow id="JF217873" begin="60" fromJunction="J6" toJunction="J4" end="120" vehsPerHour="32.99170668304282"/>
  <flow id="JF217874" begin="60" fromJunction="J6" toJunction="J7" end="120" vehsPerHour="61.95416833275462"/>
  <flow id="JF217875" begin="60" fromJunction="J6" toJunction="J5" end="120" vehsPerHour="10.586571476529357"/>
  <flow id="JF217876" begin="60" fromJunction="J4" toJunction="J6" end="120" vehsPerHour="6.220350705354917"/>
  <flow id="JF217877" begin="60" fromJunction="J4" toJunction="J7" end="120" vehsPerHour="53.16290534731641"/>
  <flow id="JF217878" begin="60" fromJunction="J4" toJunction="J5" end="120" vehsPerHour="46.16995991683685"/>
  <flow id="JF217879" begin="60" fromJunction="J7" toJunction="J6" end="120" vehsPerHour="37.14568025086664"/>
  <flow id="JF217880" begin="60" fromJunction="J7" toJunction="J4" end="120" vehsPerHour="45.8003868882801"/>
  <flow id="JF217881" begin="60" fromJunction="J7" toJunction="J5" end="120" vehsPerHour="14.4964793498932"/>
  <flow id="JF217882" begin="60" fromJunction="J5" toJunction="J6" end="120" vehsPerHour="24.461821699972713"/>
  <flow id="JF217883" begin="60" fromJunction="J5" toJunction="J4" end="120" vehsPerHour="56.63549944607109"/>
  <flow id="JF217884" begin="60" fromJunction="J5" toJunction="J7" end="120" vehsPerHour="5.520567615088616"/>
  <flow id="JF217885" begin="60" fromJunction="J6" toJunction="J0" end="120" vehsPerHour="50.022273502371014"/>
  <flow id="JF217886" begin="60" fromJunction="J6" toJunction="J3" end="120" vehsPerHour="19.705133174863157"/>
  <flow id="JF217887" begin="60" fromJunction="J4" toJunction="J0" end="120" vehsPerHour="42.599914802397535"/>
  <flow id="JF217888" begin="60" fromJunction="J4" toJunction="J3" end="120" vehsPerHour="21.453247298631258"/>
  <flow id="JF217889" begin="60" fromJunction="J7" toJunction="J0" end="120" vehsPerHour="8.435348652427761"/>
  <flow id="JF217890" begin="60" fromJunction="J7" toJunction="J3" end="120" vehsPerHour="60.45181410932553"/>
  <flow id="JF217891" begin="60" fromJunction="J5" toJunction="J0" end="120" vehsPerHour="43.92123410299793"/>
  <flow id="JF217892" begin="60" fromJunction="J5" toJunction="J3" end="120" vehsPerHour="37.47267313467741"/>
  <flow id="JF217893" begin="120" fromJunction="J0" toJunction="J3" end="180" vehsPerHour="531.7312666256267"/>
  <flow id="JF217894" begin="120" fromJunction="J3" toJunction="J0" end="180" vehsPerHour="413.64807027541565"/>
  <flow id="JF217895" begin="120" fromJunction="J0" toJunction="J6" end="180" vehsPerHour="125.67816997634104"/>
  <flow id="JF217896" begin="120" fromJunction="J0" toJunction="J4" end="180" vehsPerHour="100.52188635917464"/>
  <flow id="JF217897" begin="120" fromJunction="J0" toJunction="J7" end="180" vehsPerHour="2.460309227853272"/>
  <flow id="JF217898" begin="120" fromJunction="J0" toJunction="J5" end="180" vehsPerHour="25.60097784152001"/>
  <flow id="JF217899" begin="120" fromJunction="J3" toJunction="J6" end="180" vehsPerHour="55.98283018195519"/>
  <flow id="JF217900" begin="120" fromJunction="J3" toJunction="J4" end="180" vehsPerHour="71.16942069483747"/>
  <flow id="JF217901" begin="120" fromJunction="J3" toJunction="J7" end="180" vehsPerHour="18.498231811911698"/>
  <flow id="JF217902" begin="120" fromJunction="J3" toJunction="J5" end="180" vehsPerHour="18.410756387719385"/>
  <flow id="JF217903" begin="180" fromJunction="J0" toJunction="J3" end="240" vehsPerHour="135.49222809389485"/>
  <flow id="JF217904" begin="180" fromJunction="J3" toJunction="J0" end="240" vehsPerHour="421.21541461613214"/>
  <flow id="JF217905" begin="180" fromJunction="J0" toJunction="J6" end="240" vehsPerHour="97.24982210858164"/>
  <flow id="JF217906" begin="180" fromJunction="J0" toJunction="J4" end="240" vehsPerHour="97.30767889208633"/>
  <flow id="JF217907" begin="180" fromJunction="J0" toJunction="J7" end="240" vehsPerHour="15.142089475135498"/>
  <flow id="JF217908" begin="180" fromJunction="J0" toJunction="J5" end="240" vehsPerHour="57.17207773520106"/>
  <flow id="JF217909" begin="180" fromJunction="J3" toJunction="J6" end="240" vehsPerHour="131.29162182778634"/>
  <flow id="JF217910" begin="180" fromJunction="J3" toJunction="J4" end="240" vehsPerHour="17.538708686980737"/>
  <flow id="JF217911" begin="180" fromJunction="J3" toJunction="J7" end="240" vehsPerHour="90.51287351161145"/>
  <flow id="JF217912" begin="180" fromJunction="J3" toJunction="J5" end="240" vehsPerHour="94.68880193418617"/>
  <flow id="JF217913" begin="240" fromJunction="J0" toJunction="J3" end="300" vehsPerHour="485.4196679587336"/>
  <flow id="JF217914" begin="240" fromJunction="J3" toJunction="J0" end="300" vehsPerHour="243.65696877322023"/>
  <flow id="JF217915" begin="240" fromJunction="J0" toJunction="J6" end="300" vehsPerHour="27.457091258273785"/>
  <flow id="JF217916" begin="240" fromJunction="J0" toJunction="J4" end="300" vehsPerHour="111.6706112650702"/>
  <flow id="JF217917" begin="240" fromJunction="J0" toJunction="J7" end="300" vehsPerHour="58.48138419116061"/>
  <flow id="JF217918" begin="240" fromJunction="J0" toJunction="J5" end="300" vehsPerHour="5.746876007445656"/>
  <flow id="JF217919" begin="240" fromJunction="J3" toJunction="J6" end="300" vehsPerHour="103.43271548313439"/>
  <flow id="JF217920" begin="240" fromJunction="J3" toJunction="J4" end="300" vehsPerHour="0.3441014720886111"/>
  <flow id="JF217921" begin="240" fromJunction="J3" toJunction="J7" end="300" vehsPerHour="71.71538371621305"/>
  <flow id="JF217922" begin="240" fromJunction="J3" toJunction="J5" end="300" vehsPerHour="14.65585781792341"/>
  <flow id="JF217923" begin="240" fromJunction="J6" toJunction="J4" end="300" vehsPerHour="21.639136434386995"/>
  <flow id="JF217924" begin="240" fromJunction="J6" toJunction="J7" end="300" vehsPerHour="53.39035124619867"/>
  <flow id="JF217925" begin="240" fromJunction="J6" toJunction="J5" end="300" vehsPerHour="1.1997261615942385"/>
  <flow id="JF217926" begin="240" fromJunction="J4" toJunction="J6" end="300" vehsPerHour="46.854961712228345"/>
  <flow id="JF217927" begin="240" fromJunction="J4" toJunction="J7" end="300" vehsPerHour="24.387379616308476"/>
  <flow id="JF217928" begin="240" fromJunction="J4" toJunction="J5" end="300" vehsPerHour="29.23454663105434"/>
  <flow id="JF217929" begin="240" fromJunction="J7" toJunction="J6" end="300" vehsPerHour="61.4875306705537"/>
  <flow id="JF217930" begin="240" fromJunction="J7" toJunction="J4" end="300" vehsPerHour="16.183108240753338"/>
  <flow id="JF217931" begin="240" fromJunction="J7" toJunction="J5" end="300" vehsPerHour="50.22996431829565"/>
  <flow id="JF217932" begin="240" fromJunction="J5" toJunction="J6" end="300" vehsPerHour="53.945325176882754"/>
  <flow id="JF217933" begin="240" fromJunction="J5" toJunction="J4" end="300" vehsPerHour="52.995512521632165"/>
  <flow id="JF217934" begin="240" fromJunction="J5" toJunction="J7" end="300" vehsPerHour="12.147859430224383"/>
  <flow id="JF217935" begin="240" fromJunction="J6" toJunction="J0" end="300" vehsPerHour="27.3272369471149"/>
  <flow id="JF217936" begin="240" fromJunction="J6" toJunction="J3" end="300" vehsPerHour="17.811534133517906"/>
  <flow id="JF217937" begin="240" fromJunction="J4" toJunction="J0" end="300" vehsPerHour="48.17771490996383"/>
  <flow id="JF217938" begin="240" fromJunction="J4" toJunction="J3" end="300" vehsPerHour="47.82252259052231"/>
  <flow id="JF217939" begin="240" fromJunction="J7" toJunction="J0" end="300" vehsPerHour="27.41650951307685"/>
  <flow id="JF217940" begin="240" fromJunction="J7" toJunction="J3" end="300" vehsPerHour="8.362649602937918"/>
  <flow id="JF217941" begin="240" fromJunction="J5" toJunction="J0" end="300" vehsPerHour="68.66866614141804"/>
  <flow id="JF217942" begin="240" fromJunction="J5" toJunction="J3" end="300" vehsPerHour="41.993384147573025"/>
  <flow id="JF217943" begin="300" fromJunction="J0" toJunction="J3" end="360" vehsPerHour="223.8761415969176"/>
  <flow id="JF217944" begin="300" fromJunction="J3" toJunction="J0" end="360" vehsPerHour="427.8974136955234"/>
  <flow id="JF217945" begin="300" fromJunction="J0" toJunction="J6" end="360" vehsPerHour="121.36999393858913"/>
  <flow id="JF217946" begin="300" fromJunction="J0" toJunction="J4" end="360" vehsPerHour="23.68771236475923"/>
  <flow id="JF217947" begin="300" fromJunction="J0" toJunction="J7" end="360" vehsPerHour="134.0033727749421"/>
  <flow id="JF217948" begin="300" fromJunction="J0" toJunction="J5" end="360" vehsPerHour="42.186955040165074"/>
  <flow id="JF217949" begin="300" fromJunction="J3" toJunction="J6" end="360" vehsPerHour="39.292361776003496"/>
  <flow id="JF217950" begin="300" fromJunction="J3" toJunction="J4" end="360" vehsPerHour="69.11704210026963"/>
  <flow id="JF217951" begin="300" fromJunction="J3" toJunction="J7" end="360" vehsPerHour="16.601851891735198"/>
  <flow id="JF217952" begin="300" fromJunction="J3" toJunction="J5" end="360" vehsPerHour="131.4514278518963"/>
  <flow id="JF217953" begin="360" fromJunction="J0" toJunction="J3" end="420" vehsPerHour="332.85687458327806"/>
  <flow id="JF217954" begin="360" fromJunction="J3" toJunction="J0" end="420" vehsPerHour="227.43568381504116"/>
  <flow id="JF217955" begin="360" fromJunction="J0" toJunction="J6" end="420" vehsPerHour="42.241355034551304"/>
  <flow id="JF217956" begin="360" fromJunction="J0" toJunction="J4" end="420" vehsPerHour="5.53215117469845"/>
  <flow id="JF217957" begin="360" fromJunction="J0" toJunction="J7" end="420" vehsPerHour="56.362167036719974"/>
  <flow id="JF217958" begin="360" fromJunction="J0" toJunction="J5" end="420" vehsPerHour="109.58273527160459"/>
  <flow id="JF217959" begin="360" fromJunction="J3" toJunction="J6" end="420" vehsPerHour="14.625112847771772"/>
  <flow id="JF217960" begin="360" fromJunction="J3" toJunction="J4" end="420" vehsPerHour="116.38462985819682"/>
  <flow id="JF217961" begin="360" fromJunction="J3" toJunction="J7" end="420" vehsPerHour="34.46219013352894"/>
  <flow id="JF217962" begin="360" fromJunction="J3" toJunction="J5" end="420" vehsPerHour="8.280348422849725"/>
  <flow id="JF217963" begin="420" fromJunction="J0" toJunction="J3" end="480" vehsPerHour="443.86617651370403"/>
  <flow id="JF217964" begin="420" fromJunction="J3" toJunction="J0" end="480" vehsPerHour="280.3254656795935"/>
  <flow id="JF217965" begin="420" fromJunction="J0" toJunction="J6" end="480" vehsPerHour="97.19794747466608"/>
  <flow id="JF217966" begin="420" fromJunction="J0" toJunction="J4" end="480" vehsPerHour="31.023627619368956"/>
  <flow id="JF217967" begin="420" fromJunction="J0" toJunction="J7" end="480" vehsPerHour="34.661133240416"/>
  <flow id="JF217968" begin="420" fromJunction="J0" toJunction="J5" end="480" vehsPerHour="107.44177959716176"/>
  <flow id="JF217969" begin="420" fromJunction="J3" toJunction="J6" end="480" vehsPerHour="60.75986297476817"/>
  <flow id="JF217970" begin="420" fromJunction="J3" toJunction="J4" end="480" vehsPerHour="3.9760812026416796"/>
  <flow id="JF217971" begin="420" fromJunction="J3" toJunction="J7" end="480" vehsPerHour="62.062206643746656"/>
  <flow id="JF217972" begin="420" fromJunction="J3" toJunction="J5" end="480" vehsPerHour="100.68738201869554"/>
  <flow id="JF217973" begin="420" fromJunction="J6" toJunction="J4" end="480" vehsPerHour="14.615263791560281"/>
  <flow id="JF217974" begin="420" fromJunction="J6" toJunction="J7" end="480" vehsPerHour="26.198335724691592"/>
  <flow id="JF217975" begin="420" fromJunction="J6" toJunction="J5" end="480" vehsPerHour="68.4264625502983"/>
  <flow id="JF217976" begin="420" fromJunction="J4" toJunction="J6" end="480" vehsPerHour="10.011787484518438"/>
  <flow id="JF217977" begin="420" fromJunction="J4" toJunction="J7" end="480" vehsPerHour="33.27088189099905"/>
  <flow id="JF217978" begin="420" fromJunction="J4" toJunction="J5" end="480" vehsPerHour="45.38600950825624"/>
  <flow id="JF217979" begin="420" fromJunction="J7" toJunction="J6" end="480" vehsPerHour="46.83675310313373"/>
  <flow id="JF217980" begin="420" fromJunction="J7" toJunction="J4" end="480" vehsPerHour="54.77749046789148"/>
  <flow id="JF217981" begin="420" fromJunction="J7" toJunction="J5" end="480" vehsPerHour="14.711960334080176"/>
  <flow id="JF217982" begin="420" fromJunction="J5" toJunction="J6" end="480" vehsPerHour="25.799450322944864"/>
  <flow id="JF217983" begin="420" fromJunction="J5" toJunction="J4" end="480" vehsPerHour="48.98384093276411"/>
  <flow id="JF217984" begin="420" fromJunction="J5" toJunction="J7" end="480" vehsPerHour="54.16929711488528"/>
  <flow id="JF217985" begin="420" fromJunction="J6" toJunction="J0" end="480" vehsPerHour="39.51221370752535"/>
  <flow id="JF217986" begin="420" fromJunction="J6" toJunction="J3" end="480" vehsPerHour="42.99936576718482"/>
  <flow id="JF217987" begin="420" fromJunction="J4" toJunction="J0" end="480" vehsPerHour="34.54717792201693"/>
  <flow id="JF217988" begin="420" fromJunction="J4" toJunction="J3" end="480" vehsPerHour="49.09360265686518"/>
  <flow id="JF217989" begin="420" fromJunction="J7" toJunction="J0" end="480" vehsPerHour="5.895287286222188"/>
  <flow id="JF217990" begin="420" fromJunction="J7" toJunction="J3" end="480" vehsPerHour="12.124171991036558"/>
  <flow id="JF217991" begin="420" fromJunction="J5" toJunction="J0" end="480" vehsPerHour="35.22467546511671"/>
  <flow id="JF217992" begin="420" fromJunction="J5" toJunction="J3" end="480" vehsPerHour="41.17866496416211"/>
  <flow id="JF217993" begin="480" fromJunction="J0" toJunction="J3" end="540" vehsPerHour="47.43465625697509"/>
  <flow id="JF217994" begin="480" fromJunction="J3" toJunction="J0" end="540" vehsPerHour="402.5042746619874"/>
  <flow id="JF217995" begin="480" fromJunction="J0" toJunction="J6" end="540" vehsPerHour="2.9953153136668575"/>
  <flow id="JF217996" begin="480" fromJunction="J0" toJunction="J4" end="540" vehsPerHour="95.60443844158786"/>
  <flow id="JF217997" begin="480" fromJunction="J0" toJunction="J7" end="540" vehsPerHour="62.309990306012736"/>
  <flow id="JF217998" begin="480" fromJunction="J0" toJunction="J5" end="540" vehsPerHour="99.2305662710477"/>
  <flow id="JF217999" begin="480" fromJunction="J3" toJunction="J6" end="540" vehsPerHour="76.60522106545595"/>
  <flow id="JF218000" begin="480" fromJunction="J3" toJunction="J4" end="540" vehsPerHour="54.211220470562324"/>
  <flow id="JF218001" begin="480" fromJunction="J3" toJunction="J7" end="540" vehsPerHour="51.38724182782861"/>
  <flow id="JF218002" begin="480" fromJunction="J3" toJunction="J5" end="540" vehsPerHour="114.9411603979725"/>
  <flow id="JF218003" begin="480" fromJunction="J6" toJunction="J4" end="540" vehsPerHour="24.802490504746853"/>
  <flow id="JF218004" begin="480" fromJunction="J6" toJunction="J7" end="540" vehsPerHour="13.550226978045528"/>
  <flow id="JF218005" begin="480" fromJunction="J6" toJunction="J5" end="540" vehsPerHour="16.404898668515155"/>
  <flow id="JF218006" begin="480" fromJunction="J4" toJunction="J6" end="540" vehsPerHour="62.84672434276599"/>
  <flow id="JF218007" begin="480" fromJunction="J4" toJunction="J7" end="540" vehsPerHour="29.35477814647462"/>
  <flow id="JF218008" begin="480" fromJunction="J4" toJunction="J5" end="540" vehsPerHour="61.896115495717915"/>
  <flow id="JF218009" begin="480" fromJunction="J7" toJunction="J6" end="540" vehsPerHour="4.335409894336086"/>
  <flow id="JF218010" begin="480" fromJunction="J7" toJunction="J4" end="540" vehsPerHour="16.61143858919692"/>
  <flow id="JF218011" begin="480" fromJunction="J7" toJunction="J5" end="540" vehsPerHour="29.381566461939958"/>
  <flow id="JF218012" begin="480" fromJunction="J5" toJunction="J6" end="540" vehsPerHour="62.23069634187153"/>
  <flow id="JF218013" begin="480" fromJunction="J5" toJunction="J4" end="540" vehsPerHour="29.034843755310064"/>
  <flow id="JF218014" begin="480" fromJunction="J5" toJunction="J7" end="540" vehsPerHour="38.25322929137287"/>
  <flow id="JF218015" begin="480" fromJunction="J6" toJunction="J0" end="540" vehsPerHour="45.46653098225214"/>
  <flow id="JF218016" begin="480" fromJunction="J6" toJunction="J3" end="540" vehsPerHour="45.60461967922444"/>
  <flow id="JF218017" begin="480" fromJunction="J4" toJunction="J0" end="540" vehsPerHour="64.94331978804004"/>
  <flow id="JF218018" begin="480" fromJunction="J4" toJunction="J3" end="540" vehsPerHour="67.47302369614967"/>
  <flow id="JF218019" begin="480" fromJunction="J7" toJunction="J0" end="540" vehsPerHour="60.78861786046163"/>
  <flow id="JF218020" begin="480" fromJunction="J7" toJunction="J3" end="540" vehsPerHour="3.714183845205362"/>
  <flow id="JF218021" begin="480" fromJunction="J5" toJunction="J0" end="540" vehsPerHour="14.585876525312681"/>
  <flow id="JF218022" begin="480" fromJunction="J5" toJunction="J3" end="540" vehsPerHour="3.3603163577844843"/>
  <flow id="JF218023" begin="540" fromJunction="J0" toJunction="J3" end="600" vehsPerHour="339.87055199672346"/>
  <flow id="JF218024" begin="540" fromJunction="J3" toJunction="J0" end="600" vehsPerHour="456.58280075834904"/>
  <flow id="JF218025" begin="540" fromJunction="J0" toJunction="J6" end="600" vehsPerHour="97.5630707258066"/>
  <flow id="JF218026" begin="540" fromJunction="J0" toJunction="J4" end="600" vehsPerHour="114.42695379056146"/>
  <flow id="JF218027" begin="540" fromJunction="J0" toJunction="J7" end="600" vehsPerHour="99.87438210661246"/>
  <flow id="JF218028" begin="540" fromJunction="J0" toJunction="J5" end="600" vehsPerHour="103.35949021207936"/>
  <flow id="JF218029" begin="540" fromJunction="J3" toJunction="J6" end="600" vehsPerHour="72.24008222624579"/>
  <flow id="JF218030" begin="540" fromJunction="J3" toJunction="J4" end="600" vehsPerHour="107.17186277462508"/>
  <flow id="JF218031" begin="540" fromJunction="J3" toJunction="J7" end="600" vehsPerHour="48.7904698220511"/>
  <flow id="JF218032" begin="540" fromJunction="J3" toJunction="J5" end="600" vehsPerHour="50.31622052009652"/>
  <flow id="JF218033" begin="600" fromJunction="J0" toJunction="J3" end="660" vehsPerHour="501.6370625647162"/>
  <flow id="JF218034" begin="600" fromJunction="J3" toJunction="J0" end="660" vehsPerHour="245.28171219894745"/>
  <flow id="JF218035" begin="600" fromJunction="J0" toJunction="J6" end="660" vehsPerHour="118.50850668059925"/>
  <flow id="JF218036" begin="600" fromJunction="J0" toJunction="J4" end="660" vehsPerHour="26.321708376428063"/>
  <flow id="JF218037" begin="600" fromJunction="J0" toJunction="J7" end="660" vehsPerHour="117.08315246508641"/>
  <flow id="JF218038" begin="600" fromJunction="J0" toJunction="J5" end="660" vehsPerHour="73.50753392576522"/>
  <flow id="JF218039" begin="600" fromJunction="J3" toJunction="J6" end="660" vehsPerHour="14.728796916002661"/>
  <flow id="JF218040" begin="600" fromJunction="J3" toJunction="J4" end="660" vehsPerHour="55.417251371021536"/>
  <flow id="JF218041" begin="600" fromJunction="J3" toJunction="J7" end="660" vehsPerHour="26.103722186208163"/>
  <flow id="JF218042" begin="600" fromJunction="J3" toJunction="J5" end="660" vehsPerHour="83.26389647846574"/>
  <flow id="JF218043" begin="600" fromJunction="J6" toJunction="J4" end="660" vehsPerHour="20.153779440616272"/>
  <flow id="JF218044" begin="600" fromJunction="J6" toJunction="J7" end="660" vehsPerHour="67.24033369589941"/>
  <flow id="JF218045" begin="600" fromJunction="J6" toJunction="J5" end="660" vehsPerHour="4.924344387456375"/>
  <flow id="JF218046" begin="600" fromJunction="J4" toJunction="J6" end="660" vehsPerHour="45.73477701244433"/>
  <flow id="JF218047" begin="600" fromJunction="J4" toJunction="J7" end="660" vehsPerHour="19.92590378674114"/>
  <flow id="JF218048" begin="600" fromJunction="J4" toJunction="J5" end="660" vehsPerHour="42.389490788754294"/>
  <flow id="JF218049" begin="600" fromJunction="J7" toJunction="J6" end="660" vehsPerHour="67.2973646612949"/>
  <flow id="JF218050" begin="600" fromJunction="J7" toJunction="J4" end="660" vehsPerHour="34.51515793024818"/>
  <flow id="JF218051" begin="600" fromJunction="J7" toJunction="J5" end="660" vehsPerHour="31.22453226909915"/>
  <flow id="JF218052" begin="600" fromJunction="J5" toJunction="J6" end="660" vehsPerHour="47.94968099425551"/>
  <flow id="JF218053" begin="600" fromJunction="J5" toJunction="J4" end="660" vehsPerHour="22.304582196421503"/>
  <flow id="JF218054" begin="600" fromJunction="J5" toJunction="J7" end="660" vehsPerHour="30.156362665598756"/>
  <flow id="JF218055" begin="600" fromJunction="J6" toJunction="J0" end="660" vehsPerHour="35.33136228281532"/>
  <flow id="JF218056" begin="600" fromJunction="J6" toJunction="J3" end="660" vehsPerHour="54.44320385429571"/>
  <flow id="JF218057" begin="600" fromJunction="J4" toJunction="J0" end="660" vehsPerHour="24.372679992690955"/>
  <flow id="JF218058" begin="600" fromJunction="J4" toJunction="J3" end="660" vehsPerHour="14.205317672043362"/>
  <flow id="JF218059" begin="600" fromJunction="J7" toJunction="J0" end="660" vehsPerHour="52.695296129352016"/>
  <flow id="JF218060" begin="600" fromJunction="J7" toJunction="J3" end="660" vehsPerHour="5.868854929076459"/>
  <flow id="JF218061" begin="600" fromJunction="J5" toJunction="J0" end="660" vehsPerHour="27.517993572998684"/>
  <flow id="JF218062" begin="600" fromJunction="J5" toJunction="J3" end="660" vehsPerHour="40.460562200919846"/>
  <flow id="JF218063" begin="660" fromJunction="J0" toJunction="J3" end="720" vehsPerHour="496.93107747207875"/>
  <flow id="JF218064" begin="660" fromJunction="J3" toJunction="J0" end="720" vehsPerHour="478.09758369596585"/>
  <flow id="JF218065" begin="660" fromJunction="J0" toJunction="J6" end="720" vehsPerHour="110.27888588255357"/>
  <flow id="JF218066" begin="660" fromJunction="J0" toJunction="J4" end="720" vehsPerHour="101.42620558768196"/>
  <flow id="JF218067" begin="660" fromJunction="J0" toJunction="J7" end="720" vehsPerHour="16.385633784561158"/>
  <flow id="JF218068" begin="660" fromJunction="J0" toJunction="J5" end="720" vehsPerHour="8.029155723411924"/>
  <flow id="JF218069" begin="660" fromJunction="J3" toJunction="J6" end="720" vehsPerHour="14.108656845632146"/>
  <flow id="JF218070" begin="660" fromJunction="J3" toJunction="J4" end="720" vehsPerHour="63.51352113930687"/>
  <flow id="JF218071" begin="660" fromJunction="J3" toJunction="J7" end="720" vehsPerHour="91.36289753828966"/>
  <flow id="JF218072" begin="660" fromJunction="J3" toJunction="J5" end="720" vehsPerHour="0.6689248015805236"/>
  <flow id="JF218073" begin="660" fromJunction="J6" toJunction="J4" end="720" vehsPerHour="11.24691463448578"/>
  <flow id="JF218074" begin="660" fromJunction="J6" toJunction="J7" end="720" vehsPerHour="35.521515693664966"/>
  <flow id="JF218075" begin="660" fromJunction="J6" toJunction="J5" end="720" vehsPerHour="43.087615651488015"/>
  <flow id="JF218076" begin="660" fromJunction="J4" toJunction="J6" end="720" vehsPerHour="48.059028709232464"/>
  <flow id="JF218077" begin="660" fromJunction="J4" toJunction="J7" end="720" vehsPerHour="15.999334047095894"/>
  <flow id="JF218078" begin="660" fromJunction="J4" toJunction="J5" end="720" vehsPerHour="21.310422595834822"/>
  <flow id="JF218079" begin="660" fromJunction="J7" toJunction="J6" end="720" vehsPerHour="19.30983566697871"/>
  <flow id="JF218080" begin="660" fromJunction="J7" toJunction="J4" end="720" vehsPerHour="34.121736604461"/>
  <flow id="JF218081" begin="660" fromJunction="J7" toJunction="J5" end="720" vehsPerHour="39.23222731006349"/>
  <flow id="JF218082" begin="660" fromJunction="J5" toJunction="J6" end="720" vehsPerHour="24.757029052362324"/>
  <flow id="JF218083" begin="660" fromJunction="J5" toJunction="J4" end="720" vehsPerHour="36.66619374041262"/>
  <flow id="JF218084" begin="660" fromJunction="J5" toJunction="J7" end="720" vehsPerHour="66.47588469806306"/>
  <flow id="JF218085" begin="660" fromJunction="J6" toJunction="J0" end="720" vehsPerHour="65.04116111620783"/>
  <flow id="JF218086" begin="660" fromJunction="J6" toJunction="J3" end="720" vehsPerHour="41.97041143322672"/>
  <flow id="JF218087" begin="660" fromJunction="J4" toJunction="J0" end="720" vehsPerHour="17.54588381398816"/>
  <flow id="JF218088" begin="660" fromJunction="J4" toJunction="J3" end="720" vehsPerHour="12.629218285765901"/>
  <flow id="JF218089" begin="660" fromJunction="J7" toJunction="J0" end="720" vehsPerHour="54.868286861460945"/>
  <flow id="JF218090" begin="660" fromJunction="J7" toJunction="J3" end="720" vehsPerHour="39.59888266939792"/>
  <flow id="JF218091" begin="660" fromJunction="J5" toJunction="J0" end="720" vehsPerHour="49.72428046688868"/>
  <flow id="JF218092" begin="660" fromJunction="J5" toJunction="J3" end="720" vehsPerHour="30.736164108872373"/>
  <flow id="JF218093" begin="720" fromJunction="J0" toJunction="J3" end="780" vehsPerHour="359.0541189017382"/>
  <flow id="JF218094" begin="720" fromJunction="J3" toJunction="J0" end="780" vehsPerHour="26.879840065675584"/>
  <flow id="JF218095" begin="720" fromJunction="J0" toJunction="J6" end="780" vehsPerHour="80.91251123669342"/>
  <flow id="JF218096" begin="720" fromJunction="J0" toJunction="J4" end="780" vehsPerHour="55.9936540254029"/>
  <flow id="JF218097" begin="720" fromJunction="J0" toJunction="J7" end="780" vehsPerHour="127.45139601930059"/>
  <flow id="JF218098" begin="720" fromJunction="J0" toJunction="J5" end="780" vehsPerHour="53.68699462657296"/>