<?xml version="1.0" encoding="UTF-8"?>
<routes xmlns:xsi="http://www.w3.org/2001/XMLSchema-instance" xsi:noNamespaceSchemaLocation="http://sumo.dlr.de/xsd/routes_file.xsd">
  <flow id="JF205413" begin="0" fromJunction="J0" toJunction="J3" end="60" vehsPerHour="2.9326630240691585"/>
  <flow id="JF205414" begin="0" fromJunction="J3" toJunction="J0" end="60" vehsPerHour="512.5240793417556"/>
  <flow id="JF205415" begin="0" fromJunction="J0" toJunction="J6" end="60" vehsPerHour="64.1817143505881"/>
  <flow id="JF205416" begin="0" fromJunction="J0" toJunction="J4" end="60" vehsPerHour="100.34092203258675"/>
  <flow id="JF205417" begin="0" fromJunction="J0" toJunction="J7" end="60" vehsPerHour="71.34427323782484"/>
  <flow id="JF205418" begin="0" fromJunction="J0" toJunction="J5" end="60" vehsPerHour="98.11845524886266"/>
  <flow id="JF205419" begin="0" fromJunction="J3" toJunction="J6" end="60" vehsPerHour="53.36113841306757"/>
  <flow id="JF205420" begin="0" fromJunction="J3" toJunction="J4" end="60" vehsPerHour="35.07753318218232"/>
  <flow id="JF205421" begin="0" fromJunction="J3" toJunction="J7" end="60" vehsPerHour="91.46961312035256"/>
  <flow id="JF205422" begin="0" fromJunction="J3" toJunction="J5" end="60" vehsPerHour="69.63541991194387"/>
  <flow id="JF205423" begin="0" fromJunction="J6" toJunction="J4" end="60" vehsPerHour="17.12143758372224"/>
  <flow id="JF205424" begin="0" fromJunction="J6" toJunction="J7" end="60" vehsPerHour="43.13052361499365"/>
  <flow id="JF205425" begin="0" fromJunction="J6" toJunction="J5" end="60" vehsPerHour="49.38144459082692"/>
  <flow id="JF205426" begin="0" fromJunction="J4" toJunction="J6" end="60" vehsPerHour="63.54267213454435"/>
  <flow id="JF205427" begin="0" fromJunction="J4" toJunction="J7" end="60" vehsPerHour="49.94605624258953"/>
  <flow id="JF205428" begin="0" fromJunction="J4" toJunction="J5" end="60" vehsPerHour="41.19003931102152"/>
  <flow id="JF205429" begin="0" fromJunction="J7" toJunction="J6" end="60" vehsPerHour="65.76984845567593"/>
  <flow id="JF205430" begin="0" fromJunction="J7" toJunction="J4" end="60" vehsPerHour="44.9865697073465"/>
  <flow id="JF205431" begin="0" fromJunction="J7" toJunction="J5" end="60" vehsPerHour="51.64978701142635"/>
  <flow id="JF205432" begin="0" fromJunction="J5" toJunction="J6" end="60" vehsPerHour="39.009077196826624"/>
  <flow id="JF205433" begin="0" fromJunction="J5" toJunction="J4" end="60" vehsPerHour="49.96894078897577"/>
  <flow id="JF205434" begin="0" fromJunction="J5" toJunction="J7" end="60" vehsPerHour="56.1441897639042"/>
  <flow id="JF205435" begin="0" fromJunction="J6" toJunction="J0" end="60" vehsPerHour="57.44247702367523"/>
  <flow id="JF205436" begin="0" fromJunction="J6" toJunction="J3" end="60" vehsPerHour="34.96192983952664"/>
  <flow id="JF205437" begin="0" fromJunction="J4" toJunction="J0" end="60" vehsPerHour="8.706842012160747"/>
  <flow id="JF205438" begin="0" fromJunction="J4" toJunction="J3" end="60" vehsPerHour="2.7351491418848823"/>
  <flow id="JF205439" begin="0" fromJunction="J7" toJunction="J0" end="60" vehsPerHour="0.9911148845164202"/>
  <flow id="JF205440" begin="0" fromJunction="J7" toJunction="J3" end="60" vehsPerHour="34.320991949878895"/>
  <flow id="JF205441" begin="0" fromJunction="J5" toJunction="J0" end="60" vehsPerHour="30.863697436286404"/>
  <flow id="JF205442" begin="0" fromJunction="J5" toJunction="J3" end="60" vehsPerHour="51.67895004486508"/>
  <flow id="JF205443" begin="60" fromJunction="J0" toJunction="J3" end="120" vehsPerHour="367.0647605938999"/>
  <flow id="JF205444" begin="60" fromJunction="J3" toJunction="J0" end="120" vehsPerHour="460.2148589998653"/>
  <flow id="JF205445" begin="60" fromJunction="J0" toJunction="J6" end="120" vehsPerHour="68.41022406942926"/>
  <flow id="JF205446" begin="60" fromJunction="J0" toJunction="J4" end="120" vehsPerHour="98.56272551648388"/>
  <flow id="JF205447" begin="60" fromJunction="J0" toJunction="J7" end="120" vehsPerHour="34.139069600388616"/>
  <flow id="JF205448" begin="60" fromJunction="J0" toJunction="J5" end="120" vehsPerHour="36.29161426203756"/>
  <flow id="JF205449" begin="60" fromJunction="J3" toJunction="J6" end="120" vehsPerHour="57.4988190114166"/>
  <flow id="JF205450" begin="60" fromJunction="J3" toJunction="J4" end="120" vehsPerHour="133.6046501237206"/>
  <flow id="JF205451" begin="60" fromJunction="J3" toJunction="J7" end="120" vehsPerHour="74.30055112243157"/>
  <flow id="JF205452" begin="60" fromJunction="J3" toJunction="J5" end="120" vehsPerHour="92.79660584927377"/>
  <flow id="JF205453" begin="120" fromJunction="J0" toJunction="J3" end="180" vehsPerHour="542.2054080721283"/>
  <flow id="JF205454" begin="120" fromJunction="J3" toJunction="J0" end="180" vehsPerHour="126.44431686598007"/>
  <flow id="JF205455" begin="120" fromJunction="J0" toJunction="J6" end="180" vehsPerHour="6.6557619023415"/>
  <flow id="JF205456" begin="120" fromJunction="J0" toJunction="J4" end="180" vehsPerHour="110.57878574161029"/>
  <flow id="JF205457" begin="120" fromJunction="J0" toJunction="J7" end="180" vehsPerHour="115.50078186616525"/>
  <flow id="JF205458" begin="120" fromJunction="J0" toJunction="J5" end="180" vehsPerHour="99.22436045373627"/>
  <flow id="JF205459" begin="120" fromJunction="J3" toJunction="J6" end="180" vehsPerHour="95.20523429161257"/>
  <flow id="JF205460" begin="120" fromJunction="J3" toJunction="J4" end="180" vehsPerHour="68.18529460731541"/>
  <flow id="JF205461" begin="120" fromJunction="J3" toJunction="J7" end="180" vehsPerHour="47.50409092684537"/>
  <flow id="JF205462" begin="120" fromJunction="J3" toJunction="J5" end="180" vehsPerHour="49.54206891896571"/>
  <flow id="JF205463" begin="120" fromJunction="J6" toJunction="J4" end="180" vehsPerHour="39.06700580472435"/>
  <flow id="JF205464" begin="120" fromJunction="J6" toJunction="J7" end="180" vehsPerHour="10.410674060831417"/>
  <flow id="JF205465" begin="120" fromJunction="J6" toJunction="J5" end="180" vehsPerHour="18.292191288719543"/>
  <flow id="JF205466" begin="120" fromJunction="J4" toJunction="J6" end="180" vehsPerHour="16.53749781257494"/>
  <flow id="JF205467" begin="120" fromJunction="J4" toJunction="J7" end="180" vehsPerHour="26.74353829827543"/>
  <flow id="JF205468" begin="120" fromJunction="J4" toJunction="J5" end="180" vehsPerHour="68.4272521888884"/>
  <flow id="JF205469" begin="120" fromJunction="J7" toJunction="J6" end="180" vehsPerHour="45.665869357125224"/>
  <flow id="JF205470" begin="120" fromJunction="J7" toJunction="J4" end="180" vehsPerHour="20.433697347868705"/>
  <flow id="JF205471" begin="120" fromJunction="J7" toJunction="J5" end="180" vehsPerHour="66.00150022924524"/>
  <flow id="JF205472" begin="120" fromJunction="J5" toJunction="J6" end="180" vehsPerHour="1.9868153371214923"/>
  <flow id="JF205473" begin="120" fromJunction="J5" toJunction="J4" end="180" vehsPerHour="50.09915917805016"/>
  <flow id="JF205474" begin="120" fromJunction="J5" toJunction="J7" end="180" vehsPerHour="60.493070595622505"/>
  <flow id="JF205475" begin="120" fromJunction="J6" toJunction="J0" end="180" vehsPerHour="59.28595337047657"/>
  <flow id="JF205476" begin="120" fromJunction="J6" toJunction="J3" end="180" vehsPerHour="64.06116034813238"/>
  <flow id="JF205477" begin="120" fromJunction="J4" toJunction="J0" end="180" vehsPerHour="48.88139630077181"/>
  <flow id="JF205478" begin="120" fromJunction="J4" toJunction="J3" end="180" vehsPerHour="21.68283365904721"/>
  <flow id="JF205479" begin="120" fromJunction="J7" toJunction="J0" end="180" vehsPerHour="46.97259517221848"/>
  <flow id="JF205480" begin="120" fromJunction="J7" toJunction="J3" end="180" vehsPerHour="27.02268872087508"/>
  <flow id="JF205481" begin="120" fromJunction="J5" toJunction="J0" end="180" vehsPerHour="59.679050160283104"/>
  <flow id="JF205482" begin="120" fromJunction="J5" toJunction="J3" end="180" vehsPerHour="55.45242351995215"/>
  <flow id="JF205483" begin="180" fromJunction="J0" toJunction="J3" end="240" vehsPerHour="268.7303243301599"/>
  <flow id="JF205484" begin="180" fromJunction="J3" toJunction="J0" end="240" vehsPerHour="68.6768300771519"/>
  <flow id="JF205485" begin="180" fromJunction="J0" toJunction="J6" end="240" vehsPerHour="116.66610220243558"/>
  <flow id="JF205486" begin="180" fromJunction="J0" toJunction="J4" end="240" vehsPerHour="120.96016418711557"/>
  <flow id="JF205487" begin="180" fromJunction="J0" toJunction="J7" end="240" vehsPerHour="28.92003556195071"/>
  <flow id="JF205488" begin="180" fromJunction="J0" toJunction="J5" end="240" vehsPerHour="35.51061937103834"/>
  <flow id="JF205489" begin="180" fromJunction="J3" toJunction="J6" end="240" vehsPerHour="39.29099841470525"/>
  <flow id="JF205490" begin="180" fromJunction="J3" toJunction="J4" end="240" vehsPerHour="107.28072092055363"/>
  <flow id="JF205491" begin="180" fromJunction="J3" toJunction="J7" end="240" vehsPerHour="36.1550469755179"/>
  <flow id="JF205492" begin="180" fromJunction="J3" toJunction="J5" end="240" vehsPerHour="59.94143928770393"/>
  <flow id="JF205493" begin="180" fromJunction="J6" toJunction="J4" end="240" vehsPerHour="23.020121509600347"/>
  <flow id="JF205494" begin="180" fromJunction="J6" toJunction="J7" end="240" vehsPerHour="5.783166642175716"/>
  <flow id="JF205495" begin="180" fromJunction="J6" toJunction="J5" end="240" vehsPerHour="46.774844388304786"/>
  <flow id="JF205496" begin="180" fromJunction="J4" toJunction="J6" end="240" vehsPerHour="10.916180617428296"/>
  <flow id="JF205497" begin="180" fromJunction="J4" toJunction="J7" end="240" vehsPerHour="56.55109091151859"/>
  <flow id="JF205498" begin="180" fromJunction="J4" toJunction="J5" end="240" vehsPerHour="32.7336954546505"/>
  <flow id="JF205499" begin="180" fromJunction="J7" toJunction="J6" end="240" vehsPerHour="39.80242395670816"/>
  <flow id="JF205500" begin="180" fromJunction="J7" toJunction="J4" end="240" vehsPerHour="57.95134868420804"/>
  <flow id="JF205501" begin="180" fromJunction="J7" toJunction="J5" end="240" vehsPerHour="42.217233651311766"/>
  <flow id="JF205502" begin="180" fromJunction="J5" toJunction="J6" end="240" vehsPerHour="60.928269668828655"/>
  <flow id="JF205503" begin="180" fromJunction="J5" toJunction="J4" end="240" vehsPerHour="33.65532145647723"/>
  <flow id="JF205504" begin="180" fromJunction="J5" toJunction="J7" end="240" vehsPerHour="13.361366731878736"/>
  <flow id="JF205505" begin="180" fromJunction="J6" toJunction="J0" end="240" vehsPerHour="55.53052527279499"/>
  <flow id="JF205506" begin="180" fromJunction="J6" toJunction="J3" end="240" vehsPerHour="39.06105371299481"/>
  <flow id="JF205507" begin="180" fromJunction="J4" toJunction="J0" end="240" vehsPerHour="25.304879372977222"/>
  <flow id="JF205508" begin="180" fromJunction="J4" toJunction="J3" end="240" vehsPerHour="26.531046536274257"/>
  <flow id="JF205509" begin="180" fromJunction="J7" toJunction="J0" end="240" vehsPerHour="0.35859778792347713"/>
  <flow id="JF205510" begin="180" fromJunction="J7" toJunction="J3" end="240" vehsPerHour="47.168897978107516"/>
  <flow id="JF205511" begin="180" fromJunction="J5" toJunction="J0" end="240" vehsPerHour="65.65912487138351"/>
  <flow id="JF205512" begin="180" fromJunction="J5" toJunction="J3" end="240" vehsPerHour="38.71406674388673"/>
  <flow id="JF205513" begin="240" fromJunction="J0" toJunction="J3" end="300" vehsPerHour="158.08307970839488"/>
  <flow id="JF205514" begin="240" fromJunction="J3" toJunction="J0" end="300" vehsPerHour="235.32010518257755"/>
  <flow id="JF205515" begin="240" fromJunction="J0" toJunction="J6" end="300" vehsPerHour="36.568598261721796"/>
  <flow id="JF205516" begin="240" fromJunction="J0" toJunction="J4" end="300" vehsPerHour="114.73297809676309"/>
  <flow id="JF205517" begin="240" fromJunction="J0" toJunction="J7" end="300" vehsPerHour="119.97320718528722"/>
  <flow id="JF205518" begin="240" fromJunction="J0" toJunction="J5" end="300" vehsPerHour="57.16063491522679"/>
  <flow id="JF205519" begin="240" fromJunction="J3" toJunction="J6" end="300" vehsPerHour="133.12943719137203"/>
  <flow id="JF205520" begin="240" fromJunction="J3" toJunction="J4" end="300" vehsPerHour="88.67891791347351"/>
  <flow id="JF205521" begin="240" fromJunction="J3" toJunction="J7" end="300" vehsPerHour="117.17275358271928"/>
  <flow id="JF205522" begin="240" fromJunction="J3" toJunction="J5" end="300" vehsPerHour="95.36825031802081"/>
  <flow id="JF205523" begin="240" fromJunction="J6" toJunction="J4" end="300" vehsPerHour="27.166306641393795"/>
  <flow id="JF205524" begin="240" fromJunction="J6" toJunction="J7" end="300" vehsPerHour="14.81103363364539"/>
  <flow id="JF205525" begin="240" fromJunction="J6" toJunction="J5" end="300" vehsPerHour="17.066045349850118"/>
  <flow id="JF205526" begin="240" fromJunction="J4" toJunction="J6" end="300" vehsPerHour="3.7268989945880975"/>
  <flow id="JF205527" begin="240" fromJunction="J4" toJunction="J7" end="300" vehsPerHour="8.773474240476775"/>
  <flow id="JF205528" begin="240" fromJunction="J4" toJunction="J5" end="300" vehsPerHour="25.76809085092076"/>
  <flow id="JF205529" begin="240" fromJunction="J7" toJunction="J6" end="300" vehsPerHour="34.11215283842448"/>
  <flow id="JF205530" begin="240" fromJunction="J7" toJunction="J4" end="300" vehsPerHour="63.96603016729198"/>
  <flow id="JF205531" begin="240" fromJunction="J7" toJunction="J5" end="300" vehsPerHour="53.1355829719919"/>
  <flow id="JF205532" begin="240" fromJunction="J5" toJunction="J6" end="300" vehsPerHour="61.17884799738041"/>
  <flow id="JF205533" begin="240" fromJunction="J5" toJunction="J4" end="300" vehsPerHour="67.3363124366828"/>
  <flow id="JF205534" begin="240" fromJunction="J5" toJunction="J7" end="300" vehsPerHour="0.385629990241391"/>
  <flow id="JF205535" begin="240" fromJunction="J6" toJunction="J0" end="300" vehsPerHour="5.779280294242934"/>
  <flow id="JF205536" begin="240" fromJunction="J6" toJunction="J3" end="300" vehsPerHour="53.45746651476738"/>
  <flow id="JF205537" begin="240" fromJunction="J4" toJunction="J0" end="300" vehsPerHour="37.9726032657569"/>
  <flow id="JF205538" begin="240" fromJunction="J4" toJunction="J3" end="300" vehsPerHour="55.047704221893405"/>
  <flow id="JF205539" begin="240" fromJunction="J7" toJunction="J0" end="300" vehsPerHour="58.80197166152626"/>
  <flow id="JF205540" begin="240" fromJunction="J7" toJunction="J3" end="300" vehsPerHour="1.0712797562143694"/>
  <flow id="JF205541" begin="240" fromJunction="J5" toJunction="J0" end="300" vehsPerHour="39.386058141727425"/>
  <flow id="JF205542" begin="240" fromJunction="J5" toJunction="J3" end="300" vehsPerHour="23.546971663171227"/>
  <flow id="JF205543" begin="300" fromJunction="J0" toJunction="J3" end="360" vehsPerHour="85.45329726791407"/>
  <flow id="JF205544" begin="300" fromJunction="J3" toJunction="J0" end="360" vehsPerHour="62.073574967158606"/>
  <flow id="JF205545" begin="300" fromJunction="J0" toJunction="J6" end="360" vehsPerHour="11.460071803804517"/>
  <flow id="JF205546" begin="300" fromJunction="J0" toJunction="J4" end="360" vehsPerHour="121.5222542845525"/>
  <flow id="JF205547" begin="300" fromJunction="J0" toJunction="J7" end="360" vehsPerHour="64.0359711043856"/>
  <flow id="JF205548" begin="300" fromJunction="J0" toJunction="J5" end="360" vehsPerHour="10.798033738704381"/>
  <flow id="JF205549" begin="300" fromJunction="J3" toJunction="J6" end="360" vehsPerHour="24.00916505191491"/>
  <flow id="JF205550" begin="300" fromJunction="J3" toJunction="J4" end="360" vehsPerHour="71.00879515888623"/>
  <flow id="JF205551" begin="300" fromJunction="J3" toJunction="J7" end="360" vehsPerHour="60.03595461485874"/>
  <flow id="JF205552" begin="300" fromJunction="J3" toJunction="J5" end="360" vehsPerHour="21.90619549758209"/>
  <flow id="JF205553" begin="300" fromJunction="J6" toJunction="J4" end="360" vehsPerHour="16.8549040796191"/>
  <flow id="JF205554" begin="300" fromJunction="J6" toJunction="J7" end="360" vehsPerHour="35.688261123654556"/>
  <flow id="JF205555" begin="300" fromJunction="J6" toJunction="J5" end="360" vehsPerHour="30.916088647250888"/>
  <flow id="JF205556" begin="300" fromJunction="J4" toJunction="J6" end="360" vehsPerHour="44.91960452204871"/>
  <flow id="JF205557" begin="300" fromJunction="J4" toJunction="J7" end="360" vehsPerHour="36.67841893854496"/>
  <flow id="JF205558" begin="300" fromJunction="J4" toJunction="J5" end="360" vehsPerHour="25.681107524710114"/>
  <flow id="JF205559" begin="300" fromJunction="J7" toJunction="J6" end="360" vehsPerHour="32.390757244822666"/>
  <flow id="JF205560" begin="300" fromJunction="J7" toJunction="J4" end="360" vehsPerHour="22.37179805569506"/>
  <flow id="JF205561" begin="300" fromJunction="J7" toJunction="J5" end="360" vehsPerHour="49.84075953963446"/>
  <flow id="JF205562" begin="300" fromJunction="J5" toJunction="J6" end="360" vehsPerHour="46.81590355649096"/>
  <flow id="JF205563" begin="300" fromJunction="J5" toJunction="J4" end="360" vehsPerHour="34.45093329260918"/>
  <flow id="JF205564" begin="300" fromJunction="J5" toJunction="J7" end="360" vehsPerHour="65.24390747162248"/>
  <flow id="JF205565" begin="300" fromJunction="J6" toJunction="J0" end="360" vehsPerHour="8.222958926316243"/>
  <flow id="JF205566" begin="300" fromJunction="J6" toJunction="J3" end="360" vehsPerHour="17.058761437764463"/>
  <flow id="JF205567" begin="300" fromJunction="J4" toJunction="J0" end="360" vehsPerHour="57.6749483601674"/>
  <flow id="JF205568" begin="300" fromJunction="J4" toJunction="J3" end="360" vehsPerHour="38.596318607761006"/>
  <flow id="JF205569" begin="300" fromJunction="J7" toJunction="J0" end="360" vehsPerHour="43.01389459309429"/>
  <flow id="JF205570" begin="300" fromJunction="J7" toJunction="J3" end="360" vehsPerHour="45.00365461180963"/>
  <flow id="JF205571" begin="300" fromJunction="J5" toJunction="J0" end="360" vehsPerHour="7.641007983490064"/>
  <flow id="JF205572" begin="300" fromJunction="J5" toJunction="J3" end="360" vehsPerHour="38.294987394040746"/>
  <flow id="JF205573" begin="360" fromJunction="J0" toJunction="J3" end="420" vehsPerHour="44.95478846067298"/>
  <flow id="JF205574" begin="360" fromJunction="J3" toJunction="J0" end="420" vehsPerHour="365.41210244170395"/>
  <flow id="JF205575" begin="360" fromJunction="J0" toJunction="J6" end="420" vehsPerHour="5.7253541463047695"/>
  <flow id="JF205576" begin="360" fromJunction="J0" toJunction="J4" end="420" vehsPerHour="127.61743193391963"/>
  <flow id="JF205577" begin="360" fromJunction="J0" toJunction="J7" end="420" vehsPerHour="78.40074949301881"/>
  <flow id="JF205578" begin="360" fromJunction="J0" toJunction="J5" end="420" vehsPerHour="62.389050721147214"/>
  <flow id="JF205579" begin="360" fromJunction="J3" toJunction="J6" end="420" vehsPerHour="8.29748670354899"/>
  <flow id="JF205580" begin="360" fromJunction="J3" toJunction="J4" end="420" vehsPerHour="85.8489363342181"/>
  <flow id="JF205581" begin="360" fromJunction="J3" toJunction="J7" end="420" vehsPerHour="40.257405988190655"/>
  <flow id="JF205582" begin="360" fromJunction="J3" toJunction="J5" end="420" vehsPerHour="123.12118362792438"/>
  <flow id="JF205583" begin="360" fromJunction="J6" toJunction="J4" end="420" vehsPerHour="60.51362079055055"/>
  <flow id="JF205584" begin="360" fromJunction="J6" toJunction="J7" end="420" vehsPerHour="11.23875370718363"/>
  <flow id="JF205585" begin="360" fromJunction="J6" toJunction="J5" end="420" vehsPerHour="18.300373254902297"/>
  <flow id="JF205586" begin="360" fromJunction="J4" toJunction="J6" end="420" vehsPerHour="53.92694821968286"/>
  <flow id="JF205587" begin="360" fromJunction="J4" toJunction="J7" end="420" vehsPerHour="64.13882813539908"/>
  <flow id="JF205588" begin="360" fromJunction="J4" toJunction="J5" end="420" vehsPerHour="16.375356745607863"/>
  <flow id="JF205589" begin="360" fromJunction="J7" toJunction="J6" end="420" vehsPerHour="45.187201720287014"/>
  <flow id="JF205590" begin="360" fromJunction="J7" toJunction="J4" end="420" vehsPerHour="58.55011087341376"/>
  <flow id="JF205591" begin="360" fromJunction="J7" toJunction="J5" end="420" vehsPerHour="15.707242561875976"/>
  <flow id="JF205592" begin="360" fromJunction="J5" toJunction="J6" end="420" vehsPerHour="39.29121359339664"/>
  <flow id="JF205593" begin="360" fromJunction="J5" toJunction="J4" end="420" vehsPerHour="17.316101818470546"/>
  <flow id="JF205594" begin="360" fromJunction="J5" toJunction="J7" end="420" vehsPerHour="43.851989370395216"/>
  <flow id="JF205595" begin="360" fromJunction="J6" toJunction="J0" end="420" vehsPerHour="14.189419815766577"/>
  <flow id="JF205596" begin="360" fromJunction="J6" toJunction="J3" end="420" vehsPerHour="53.369406919737216"/>
  <flow id="JF205597" begin="360" fromJunction="J4" toJunction="J0" end="420" vehsPerHour="1.3341676452140976"/>
  <flow id="JF205598" begin="360" fromJunction="J4" toJunction="J3" end="420" vehsPerHour="37.821074904910546"/>
  <flow id="JF205599" begin="360" fromJunction="J7" toJunction="J0" end="420" vehsPerHour="8.407936635863237"/>
  <flow id="JF205600" begin="360" fromJunction="J7" toJunction="J3" end="420" vehsPerHour="61.8496652179357"/>
  <flow id="JF205601" begin="360" fromJunction="J5" toJunction="J0" end="420" vehsPerHour="16.821608364653702"/>
  <flow id="JF205602" begin="360" fromJunction="J5" toJunction="J3" end="420" vehsPerHour="43.90951373598513"/>
  <flow id="JF205603" begin="420" fromJunction="J0" toJunction="J3" end="480" vehsPerHour="48.54016457675044"/>
  <flow id="JF205604" begin="420" fromJunction="J3" toJunction="J0" end="480" vehsPerHour="514.0229227135204"/>
  <flow id="JF205605" begin="420" fromJunction="J0" toJunction="J6" end="480" vehsPerHour="64.12820383792499"/>
  <flow id="JF205606" begin="420" fromJunction="J0" toJunction="J4" end="480" vehsPerHour="67.34191123062477"/>
  <flow id="JF205607" begin="420" fromJunction="J0" toJunction="J7" end="480" vehsPerHour="120.2678248447759"/>
  <flow id="JF205608" begin="420" fromJunction="J0" toJunction="J5" end="480" vehsPerHour="28.79283716532073"/>
  <flow id="JF205609" begin="420" fromJunction="J3" toJunction="J6" end="480" vehsPerHour="103.8698543775994"/>
  <flow id="JF205610" begin="420" fromJunction="J3" toJunction="J4" end="480" vehsPerHour="136.1350313156117"/>
  <flow id="JF205611" begin="420" fromJunction="J3" toJunction="J7" end="480" vehsPerHour="32.662718128037824"/>
  <flow id="JF205612" begin="420" fromJunction="J3" toJunction="J5" end="480" vehsPerHour="63.24269791244022"/>
  <flow id="JF205613" begin="480" fromJunction="J0" toJunction="J3" end="540" vehsPerHour="99.97590122965887"/>
  <flow id="JF205614" begin="480" fromJunction="J3" toJunction="J0" end="540" vehsPerHour="305.3312339091534"/>
  <flow id="JF205615" begin="480" fromJunction="J0" toJunction="J6" end="540" vehsPerHour="58.649142252537146"/>
  <flow id="JF205616" begin="480" fromJunction="J0" toJunction="J4" end="540" vehsPerHour="119.16418757981667"/>
  <flow id="JF205617" begin="480" fromJunction="J0" toJunction="J7" end="540" vehsPerHour="82.12454748650441"/>
  <flow id="JF205618" begin="480" fromJunction="J0" toJunction="J5" end="540" vehsPerHour="109.36283767387519"/>
  <flow id="JF205619" begin="480" fromJunction="J3" toJunction="J6" end="540" vehsPerHour="68.96679145278169"/>
  <flow id="JF205620" begin="480" fromJunction="J3" toJunction="J4" end="540" vehsPerHour="41.01954635950121"/>
  <flow id="JF205621" begin="480" fromJunction="J3" toJunction="J7" end="540" vehsPerHour="47.899787703964904"/>
  <flow id="JF205622" begin="480" fromJunction="J3" toJunction="J5" end="540" vehsPerHour="103.7878328149475"/>
  <flow id="JF205623" begin="480" fromJunction="J6" toJunction="J4" end="540" vehsPerHour="48.319043862253814"/>
  <flow id="JF205624" begin="480" fromJunction="J6" toJunction="J7" end="540" vehsPerHour="9.586580627437169"/>
  <flow id="JF205625" begin="480" fromJunction="J6" toJunction="J5" end="540" vehsPerHour="8.460621697414265"/>
  <flow id="JF205626" begin="480" fromJunction="J4" toJunction="J6" end="540" vehsPerHour="60.98947381788758"/>
  <flow id="JF205627" begin="480" fromJunction="J4" toJunction="J7" end="540" vehsPerHour="33.298227779871404"/>
  <flow id="JF205628" begin="480" fromJunction="J4" toJunction="J5" end="540" vehsPerHour="26.45442906610832"/>
  <flow id="JF205629" begin="480" fromJunction="J7" toJunction="J6" end="540" vehsPerHour="41.69868011202193"/>
  <flow id="JF205630" begin="480" fromJunction="J7" toJunction="J4" end="540" vehsPerHour="24.35540363229925"/>
  <flow id="JF205631" begin="480" fromJunction="J7" toJunction="J5" end="540" vehsPerHour="41.88961554912225"/>
  <flow id="JF205632" begin="480" fromJunction="J5" toJunction="J6" end="540" vehsPerHour="60.87065189422561"/>
  <flow id="JF205633" begin="480" fromJunction="J5" toJunction="J4" end="540" vehsPerHour="49.95190765731195"/>
  <flow id="JF205634" begin="480" fromJunction="J5" toJunction="J7" end="540" vehsPerHour="43.217944722304615"/>
  <flow id="JF205635" begin="480" fromJunction="J6" toJunction="J0" end="540" vehsPerHour="62.31988961389408"/>
  <flow id="JF205636" begin="480" fromJunction="J6" toJunction="J3" end="540" vehsPerHour="60.21888443673842"/>
  <flow id="JF205637" begin="480" fromJunction="J4" toJunction="J0" end="540" vehsPerHour="49.41523481123036"/>
  <flow id="JF205638" begin="480" fromJunction="J4" toJunction="J3" end="540" vehsPerHour="11.16966218552983"/>
  <flow id="JF205639" begin="480" fromJunction="J7" toJunction="J0" end="540" vehsPerHour="16.130789042534396"/>
  <flow id="JF205640" begin="480" fromJunction="J7" toJunction="J3" end="540" vehsPerHour="55.05911181199599"/>
  <flow id="JF205641" begin="480" fromJunction="J5" toJunction="J0" end="540" vehsPerHour="41.58400976274421"/>
  <flow id="JF205642" begin="480" fromJunction="J5" toJunction="J3" end="540" vehsPerHour="61.224481217972745"/>
  <flow id="JF205643" begin="540" fromJunction="J0" toJunction="J3" end="600" vehsPerHour="456.2000521934419"/>
  <flow id="JF205644" begin="540" fromJunction="J3" toJunction="J0" end="600" vehsPerHour="85.52512103464251"/>
  <flow id="JF205645" begin="540" fromJunction="J0" toJunction="J6" end="600" vehsPerHour="27.025780475444783"/>
  <flow id="JF205646" begin="540" fromJunction="J0" toJunction="J4" end="600" vehsPerHour="11.559101727542862"/>
  <flow id="JF205647" begin="540" fromJunction="J0" toJunction="J7" end="600" vehsPerHour="41.866761871406425"/>
  <flow id="JF205648" begin="540" fromJunction="J0" toJunction="J5" end="600" vehsPerHour="67.8608814340713"/>
  <flow id="JF205649" begin="540" fromJunction="J3" toJunction="J6" end="600" vehsPerHour="80.87609108373911"/>
  <flow id="JF205650" begin="540" fromJunction="J3" toJunction="J4" end="600" vehsPerHour="15.8400491034404"/>
  <flow id="JF205651" begin="540" fromJunction="J3" toJunction="J7" end="600" vehsPerHour="84.56114919017051"/>
  <flow id="JF205652" begin="540" fromJunction="J3" toJunction="J5" end="600" vehsPerHour="124.03084996429234"/>
  <flow id="JF205653" begin="540" fromJunction="J6" toJunction="J4" end="600" vehsPerHour="29.267795618110938"/>
  <flow id="JF205654" begin="540" fromJunction="J6" toJunction="J7" end="600" vehsPerHour="21.420862830308216"/>
  <flow id="JF205655" begin="540" fromJunction="J6" toJunction="J5" end="600" vehsPerHour="63.756170375751154"/>
  <flow id="JF205656" begin="540" fromJunction="J4" toJunction="J6" end="600" vehsPerHour="33.716932131201055"/>
  <flow id="JF205657" begin="540" fromJunction="J4" toJunction="J7" end="600" vehsPerHour="46.51975260495997"/>
  <flow id="JF205658" begin="540" fromJunction="J4" toJunction="J5" end="600" vehsPerHour="61.75088565158076"/>
  <flow id="JF205659" begin="540" fromJunction="J7" toJunction="J6" end="600" vehsPerHour="14.30283577986934"/>
  <flow id="JF205660" begin="540" fromJunction="J7" toJunction="J4" end="600" vehsPerHour="24.45441829269062"/>
  <flow id="JF205661" begin="540" fromJunction="J7" toJunction="J5" end="600" vehsPerHour="0.7231957275075945"/>
  <flow id="JF205662" begin="540" fromJunction="J5" toJunction="J6" end="600" vehsPerHour="64.23578904210747"/>
  <flow id="JF205663" begin="540" fromJunction="J5" toJunction="J4" end="600" vehsPerHour="63.14117706721968"/>
  <flow id="JF205664" begin="540" fromJunction="J5" toJunction="J7" end="600" vehsPerHour="13.544689067803638"/>
  <flow id="JF205665" begin="540" fromJunction="J6" toJunction="J0" end="600" vehsPerHour="7.4071297707799575"/>
  <flow id="JF205666" begin="540" fromJunction="J6" toJunction="J3" end="600" vehsPerHour="18.56046352094121"/>
  <flow id="JF205667" begin="540" fromJunction="J4" toJunction="J0" end="600" vehsPerHour="40.84907081387645"/>
  <flow id="JF205668" begin="540" fromJunction="J4" toJunction="J3" end="600" vehsPerHour="48.67715278080539"/>
  <flow id="JF205669" begin="540" fromJunction="J7" toJunction="J0" end="600" vehsPerHour="56.407200055049955"/>
  <flow id="JF205670" begin="540" fromJunction="J7" toJunction="J3" end="600" vehsPerHour="60.251108742368686"/>
  <flow id="JF205671" begin="540" fromJunction="J5" toJunction="J0" end="600" vehsPerHour="53.59728270887262"/>
  <flow id="JF205672" begin="540" fromJunction="J5" toJunction="J3" end="600" vehsPerHour="10.114792652523862"/>
  <flow id="JF205673" begin="600" fromJunction="J0" toJunction="J3" end="660" vehsPerHour="498.28802909594754"/>
  <flow id="JF205674" begin="600" fromJunction="J3" toJunction="J0" end="660" vehsPerHour="318.99787577215665"/>
  <flow id="JF205675" begin="600" fromJunction="J0" toJunction="J6" end="660" vehsPerHour="99.58614353475284"/>
  <flow id="JF205676" begin="600" fromJunction="J0" toJunction="J4" end="660" vehsPerHour="108.21012499407036"/>
  <flow id="JF205677" begin="600" fromJunction="J0" toJunction="J7" end="660" vehsPerHour="10.15202719096676"/>
  <flow id="JF205678" begin="600" fromJunction="J0" toJunction="J5" end="660" vehsPerHour="82.04796386247642"/>