<?xml version="1.0" encoding="UTF-8"?>
<routes xmlns:xsi="http://www.w3.org/2001/XMLSchema-instance" xsi:noNamespaceSchemaLocation="http://sumo.dlr.de/xsd/routes_file.xsd">
  <flow id="JF207493" begin="0" fromJunction="J0" toJunction="J3" end="60" vehsPerHour="424.82288773966695"/>
  <flow id="JF207494" begin="0" fromJunction="J3" toJunction="J0" end="60" vehsPerHour="444.18608304133073"/>
  <flow id="JF207495" begin="0" fromJunction="J0" toJunction="J6" end="60" vehsPerHour="13.666663033444054"/>
  <flow id="JF207496" begin="0" fromJunction="J0" toJunction="J4" end="60" vehsPerHour="10.022635251645168"/>
  <flow id="JF207497" begin="0" fromJunction="J0" toJunction="J7" end="60" vehsPerHour="15.005533918013356"/>
  <flow id="JF207498" begin="0" fromJunction="J0" toJunction="J5" end="60" vehsPerHour="12.583843892400086"/>
  <flow id="JF207499" begin="0" fromJunction="J3" toJunction="J6" end="60" vehsPerHour="122.07474671865926"/>
  <flow id="JF207500" begin="0" fromJunction="J3" toJunction="J4" end="60" vehsPerHour="127.02981616649707"/>
  <flow id="JF207501" begin="0" fromJunction="J3" toJunction="J7" end="60" vehsPerHour="105.1069506952689"/>
  <flow id="JF207502" begin="0" fromJunction="J3" toJunction="J5" end="60" vehsPerHour="69.64861646860415"/>
  <flow id="JF207503" begin="0" fromJunction="J6" toJunction="J4" end="60" vehsPerHour="8.52137930566225"/>
  <flow id="JF207504" begin="0" fromJunction="J6" toJunction="J7" end="60" vehsPerHour="45.6890954400243"/>
  <flow id="JF207505" begin="0" fromJunction="J6" toJunction="J5" end="60" vehsPerHour="27.04021518375304"/>
  <flow id="JF207506" begin="0" fromJunction="J4" toJunction="J6" end="60" vehsPerHour="41.505427062759786"/>
  <flow id="JF207507" begin="0" fromJunction="J4" toJunction="J7" end="60" vehsPerHour="14.311891334254337"/>
  <flow id="JF207508" begin="0" fromJunction="J4" toJunction="J5" end="60" vehsPerHour="36.128206283467804"/>
  <flow id="JF207509" begin="0" fromJunction="J7" toJunction="J6" end="60" vehsPerHour="24.738156789191795"/>
  <flow id="JF207510" begin="0" fromJunction="J7" toJunction="J4" end="60" vehsPerHour="12.365804493815455"/>
  <flow id="JF207511" begin="0" fromJunction="J7" toJunction="J5" end="60" vehsPerHour="2.3218336336147125"/>
  <flow id="JF207512" begin="0" fromJunction="J5" toJunction="J6" end="60" vehsPerHour="0.28862096413799576"/>
  <flow id="JF207513" begin="0" fromJunction="J5" toJunction="J4" end="60" vehsPerHour="0.48257373262475173"/>
  <flow id="JF207514" begin="0" fromJunction="J5" toJunction="J7" end="60" vehsPerHour="31.83130638330369"/>
  <flow id="JF207515" begin="0" fromJunction="J6" toJunction="J0" end="60" vehsPerHour="22.64926330275301"/>
  <flow id="JF207516" begin="0" fromJunction="J6" toJunction="J3" end="60" vehsPerHour="54.50205674066635"/>
  <flow id="JF207517" begin="0" fromJunction="J4" toJunction="J0" end="60" vehsPerHour="8.662259799758397"/>
  <flow id="JF207518" begin="0" fromJunction="J4" toJunction="J3" end="60" vehsPerHour="56.39806485565843"/>
  <flow id="JF207519" begin="0" fromJunction="J7" toJunction="J0" end="60" vehsPerHour="53.23594321127666"/>
  <flow id="JF207520" begin="0" fromJunction="J7" toJunction="J3" end="60" vehsPerHour="55.95083567821342"/>
  <flow id="JF207521" begin="0" fromJunction="J5" toJunction="J0" end="60" vehsPerHour="44.31947876383223"/>
  <flow id="JF207522" begin="0" fromJunction="J5" toJunction="J3" end="60" vehsPerHour="0.25524221880281284"/>
  <flow id="JF207523" begin="60" fromJunction="J0" toJunction="J3" end="120" vehsPerHour="538.5921035748771"/>
  <flow id="JF207524" begin="60" fromJunction="J3" toJunction="J0" end="120" vehsPerHour="250.48635109722835"/>
  <flow id="JF207525" begin="60" fromJunction="J0" toJunction="J6" end="120" vehsPerHour="41.16842139679124"/>
  <flow id="JF207526" begin="60" fromJunction="J0" toJunction="J4" end="120" vehsPerHour="4.863444298344022"/>
  <flow id="JF207527" begin="60" fromJunction="J0" toJunction="J7" end="120" vehsPerHour="4.25083604210705"/>
  <flow id="JF207528" begin="60" fromJunction="J0" toJunction="J5" end="120" vehsPerHour="33.22093510113373"/>
  <flow id="JF207529" begin="60" fromJunction="J3" toJunction="J6" end="120" vehsPerHour="22.977623504260464"/>
  <flow id="JF207530" begin="60" fromJunction="J3" toJunction="J4" end="120" vehsPerHour="95.41789655194995"/>
  <flow id="JF207531" begin="60" fromJunction="J3" toJunction="J7" end="120" vehsPerHour="51.88095834537077"/>
  <flow id="JF207532" begin="60" fromJunction="J3" toJunction="J5" end="120" vehsPerHour="110.82862458520488"/>
  <flow id="JF207533" begin="60" fromJunction="J6" toJunction="J4" end="120" vehsPerHour="62.13151010614397"/>
  <flow id="JF207534" begin="60" fromJunction="J6" toJunction="J7" end="120" vehsPerHour="26.603340242851242"/>
  <flow id="JF207535" begin="60" fromJunction="J6" toJunction="J5" end="120" vehsPerHour="3.8640777579819594"/>
  <flow id="JF207536" begin="60" fromJunction="J4" toJunction="J6" end="120" vehsPerHour="43.05005257082425"/>
  <flow id="JF207537" begin="60" fromJunction="J4" toJunction="J7" end="120" vehsPerHour="39.13290522085006"/>
  <flow id="JF207538" begin="60" fromJunction="J4" toJunction="J5" end="120" vehsPerHour="50.44334417578642"/>
  <flow id="JF207539" begin="60" fromJunction="J7" toJunction="J6" end="120" vehsPerHour="57.966390493696096"/>
  <flow id="JF207540" begin="60" fromJunction="J7" toJunction="J4" end="120" vehsPerHour="18.90562819231023"/>
  <flow id="JF207541" begin="60" fromJunction="J7" toJunction="J5" end="120" vehsPerHour="60.4449165161209"/>
  <flow id="JF207542" begin="60" fromJunction="J5" toJunction="J6" end="120" vehsPerHour="16.390058787877493"/>
  <flow id="JF207543" begin="60" fromJunction="J5" toJunction="J4" end="120" vehsPerHour="3.0153279789940837"/>
  <flow id="JF207544" begin="60" fromJunction="J5" toJunction="J7" end="120" vehsPerHour="35.92011709405573"/>
  <flow id="JF207545" begin="60" fromJunction="J6" toJunction="J0" end="120" vehsPerHour="49.663461286360395"/>
  <flow id="JF207546" begin="60" fromJunction="J6" toJunction="J3" end="120" vehsPerHour="43.00340271455322"/>
  <flow id="JF207547" begin="60" fromJunction="J4" toJunction="J0" end="120" vehsPerHour="23.98909759498691"/>
  <flow id="JF207548" begin="60" fromJunction="J4" toJunction="J3" end="120" vehsPerHour="28.418414953649293"/>
  <flow id="JF207549" begin="60" fromJunction="J7" toJunction="J0" end="120" vehsPerHour="0.8099037284316225"/>
  <flow id="JF207550" begin="60" fromJunction="J7" toJunction="J3" end="120" vehsPerHour="59.7029167409662"/>
  <flow id="JF207551" begin="60" fromJunction="J5" toJunction="J0" end="120" vehsPerHour="61.16492907660849"/>
  <flow id="JF207552" begin="60" fromJunction="J5" toJunction="J3" end="120" vehsPerHour="65.72146840717573"/>
  <flow id="JF207553" begin="120" fromJunction="J0" toJunction="J3" end="180" vehsPerHour="461.2386808459368"/>
  <flow id="JF207554" begin="120" fromJunction="J3" toJunction="J0" end="180" vehsPerHour="272.168775683815"/>
  <flow id="JF207555" begin="120" fromJunction="J0" toJunction="J6" end="180" vehsPerHour="68.69058878439643"/>
  <flow id="JF207556" begin="120" fromJunction="J0" toJunction="J4" end="180" vehsPerHour="36.17060970749222"/>
  <flow id="JF207557" begin="120" fromJunction="J0" toJunction="J7" end="180" vehsPerHour="21.965097197147955"/>
  <flow id="JF207558" begin="120" fromJunction="J0" toJunction="J5" end="180" vehsPerHour="57.68801317608626"/>
  <flow id="JF207559" begin="120" fromJunction="J3" toJunction="J6" end="180" vehsPerHour="82.10657374159817"/>
  <flow id="JF207560" begin="120" fromJunction="J3" toJunction="J4" end="180" vehsPerHour="17.275258637087635"/>
  <flow id="JF207561" begin="120" fromJunction="J3" toJunction="J7" end="180" vehsPerHour="94.54697030425059"/>
  <flow id="JF207562" begin="120" fromJunction="J3" toJunction="J5" end="180" vehsPerHour="104.39893689892101"/>
  <flow id="JF207563" begin="180" fromJunction="J0" toJunction="J3" end="240" vehsPerHour="216.21318775008197"/>
  <flow id="JF207564" begin="180" fromJunction="J3" toJunction="J0" end="240" vehsPerHour="357.65753304304684"/>
  <flow id="JF207565" begin="180" fromJunction="J0" toJunction="J6" end="240" vehsPerHour="77.18414290046177"/>
  <flow id="JF207566" begin="180" fromJunction="J0" toJunction="J4" end="240" vehsPerHour="98.21427199120954"/>
  <flow id="JF207567" begin="180" fromJunction="J0" toJunction="J7" end="240" vehsPerHour="24.38389160162874"/>
  <flow id="JF207568" begin="180" fromJunction="J0" toJunction="J5" end="240" vehsPerHour="130.52131714868085"/>
  <flow id="JF207569" begin="180" fromJunction="J3" toJunction="J6" end="240" vehsPerHour="73.84587154589383"/>
  <flow id="JF207570" begin="180" fromJunction="J3" toJunction="J4" end="240" vehsPerHour="92.61718868432594"/>
  <flow id="JF207571" begin="180" fromJunction="J3" toJunction="J7" end="240" vehsPerHour="88.15822459232884"/>
  <flow id="JF207572" begin="180" fromJunction="J3" toJunction="J5" end="240" vehsPerHour="94.60165076090213"/>
  <flow id="JF207573" begin="180" fromJunction="J6" toJunction="J4" end="240" vehsPerHour="33.29301753773948"/>
  <flow id="JF207574" begin="180" fromJunction="J6" toJunction="J7" end="240" vehsPerHour="40.87387384057825"/>
  <flow id="JF207575" begin="180" fromJunction="J6" toJunction="J5" end="240" vehsPerHour="3.015695138571135"/>
  <flow id="JF207576" begin="180" fromJunction="J4" toJunction="J6" end="240" vehsPerHour="18.95278171673619"/>
  <flow id="JF207577" begin="180" fromJunction="J4" toJunction="J7" end="240" vehsPerHour="44.31874884497108"/>
  <flow id="JF207578" begin="180" fromJunction="J4" toJunction="J5" end="240" vehsPerHour="48.76742081541696"/>
  <flow id="JF207579" begin="180" fromJunction="J7" toJunction="J6" end="240" vehsPerHour="43.14593224044684"/>
  <flow id="JF207580" begin="180" fromJunction="J7" toJunction="J4" end="240" vehsPerHour="66.69595685925553"/>
  <flow id="JF207581" begin="180" fromJunction="J7" toJunction="J5" end="240" vehsPerHour="36.21301827262946"/>
  <flow id="JF207582" begin="180" fromJunction="J5" toJunction="J6" end="240" vehsPerHour="2.041010985136472"/>
  <flow id="JF207583" begin="180" fromJunction="J5" toJunction="J4" end="240" vehsPerHour="47.81334345224653"/>
  <flow id="JF207584" begin="180" fromJunction="J5" toJunction="J7" end="240" vehsPerHour="60.42364013606595"/>
  <flow id="JF207585" begin="180" fromJunction="J6" toJunction="J0" end="240" vehsPerHour="5.562107828348872"/>
  <flow id="JF207586" begin="180" fromJunction="J6" toJunction="J3" end="240" vehsPerHour="33.05143536846186"/>
  <flow id="JF207587" begin="180" fromJunction="J4" toJunction="J0" end="240" vehsPerHour="45.783822874458785"/>
  <flow id="JF207588" begin="180" fromJunction="J4" toJunction="J3" end="240" vehsPerHour="13.927632851657666"/>
  <flow id="JF207589" begin="180" fromJunction="J7" toJunction="J0" end="240" vehsPerHour="13.662781041216308"/>
  <flow id="JF207590" begin="180" fromJunction="J7" toJunction="J3" end="240" vehsPerHour="57.067314745797965"/>
  <flow id="JF207591" begin="180" fromJunction="J5" toJunction="J0" end="240" vehsPerHour="11.756193010827776"/>
  <flow id="JF207592" begin="180" fromJunction="J5" toJunction="J3" end="240" vehsPerHour="9.620798982307354"/>
  <flow id="JF207593" begin="240" fromJunction="J0" toJunction="J3" end="300" vehsPerHour="129.37749856189234"/>
  <flow id="JF207594" begin="240" fromJunction="J3" toJunction="J0" end="300" vehsPerHour="445.8682721923123"/>
  <flow id="JF207595" begin="240" fromJunction="J0" toJunction="J6" end="300" vehsPerHour="16.043041096882195"/>
  <flow id="JF207596" begin="240" fromJunction="J0" toJunction="J4" end="300" vehsPerHour="68.64157973798498"/>
  <flow id="JF207597" begin="240" fromJunction="J0" toJunction="J7" end="300" vehsPerHour="31.2355649907453"/>
  <flow id="JF207598" begin="240" fromJunction="J0" toJunction="J5" end="300" vehsPerHour="103.6588094064446"/>
  <flow id="JF207599" begin="240" fromJunction="J3" toJunction="J6" end="300" vehsPerHour="56.68340943122324"/>
  <flow id="JF207600" begin="240" fromJunction="J3" toJunction="J4" end="300" vehsPerHour="36.96309158949491"/>
  <flow id="JF207601" begin="240" fromJunction="J3" toJunction="J7" end="300" vehsPerHour="88.82374115190112"/>
  <flow id="JF207602" begin="240" fromJunction="J3" toJunction="J5" end="300" vehsPerHour="39.6032855540486"/>
  <flow id="JF207603" begin="300" fromJunction="J0" toJunction="J3" end="360" vehsPerHour="177.626202458586"/>
  <flow id="JF207604" begin="300" fromJunction="J3" toJunction="J0" end="360" vehsPerHour="458.34198600210266"/>
  <flow id="JF207605" begin="300" fromJunction="J0" toJunction="J6" end="360" vehsPerHour="81.14705871694602"/>
  <flow id="JF207606" begin="300" fromJunction="J0" toJunction="J4" end="360" vehsPerHour="38.50002034724806"/>
  <flow id="JF207607" begin="300" fromJunction="J0" toJunction="J7" end="360" vehsPerHour="12.176509924947995"/>
  <flow id="JF207608" begin="300" fromJunction="J0" toJunction="J5" end="360" vehsPerHour="51.83288689032677"/>
  <flow id="JF207609" begin="300" fromJunction="J3" toJunction="J6" end="360" vehsPerHour="37.0299028977129"/>
  <flow id="JF207610" begin="300" fromJunction="J3" toJunction="J4" end="360" vehsPerHour="60.196918313180284"/>
  <flow id="JF207611" begin="300" fromJunction="J3" toJunction="J7" end="360" vehsPerHour="134.06034253580623"/>
  <flow id="JF207612" begin="300" fromJunction="J3" toJunction="J5" end="360" vehsPerHour="125.45910945323843"/>
  <flow id="JF207613" begin="360" fromJunction="J0" toJunction="J3" end="420" vehsPerHour="464.6036475782929"/>
  <flow id="JF207614" begin="360" fromJunction="J3" toJunction="J0" end="420" vehsPerHour="180.83639713381814"/>
  <flow id="JF207615" begin="360" fromJunction="J0" toJunction="J6" end="420" vehsPerHour="55.8843945874399"/>
  <flow id="JF207616" begin="360" fromJunction="J0" toJunction="J4" end="420" vehsPerHour="45.963715225516424"/>
  <flow id="JF207617" begin="360" fromJunction="J0" toJunction="J7" end="420" vehsPerHour="60.33660207179014"/>
  <flow id="JF207618" begin="360" fromJunction="J0" toJunction="J5" end="420" vehsPerHour="28.973541147416135"/>
  <flow id="JF207619" begin="360" fromJunction="J3" toJunction="J6" end="420" vehsPerHour="49.45094958509772"/>
  <flow id="JF207620" begin="360" fromJunction="J3" toJunction="J4" end="420" vehsPerHour="30.863503913358617"/>
  <flow id="JF207621" begin="360" fromJunction="J3" toJunction="J7" end="420" vehsPerHour="134.7767658985521"/>
  <flow id="JF207622" begin="360" fromJunction="J3" toJunction="J5" end="420" vehsPerHour="64.7973909293963"/>
  <flow id="JF207623" begin="360" fromJunction="J6" toJunction="J4" end="420" vehsPerHour="63.428117100761874"/>
  <flow id="JF207624" begin="360" fromJunction="J6" toJunction="J7" end="420" vehsPerHour="57.99707108476711"/>
  <flow id="JF207625" begin="360" fromJunction="J6" toJunction="J5" end="420" vehsPerHour="56.185966071597214"/>
  <flow id="JF207626" begin="360" fromJunction="J4" toJunction="J6" end="420" vehsPerHour="44.35040091212737"/>
  <flow id="JF207627" begin="360" fromJunction="J4" toJunction="J7" end="420" vehsPerHour="41.665019922809556"/>
  <flow id="JF207628" begin="360" fromJunction="J4" toJunction="J5" end="420" vehsPerHour="19.62048090339856"/>
  <flow id="JF207629" begin="360" fromJunction="J7" toJunction="J6" end="420" vehsPerHour="30.19795652070726"/>
  <flow id="JF207630" begin="360" fromJunction="J7" toJunction="J4" end="420" vehsPerHour="51.57000060205556"/>
  <flow id="JF207631" begin="360" fromJunction="J7" toJunction="J5" end="420" vehsPerHour="43.528508806193386"/>
  <flow id="JF207632" begin="360" fromJunction="J5" toJunction="J6" end="420" vehsPerHour="32.008997258960456"/>
  <flow id="JF207633" begin="360" fromJunction="J5" toJunction="J4" end="420" vehsPerHour="26.153965309600107"/>
  <flow id="JF207634" begin="360" fromJunction="J5" toJunction="J7" end="420" vehsPerHour="68.02516415387066"/>
  <flow id="JF207635" begin="360" fromJunction="J6" toJunction="J0" end="420" vehsPerHour="15.942626729531128"/>
  <flow id="JF207636" begin="360" fromJunction="J6" toJunction="J3" end="420" vehsPerHour="48.42980956294623"/>
  <flow id="JF207637" begin="360" fromJunction="J4" toJunction="J0" end="420" vehsPerHour="52.83160816309015"/>
  <flow id="JF207638" begin="360" fromJunction="J4" toJunction="J3" end="420" vehsPerHour="33.95891387509858"/>
  <flow id="JF207639" begin="360" fromJunction="J7" toJunction="J0" end="420" vehsPerHour="6.548947713700844"/>
  <flow id="JF207640" begin="360" fromJunction="J7" toJunction="J3" end="420" vehsPerHour="60.406911443420846"/>
  <flow id="JF207641" begin="360" fromJunction="J5" toJunction="J0" end="420" vehsPerHour="57.113356057021946"/>
  <flow id="JF207642" begin="360" fromJunction="J5" toJunction="J3" end="420" vehsPerHour="13.169259713604209"/>
  <flow id="JF207643" begin="420" fromJunction="J0" toJunction="J3" end="480" vehsPerHour="211.84327604389892"/>
  <flow id="JF207644" begin="420" fromJunction="J3" toJunction="J0" end="480" vehsPerHour="159.8548202901969"/>
  <flow id="JF207645" begin="420" fromJunction="J0" toJunction="J6" end="480" vehsPerHour="20.253098781215616"/>
  <flow id="JF207646" begin="420" fromJunction="J0" toJunction="J4" end="480" vehsPerHour="129.72023531184016"/>
  <flow id="JF207647" begin="420" fromJunction="J0" toJunction="J7" end="480" vehsPerHour="116.42658406884811"/>
  <flow id="JF207648" begin="420" fromJunction="J0" toJunction="J5" end="480" vehsPerHour="80.72159162776313"/>
  <flow id="JF207649" begin="420" fromJunction="J3" toJunction="J6" end="480" vehsPerHour="123.27554367820811"/>
  <flow id="JF207650" begin="420" fromJunction="J3" toJunction="J4" end="480" vehsPerHour="91.02670188686186"/>
  <flow id="JF207651" begin="420" fromJunction="J3" toJunction="J7" end="480" vehsPerHour="78.24044033595003"/>
  <flow id="JF207652" begin="420" fromJunction="J3" toJunction="J5" end="480" vehsPerHour="6.0120434341779285"/>
  <flow id="JF207653" begin="420" fromJunction="J6" toJunction="J4" end="480" vehsPerHour="57.45300169608769"/>
  <flow id="JF207654" begin="420" fromJunction="J6" toJunction="J7" end="480" vehsPerHour="16.933847725340858"/>
  <flow id="JF207655" begin="420" fromJunction="J6" toJunction="J5" end="480" vehsPerHour="0.526544460849311"/>
  <flow id="JF207656" begin="420" fromJunction="J4" toJunction="J6" end="480" vehsPerHour="36.88575714004232"/>
  <flow id="JF207657" begin="420" fromJunction="J4" toJunction="J7" end="480" vehsPerHour="32.06435434876036"/>
  <flow id="JF207658" begin="420" fromJunction="J4" toJunction="J5" end="480" vehsPerHour="19.86253288442296"/>
  <flow id="JF207659" begin="420" fromJunction="J7" toJunction="J6" end="480" vehsPerHour="46.922494322242834"/>
  <flow id="JF207660" begin="420" fromJunction="J7" toJunction="J4" end="480" vehsPerHour="16.463200450040524"/>
  <flow id="JF207661" begin="420" fromJunction="J7" toJunction="J5" end="480" vehsPerHour="3.279425706061687"/>
  <flow id="JF207662" begin="420" fromJunction="J5" toJunction="J6" end="480" vehsPerHour="14.400480683361538"/>
  <flow id="JF207663" begin="420" fromJunction="J5" toJunction="J4" end="480" vehsPerHour="26.26115684414856"/>
  <flow id="JF207664" begin="420" fromJunction="J5" toJunction="J7" end="480" vehsPerHour="38.70001544068295"/>
  <flow id="JF207665" begin="420" fromJunction="J6" toJunction="J0" end="480" vehsPerHour="36.080063226696"/>
  <flow id="JF207666" begin="420" fromJunction="J6" toJunction="J3" end="480" vehsPerHour="64.7467184808377"/>
  <flow id="JF207667" begin="420" fromJunction="J4" toJunction="J0" end="480" vehsPerHour="67.18840155672162"/>
  <flow id="JF207668" begin="420" fromJunction="J4" toJunction="J3" end="480" vehsPerHour="60.34199050643924"/>
  <flow id="JF207669" begin="420" fromJunction="J7" toJunction="J0" end="480" vehsPerHour="6.385648016091467"/>
  <flow id="JF207670" begin="420" fromJunction="J7" toJunction="J3" end="480" vehsPerHour="60.8117210556738"/>
  <flow id="JF207671" begin="420" fromJunction="J5" toJunction="J0" end="480" vehsPerHour="40.44843278461048"/>
  <flow id="JF207672" begin="420" fromJunction="J5" toJunction="J3" end="480" vehsPerHour="62.274212871267586"/>
  <flow id="JF207673" begin="480" fromJunction="J0" toJunction="J3" end="540" vehsPerHour="21.483520137874077"/>
  <flow id="JF207674" begin="480" fromJunction="J3" toJunction="J0" end="540" vehsPerHour="136.20701437946244"/>
  <flow id="JF207675" begin="480" fromJunction="J0" toJunction="J6" end="540" vehsPerHour="11.60242397740386"/>
  <flow id="JF207676" begin="480" fromJunction="J0" toJunction="J4" end="540" vehsPerHour="7.461364763928041"/>
  <flow id="JF207677" begin="480" fromJunction="J0" toJunction="J7" end="540" vehsPerHour="126.82570518225921"/>
  <flow id="JF207678" begin="480" fromJunction="J0" toJunction="J5" end="540" vehsPerHour="40.75642957835401"/>
  <flow id="JF207679" begin="480" fromJunction="J3" toJunction="J6" end="540" vehsPerHour="118.14844351964459"/>
  <flow id="JF207680" begin="480" fromJunction="J3" toJunction="J4" end="540" vehsPerHour="65.92839190309905"/>
  <flow id="JF207681" begin="480" fromJunction="J3" toJunction="J7" end="540" vehsPerHour="30.35902417877358"/>
  <flow id="JF207682" begin="480" fromJunction="J3" toJunction="J5" end="540" vehsPerHour="47.15247701672506"/>
  <flow id="JF207683" begin="480" fromJunction="J6" toJunction="J4" end="540" vehsPerHour="60.39986924008872"/>
  <flow id="JF207684" begin="480" fromJunction="J6" toJunction="J7" end="540" vehsPerHour="9.33272176713005"/>
  <flow id="JF207685" begin="480" fromJunction="J6" toJunction="J5" end="540" vehsPerHour="4.290893272127399"/>
  <flow id="JF207686" begin="480" fromJunction="J4" toJunction="J6" end="540" vehsPerHour="33.46643142927371"/>
  <flow id="JF207687" begin="480" fromJunction="J4" toJunction="J7" end="540" vehsPerHour="41.63769805137999"/>
  <flow id="JF207688" begin="480" fromJunction="J4" toJunction="J5" end="540" vehsPerHour="22.03656799614935"/>
  <flow id="JF207689" begin="480" fromJunction="J7" toJunction="J6" end="540" vehsPerHour="14.40126511882451"/>
  <flow id="JF207690" begin="480" fromJunction="J7" toJunction="J4" end="540" vehsPerHour="49.06131787515957"/>
  <flow id="JF207691" begin="480" fromJunction="J7" toJunction="J5" end="540" vehsPerHour="17.194253174513985"/>
  <flow id="JF207692" begin="480" fromJunction="J5" toJunction="J6" end="540" vehsPerHour="48.22307923855686"/>
  <flow id="JF207693" begin="480" fromJunction="J5" toJunction="J4" end="540" vehsPerHour="61.10387295035324"/>
  <flow id="JF207694" begin="480" fromJunction="J5" toJunction="J7" end="540" vehsPerHour="9.919732107691633"/>
  <flow id="JF207695" begin="480" fromJunction="J6" toJunction="J0" end="540" vehsPerHour="21.506778069715704"/>
  <flow id="JF207696" begin="480" fromJunction="J6" toJunction="J3" end="540" vehsPerHour="52.172544689103646"/>
  <flow id="JF207697" begin="480" fromJunction="J4" toJunction="J0" end="540" vehsPerHour="49.704410813423856"/>
  <flow id="JF207698" begin="480" fromJunction="J4" toJunction="J3" end="540" vehsPerHour="55.62071793178719"/>
  <flow id="JF207699" begin="480" fromJunction="J7" toJunction="J0" end="540" vehsPerHour="35.37699092720302"/>
  <flow id="JF207700" begin="480" fromJunction="J7" toJunction="J3" end="540" vehsPerHour="2.7612727804260873"/>
  <flow id="JF207701" begin="480" fromJunction="J5" toJunction="J0" end="540" vehsPerHour="3.4542773472892465"/>
  <flow id="JF207702" begin="480" fromJunction="J5" toJunction="J3" end="540" vehsPerHour="44.10683639652802"/>
  <flow id="JF207703" begin="540" fromJunction="J0" toJunction="J3" end="600" vehsPerHour="135.96779420625657"/>
  <flow id="JF207704" begin="540" fromJunction="J3" toJunction="J0" end="600" vehsPerHour="92.56876013596346"/>
  <flow id="JF207705" begin="540" fromJunction="J0" toJunction="J6" end="600" vehsPerHour="10.711987700213047"/>
  <flow id="JF207706" begin="540" fromJunction="J0" toJunction="J4" end="600" vehsPerHour="7.856085709808622"/>
  <flow id="JF207707" begin="540" fromJunction="J0" toJunction="J7" end="600" vehsPerHour="69.40598551557191"/>
  <flow id="JF207708" begin="540" fromJunction="J0" toJunction="J5" end="600" vehsPerHour="14.482193214936176"/>
  <flow id="JF207709" begin="540" fromJunction="J3" toJunction="J6" end="600" vehsPerHour="130.176760578176"/>
  <flow id="JF207710" begin="540" fromJunction="J3" toJunction="J4" end="600" vehsPerHour="51.49772390337279"/>
  <flow id="JF207711" begin="540" fromJunction="J3" toJunction="J7" end="600" vehsPerHour="104.71300893825935"/>
  <flow id="JF207712" begin="540" fromJunction="J3" toJunction="J5" end="600" vehsPerHour="86.39312201701904"/>
  <flow id="JF207713" begin="600" fromJunction="J0" toJunction="J3" end="660" vehsPerHour="412.835173533118"/>
  <flow id="JF207714" begin="600" fromJunction="J3" toJunction="J0" end="660" vehsPerHour="282.2975644288704"/>
  <flow id="JF207715" begin="600" fromJunction="J0" toJunction="J6" end="660" vehsPerHour="31.07757373523213"/>
  <flow id="JF207716" begin="600" fromJunction="J0" toJunction="J4" end="660" vehsPerHour="54.3579475154883"/>
  <flow id="JF207717" begin="600" fromJunction="J0" toJunction="J7" end="660" vehsPerHour="83.26331647335266"/>
  <flow id="JF207718" begin="600" fromJunction="J0" toJunction="J5" end="660" vehsPerHour="6.5139100112951045"/>
  <flow id="JF207719" begin="600" fromJunction="J3" toJunction="J6" end="660" vehsPerHour="50.31937062150939"/>
  <flow id="JF207720" begin="600" fromJunction="J3" toJunction="J4" end="660" vehsPerHour="17.72437270309503"/>
  <flow id="JF207721" begin="600" fromJunction="J3" toJunction="J7" end="660" vehsPerHour="120.98975651615089"/>
  <flow id="JF207722" begin="600" fromJunction="J3" toJunction="J5" end="660" vehsPerHour="116.78148107364481"/>
  <flow id="JF207723" begin="600" fromJunction="J6" toJunction="J4" end="660" vehsPerHour="66.92143427206797"/>
  <flow id="JF207724" begin="600" fromJunction="J6" toJunction="J7" end="660" vehsPerHour="51.08046590630668"/>
  <flow id="JF207725" begin="600" fromJunction="J6" toJunction="J5" end="660" vehsPerHour="2.4553411559361655"/>
  <flow id="JF207726" begin="600" fromJunction="J4" toJunction="J6" end="660" vehsPerHour="9.372190627112774"/>
  <flow id="JF207727" begin="600" fromJunction="J4" toJunction="J7" end="660" vehsPerHour="65.25759095160674"/>
  <flow id="JF207728" begin="600" fromJunction="J4" toJunction="J5" end="660" vehsPerHour="66.49494977274813"/>
  <flow id="JF207729" begin="600" fromJunction="J7" toJunction="J6" end="660" vehsPerHour="14.319851114155039"/>
  <flow id="JF207730" begin="600" fromJunction="J7" toJunction="J4" end="660" vehsPerHour="5.569260793247544"/>
  <flow id="JF207731" begin="600" fromJunction="J7" toJunction="J5" end="660" vehsPerHour="38.20252009965325"/>
  <flow id="JF207732" begin="600" fromJunction="J5" toJunction="J6" end="660" vehsPerHour="67.86019285017096"/>
  <flow id="JF207733" begin="600" fromJunction="J5" toJunction="J4" end="660" vehsPerHour="27.247787648070354"/>
  <flow id="JF207734" begin="600" fromJunction="J5" toJunction="J7" end="660" vehsPerHour="50.873897100381164"/>
  <flow id="JF207735" begin="600" fromJunction="J6" toJunction="J0" end="660" vehsPerHour="21.003090771938055"/>
  <flow id="JF207736" begin="600" fromJunction="J6" toJunction="J3" end="660" vehsPerHour="1.5020153436630932"/>
  <flow id="JF207737" begin="600" fromJunction="J4" toJunction="J0" end="660" vehsPerHour="2.228333309900883"/>
  <flow id="JF207738" begin="600" fromJunction="J4" toJunction="J3" end="660" vehsPerHour="18.905224977324206"/>
  <flow id="JF207739" begin="600" fromJunction="J7" toJunction="J0" end="660" vehsPerHour="2.6258033839777157"/>
  <flow id="JF207740" begin="600" fromJunction="J7" toJunction="J3" end="660" vehsPerHour="11.90005314601366"/>
  <flow id="JF207741" begin="600" fromJunction="J5" toJunction="J0" end="660" vehsPerHour="44.77329286266319"/>
  <flow id="JF207742" begin="600" fromJunction="J5" toJunction="J3" end="660" vehsPerHour="20.605550415491063"/>
  <flow id="JF207743" begin="660" fromJunction="J0" toJunction="J3" end="720" vehsPerHour="483.5634007130997"/>
  <flow id="JF207744" begin="660" fromJunction="J3" toJunction="J0" end="720" vehsPerHour="541.7448033570262"/>
  <flow id="JF207745" begin="660" fromJunction="J0" toJunction="J6" end="720" vehsPerHour="117.21937259676577"/>
  <flow id="JF207746" begin="660" fromJunction="J0" toJunction="J4" end="720" vehsPerHour="67.003555569407"/>
  <flow id="JF207747" begin="660" fromJunction="J0" toJunction="J7" end="720" vehsPerHour="62.36330798410895"/>
  <flow id="JF207748" begin="660" fromJunction="J0" toJunction="J5" end="720" vehsPerHour="107.27053903254699"/>
  <flow id="JF207749" begin="660" fromJunction="J3" toJunction="J6" end="720" vehsPerHour="31.972674204300024"/>
  <flow id="JF207750" begin="660" fromJunction="J3" toJunction="J4" end="720" vehsPerHour="73.578772515826"/>
  <flow id="JF207751" begin="660" fromJunction="J3" toJunction="J7" end="720" vehsPerHour="37.157683120295324"/>
  <flow id="JF207752" begin="660" fromJunction="J3" toJunction="J5" end="720" vehsPerHour="54.68681714405297"/>
  <flow id="JF207753" begin="720" fromJunction="J0" toJunction="J3" end="780" vehsPerHour="536.7175992478476"/>
  <flow id="JF207754" begin="720" fromJunction="J3" toJunction="J0" end="780" vehsPerHour="493.65883529366744"/>
  <flow id="JF207755" begin="720" fromJunction="J0" toJunction="J6" end="780" vehsPerHour="97.58755017420285"/>
  <flow id="JF207756" begin="720" fromJunction="J0" toJunction="J4" end="780" vehsPerHour="127.76186062102097"/>
  <flow id="JF207757" begin="720" fromJunction="J0" toJunction="J7" end="780" vehsPerHour="133.37033239743715"/>
  <flow id="JF207758" begin="720" fromJunction="J0" toJunction="J5" end="780" vehsPerHour="127.90904684368007"/>