<?xml version="1.0" encoding="UTF-8"?>
<routes xmlns:xsi="http://www.w3.org/2001/XMLSchema-instance" xsi:noNamespaceSchemaLocation="http://sumo.dlr.de/xsd/routes_file.xsd">
  <flow id="JF211593" begin="0" fromJunction="J0" toJunction="J3" end="60" vehsPerHour="12.473636996963796"/>
  <flow id="JF211594" begin="0" fromJunction="J3" toJunction="J0" end="60" vehsPerHour="449.7325926410976"/>
  <flow id="JF211595" begin="0" fromJunction="J0" toJunction="J6" end="60" vehsPerHour="46.213873685647826"/>
  <flow id="JF211596" begin="0" fromJunction="J0" toJunction="J4" end="60" vehsPerHour="119.46125766714198"/>
  <flow id="JF211597" begin="0" fromJunction="J0" toJunction="J7" end="60" vehsPerHour="105.04368214291338"/>
  <flow id="JF211598" begin="0" fromJunction="J0" toJunction="J5" end="60" vehsPerHour="57.83936410154343"/>
  <flow id="JF211599" begin="0" fromJunction="J3" toJunction="J6" end="60" vehsPerHour="81.43921480983698"/>
  <flow id="JF211600" begin="0" fromJunction="J3" toJunction="J4" end="60" vehsPerHour="68.25302332352044"/>
  <flow id="JF211601" begin="0" fromJunction="J3" toJunction="J7" end="60" vehsPerHour="116.6128795712549"/>
  <flow id="JF211602" begin="0" fromJunction="J3" toJunction="J5" end="60" vehsPerHour="83.95821080550458"/>
  <flow id="JF211603" begin="60" fromJunction="J0" toJunction="J3" end="120" vehsPerHour="464.40100186878163"/>
  <flow id="JF211604" begin="60" fromJunction="J3" toJunction="J0" end="120" vehsPerHour="27.282587431853045"/>
  <flow id="JF211605" begin="60" fromJunction="J0" toJunction="J6" end="120" vehsPerHour="56.543197663704596"/>
  <flow id="JF211606" begin="60" fromJunction="J0" toJunction="J4" end="120" vehsPerHour="32.39212077266588"/>
  <flow id="JF211607" begin="60" fromJunction="J0" toJunction="J7" end="120" vehsPerHour="81.87395463965242"/>
  <flow id="JF211608" begin="60" fromJunction="J0" toJunction="J5" end="120" vehsPerHour="10.135164389117678"/>
  <flow id="JF211609" begin="60" fromJunction="J3" toJunction="J6" end="120" vehsPerHour="128.96222690160081"/>
  <flow id="JF211610" begin="60" fromJunction="J3" toJunction="J4" end="120" vehsPerHour="106.73994022387849"/>
  <flow id="JF211611" begin="60" fromJunction="J3" toJunction="J7" end="120" vehsPerHour="34.05444580491479"/>
  <flow id="JF211612" begin="60" fromJunction="J3" toJunction="J5" end="120" vehsPerHour="111.76577251137012"/>
  <flow id="JF211613" begin="60" fromJunction="J6" toJunction="J4" end="120" vehsPerHour="33.545537302031015"/>
  <flow id="JF211614" begin="60" fromJunction="J6" toJunction="J7" end="120" vehsPerHour="53.64846668842317"/>
  <flow id="JF211615" begin="60" fromJunction="J6" toJunction="J5" end="120" vehsPerHour="36.98660845097758"/>
  <flow id="JF211616" begin="60" fromJunction="J4" toJunction="J6" end="120" vehsPerHour="39.281896089007695"/>
  <flow id="JF211617" begin="60" fromJunction="J4" toJunction="J7" end="120" vehsPerHour="47.14207754351126"/>
  <flow id="JF211618" begin="60" fromJunction="J4" toJunction="J5" end="120" vehsPerHour="11.875215337786036"/>
  <flow id="JF211619" begin="60" fromJunction="J7" toJunction="J6" end="120" vehsPerHour="40.84238584651699"/>
  <flow id="JF211620" begin="60" fromJunction="J7" toJunction="J4" end="120" vehsPerHour="1.1569472037039514"/>
  <flow id="JF211621" begin="60" fromJunction="J7" toJunction="J5" end="120" vehsPerHour="41.133693906215235"/>
  <flow id="JF211622" begin="60" fromJunction="J5" toJunction="J6" end="120" vehsPerHour="61.15066237241606"/>
  <flow id="JF211623" begin="60" fromJunction="J5" toJunction="J4" end="120" vehsPerHour="22.087541809775892"/>
  <flow id="JF211624" begin="60" fromJunction="J5" toJunction="J7" end="120" vehsPerHour="7.1008981800218"/>
  <flow id="JF211625" begin="60" fromJunction="J6" toJunction="J0" end="120" vehsPerHour="11.595361650381221"/>
  <flow id="JF211626" begin="60" fromJunction="J6" toJunction="J3" end="120" vehsPerHour="60.31850712089547"/>
  <flow id="JF211627" begin="60" fromJunction="J4" toJunction="J0" end="120" vehsPerHour="10.72857831585197"/>
  <flow id="JF211628" begin="60" fromJunction="J4" toJunction="J3" end="120" vehsPerHour="52.55796614831139"/>
  <flow id="JF211629" begin="60" fromJunction="J7" toJunction="J0" end="120" vehsPerHour="60.88773636521472"/>
  <flow id="JF211630" begin="60" fromJunction="J7" toJunction="J3" end="120" vehsPerHour="62.62731966758371"/>
  <flow id="JF211631" begin="60" fromJunction="J5" toJunction="J0" end="120" vehsPerHour="50.85791291892385"/>
  <flow id="JF211632" begin="60" fromJunction="J5" toJunction="J3" end="120" vehsPerHour="0.6232915025607684"/>
  <flow id="JF211633" begin="120" fromJunction="J0" toJunction="J3" end="180" vehsPerHour="167.49682340119253"/>
  <flow id="JF211634" begin="120" fromJunction="J3" toJunction="J0" end="180" vehsPerHour="179.62938699841337"/>
  <flow id="JF211635" begin="120" fromJunction="J0" toJunction="J6" end="180" vehsPerHour="83.88546615931263"/>
  <flow id="JF211636" begin="120" fromJunction="J0" toJunction="J4" end="180" vehsPerHour="30.82262578835141"/>
  <flow id="JF211637" begin="120" fromJunction="J0" toJunction="J7" end="180" vehsPerHour="50.27984580712137"/>
  <flow id="JF211638" begin="120" fromJunction="J0" toJunction="J5" end="180" vehsPerHour="17.743348727933093"/>
  <flow id="JF211639" begin="120" fromJunction="J3" toJunction="J6" end="180" vehsPerHour="119.7289011978568"/>
  <flow id="JF211640" begin="120" fromJunction="J3" toJunction="J4" end="180" vehsPerHour="63.163912097784106"/>
  <flow id="JF211641" begin="120" fromJunction="J3" toJunction="J7" end="180" vehsPerHour="57.16885209381788"/>
  <flow id="JF211642" begin="120" fromJunction="J3" toJunction="J5" end="180" vehsPerHour="28.134668886225715"/>
  <flow id="JF211643" begin="120" fromJunction="J6" toJunction="J4" end="180" vehsPerHour="65.18485507997602"/>
  <flow id="JF211644" begin="120" fromJunction="J6" toJunction="J7" end="180" vehsPerHour="60.8550269825124"/>
  <flow id="JF211645" begin="120" fromJunction="J6" toJunction="J5" end="180" vehsPerHour="38.19015742188897"/>
  <flow id="JF211646" begin="120" fromJunction="J4" toJunction="J6" end="180" vehsPerHour="17.872490058614083"/>
  <flow id="JF211647" begin="120" fromJunction="J4" toJunction="J7" end="180" vehsPerHour="46.79490360991577"/>
  <flow id="JF211648" begin="120" fromJunction="J4" toJunction="J5" end="180" vehsPerHour="43.65269110712781"/>
  <flow id="JF211649" begin="120" fromJunction="J7" toJunction="J6" end="180" vehsPerHour="32.003745676503364"/>
  <flow id="JF211650" begin="120" fromJunction="J7" toJunction="J4" end="180" vehsPerHour="22.351956849203198"/>
  <flow id="JF211651" begin="120" fromJunction="J7" toJunction="J5" end="180" vehsPerHour="50.87430152988243"/>
  <flow id="JF211652" begin="120" fromJunction="J5" toJunction="J6" end="180" vehsPerHour="48.73243613964524"/>
  <flow id="JF211653" begin="120" fromJunction="J5" toJunction="J4" end="180" vehsPerHour="41.3905672573933"/>
  <flow id="JF211654" begin="120" fromJunction="J5" toJunction="J7" end="180" vehsPerHour="4.964550045588509"/>
  <flow id="JF211655" begin="120" fromJunction="J6" toJunction="J0" end="180" vehsPerHour="12.573926778600795"/>
  <flow id="JF211656" begin="120" fromJunction="J6" toJunction="J3" end="180" vehsPerHour="32.21972723643324"/>
  <flow id="JF211657" begin="120" fromJunction="J4" toJunction="J0" end="180" vehsPerHour="40.54716451831238"/>
  <flow id="JF211658" begin="120" fromJunction="J4" toJunction="J3" end="180" vehsPerHour="65.53594977478045"/>
  <flow id="JF211659" begin="120" fromJunction="J7" toJunction="J0" end="180" vehsPerHour="34.91205286103986"/>
  <flow id="JF211660" begin="120" fromJunction="J7" toJunction="J3" end="180" vehsPerHour="57.56034073511079"/>
  <flow id="JF211661" begin="120" fromJunction="J5" toJunction="J0" end="180" vehsPerHour="49.695308776356995"/>
  <flow id="JF211662" begin="120" fromJunction="J5" toJunction="J3" end="180" vehsPerHour="19.108927325651102"/>
  <flow id="JF211663" begin="180" fromJunction="J0" toJunction="J3" end="240" vehsPerHour="456.06201697556406"/>
  <flow id="JF211664" begin="180" fromJunction="J3" toJunction="J0" end="240" vehsPerHour="466.065659900461"/>
  <flow id="JF211665" begin="180" fromJunction="J0" toJunction="J6" end="240" vehsPerHour="111.27213445398831"/>
  <flow id="JF211666" begin="180" fromJunction="J0" toJunction="J4" end="240" vehsPerHour="22.901225100885963"/>
  <flow id="JF211667" begin="180" fromJunction="J0" toJunction="J7" end="240" vehsPerHour="52.55297799372741"/>
  <flow id="JF211668" begin="180" fromJunction="J0" toJunction="J5" end="240" vehsPerHour="109.9097059387839"/>
  <flow id="JF211669" begin="180" fromJunction="J3" toJunction="J6" end="240" vehsPerHour="32.76143048696443"/>
  <flow id="JF211670" begin="180" fromJunction="J3" toJunction="J4" end="240" vehsPerHour="126.61073713100018"/>
  <flow id="JF211671" begin="180" fromJunction="J3" toJunction="J7" end="240" vehsPerHour="120.26535354224079"/>
  <flow id="JF211672" begin="180" fromJunction="J3" toJunction="J5" end="240" vehsPerHour="56.0151276556255"/>
  <flow id="JF211673" begin="180" fromJunction="J6" toJunction="J4" end="240" vehsPerHour="8.953770988107298"/>
  <flow id="JF211674" begin="180" fromJunction="J6" toJunction="J7" end="240" vehsPerHour="36.222868054642255"/>
  <flow id="JF211675" begin="180" fromJunction="J6" toJunction="J5" end="240" vehsPerHour="32.986074689855094"/>
  <flow id="JF211676" begin="180" fromJunction="J4" toJunction="J6" end="240" vehsPerHour="29.546977086026555"/>
  <flow id="JF211677" begin="180" fromJunction="J4" toJunction="J7" end="240" vehsPerHour="50.14613483331062"/>
  <flow id="JF211678" begin="180" fromJunction="J4" toJunction="J5" end="240" vehsPerHour="19.68721155780179"/>
  <flow id="JF211679" begin="180" fromJunction="J7" toJunction="J6" end="240" vehsPerHour="54.004923547593556"/>
  <flow id="JF211680" begin="180" fromJunction="J7" toJunction="J4" end="240" vehsPerHour="42.2251642342559"/>
  <flow id="JF211681" begin="180" fromJunction="J7" toJunction="J5" end="240" vehsPerHour="51.969345906995606"/>
  <flow id="JF211682" begin="180" fromJunction="J5" toJunction="J6" end="240" vehsPerHour="48.919439888416505"/>
  <flow id="JF211683" begin="180" fromJunction="J5" toJunction="J4" end="240" vehsPerHour="29.10605873135394"/>
  <flow id="JF211684" begin="180" fromJunction="J5" toJunction="J7" end="240" vehsPerHour="3.304866734831239"/>
  <flow id="JF211685" begin="180" fromJunction="J6" toJunction="J0" end="240" vehsPerHour="28.368462050535484"/>
  <flow id="JF211686" begin="180" fromJunction="J6" toJunction="J3" end="240" vehsPerHour="40.679862497441405"/>
  <flow id="JF211687" begin="180" fromJunction="J4" toJunction="J0" end="240" vehsPerHour="44.29976450309474"/>
  <flow id="JF211688" begin="180" fromJunction="J4" toJunction="J3" end="240" vehsPerHour="51.43610011420546"/>
  <flow id="JF211689" begin="180" fromJunction="J7" toJunction="J0" end="240" vehsPerHour="29.83981485764784"/>
  <flow id="JF211690" begin="180" fromJunction="J7" toJunction="J3" end="240" vehsPerHour="56.50785931306899"/>
  <flow id="JF211691" begin="180" fromJunction="J5" toJunction="J0" end="240" vehsPerHour="3.077504226653316"/>
  <flow id="JF211692" begin="180" fromJunction="J5" toJunction="J3" end="240" vehsPerHour="7.362600054342697"/>
  <flow id="JF211693" begin="240" fromJunction="J0" toJunction="J3" end="300" vehsPerHour="477.998176983438"/>
  <flow id="JF211694" begin="240" fromJunction="J3" toJunction="J0" end="300" vehsPerHour="448.25258150054907"/>
  <flow id="JF211695" begin="240" fromJunction="J0" toJunction="J6" end="300" vehsPerHour="71.18217254948976"/>
  <flow id="JF211696" begin="240" fromJunction="J0" toJunction="J4" end="300" vehsPerHour="104.36806149673386"/>
  <flow id="JF211697" begin="240" fromJunction="J0" toJunction="J7" end="300" vehsPerHour="12.0102193912015"/>
  <flow id="JF211698" begin="240" fromJunction="J0" toJunction="J5" end="300" vehsPerHour="60.25654691351374"/>
  <flow id="JF211699" begin="240" fromJunction="J3" toJunction="J6" end="300" vehsPerHour="103.1622590541955"/>
  <flow id="JF211700" begin="240" fromJunction="J3" toJunction="J4" end="300" vehsPerHour="98.54819625188642"/>
  <flow id="JF211701" begin="240" fromJunction="J3" toJunction="J7" end="300" vehsPerHour="122.32371808374408"/>
  <flow id="JF211702" begin="240" fromJunction="J3" toJunction="J5" end="300" vehsPerHour="116.90584112066779"/>
  <flow id="JF211703" begin="300" fromJunction="J0" toJunction="J3" end="360" vehsPerHour="325.54757491556376"/>
  <flow id="JF211704" begin="300" fromJunction="J3" toJunction="J0" end="360" vehsPerHour="102.76485052243929"/>
  <flow id="JF211705" begin="300" fromJunction="J0" toJunction="J6" end="360" vehsPerHour="92.35392248061488"/>
  <flow id="JF211706" begin="300" fromJunction="J0" toJunction="J4" end="360" vehsPerHour="106.80384187666465"/>
  <flow id="JF211707" begin="300" fromJunction="J0" toJunction="J7" end="360" vehsPerHour="33.99719044525817"/>
  <flow id="JF211708" begin="300" fromJunction="J0" toJunction="J5" end="360" vehsPerHour="12.258720646619743"/>
  <flow id="JF211709" begin="300" fromJunction="J3" toJunction="J6" end="360" vehsPerHour="35.55489918821428"/>
  <flow id="JF211710" begin="300" fromJunction="J3" toJunction="J4" end="360" vehsPerHour="41.610064346911855"/>
  <flow id="JF211711" begin="300" fromJunction="J3" toJunction="J7" end="360" vehsPerHour="36.4756043610431"/>
  <flow id="JF211712" begin="300" fromJunction="J3" toJunction="J5" end="360" vehsPerHour="58.0589012498137"/>
  <flow id="JF211713" begin="300" fromJunction="J6" toJunction="J4" end="360" vehsPerHour="25.442119945014888"/>
  <flow id="JF211714" begin="300" fromJunction="J6" toJunction="J7" end="360" vehsPerHour="30.35990422676296"/>
  <flow id="JF211715" begin="300" fromJunction="J6" toJunction="J5" end="360" vehsPerHour="39.46027058572887"/>
  <flow id="JF211716" begin="300" fromJunction="J4" toJunction="J6" end="360" vehsPerHour="30.55862733307856"/>
  <flow id="JF211717" begin="300" fromJunction="J4" toJunction="J7" end="360" vehsPerHour="38.46948319061021"/>
  <flow id="JF211718" begin="300" fromJunction="J4" toJunction="J5" end="360" vehsPerHour="48.49408306018508"/>
  <flow id="JF211719" begin="300" fromJunction="J7" toJunction="J6" end="360" vehsPerHour="55.452291103175064"/>
  <flow id="JF211720" begin="300" fromJunction="J7" toJunction="J4" end="360" vehsPerHour="60.819619287994726"/>
  <flow id="JF211721" begin="300" fromJunction="J7" toJunction="J5" end="360" vehsPerHour="55.98468115543538"/>
  <flow id="JF211722" begin="300" fromJunction="J5" toJunction="J6" end="360" vehsPerHour="49.51114002003703"/>
  <flow id="JF211723" begin="300" fromJunction="J5" toJunction="J4" end="360" vehsPerHour="32.05932491761214"/>
  <flow id="JF211724" begin="300" fromJunction="J5" toJunction="J7" end="360" vehsPerHour="19.22889058707157"/>
  <flow id="JF211725" begin="300" fromJunction="J6" toJunction="J0" end="360" vehsPerHour="4.763142745353537"/>
  <flow id="JF211726" begin="300" fromJunction="J6" toJunction="J3" end="360" vehsPerHour="3.7779198078519287"/>
  <flow id="JF211727" begin="300" fromJunction="J4" toJunction="J0" end="360" vehsPerHour="49.20832663949813"/>
  <flow id="JF211728" begin="300" fromJunction="J4" toJunction="J3" end="360" vehsPerHour="29.36622195754945"/>
  <flow id="JF211729" begin="300" fromJunction="J7" toJunction="J0" end="360" vehsPerHour="64.319489060333"/>
  <flow id="JF211730" begin="300" fromJunction="J7" toJunction="J3" end="360" vehsPerHour="39.46780771590994"/>
  <flow id="JF211731" begin="300" fromJunction="J5" toJunction="J0" end="360" vehsPerHour="31.983028908199447"/>
  <flow id="JF211732" begin="300" fromJunction="J5" toJunction="J3" end="360" vehsPerHour="45.91588910497959"/>
  <flow id="JF211733" begin="360" fromJunction="J0" toJunction="J3" end="420" vehsPerHour="109.33853146575346"/>
  <flow id="JF211734" begin="360" fromJunction="J3" toJunction="J0" end="420" vehsPerHour="489.1770435133399"/>
  <flow id="JF211735" begin="360" fromJunction="J0" toJunction="J6" end="420" vehsPerHour="47.245570768059125"/>
  <flow id="JF211736" begin="360" fromJunction="J0" toJunction="J4" end="420" vehsPerHour="14.955525770469466"/>
  <flow id="JF211737" begin="360" fromJunction="J0" toJunction="J7" end="420" vehsPerHour="63.12620895872093"/>
  <flow id="JF211738" begin="360" fromJunction="J0" toJunction="J5" end="420" vehsPerHour="37.33209954413271"/>
  <flow id="JF211739" begin="360" fromJunction="J3" toJunction="J6" end="420" vehsPerHour="66.80963106694975"/>
  <flow id="JF211740" begin="360" fromJunction="J3" toJunction="J4" end="420" vehsPerHour="136.7335033638567"/>
  <flow id="JF211741" begin="360" fromJunction="J3" toJunction="J7" end="420" vehsPerHour="110.47974922431493"/>
  <flow id="JF211742" begin="360" fromJunction="J3" toJunction="J5" end="420" vehsPerHour="125.8105609672948"/>
  <flow id="JF211743" begin="360" fromJunction="J6" toJunction="J4" end="420" vehsPerHour="65.83224256896432"/>
  <flow id="JF211744" begin="360" fromJunction="J6" toJunction="J7" end="420" vehsPerHour="27.8094840215476"/>
  <flow id="JF211745" begin="360" fromJunction="J6" toJunction="J5" end="420" vehsPerHour="14.317720628253706"/>
  <flow id="JF211746" begin="360" fromJunction="J4" toJunction="J6" end="420" vehsPerHour="9.49963776268736"/>
  <flow id="JF211747" begin="360" fromJunction="J4" toJunction="J7" end="420" vehsPerHour="54.59841264574269"/>
  <flow id="JF211748" begin="360" fromJunction="J4" toJunction="J5" end="420" vehsPerHour="63.06099854880349"/>
  <flow id="JF211749" begin="360" fromJunction="J7" toJunction="J6" end="420" vehsPerHour="1.0807362837143375"/>
  <flow id="JF211750" begin="360" fromJunction="J7" toJunction="J4" end="420" vehsPerHour="18.36035330911753"/>
  <flow id="JF211751" begin="360" fromJunction="J7" toJunction="J5" end="420" vehsPerHour="57.21348898821407"/>
  <flow id="JF211752" begin="360" fromJunction="J5" toJunction="J6" end="420" vehsPerHour="64.96627901745464"/>
  <flow id="JF211753" begin="360" fromJunction="J5" toJunction="J4" end="420" vehsPerHour="22.392562476084272"/>
  <flow id="JF211754" begin="360" fromJunction="J5" toJunction="J7" end="420" vehsPerHour="12.758491965975681"/>
  <flow id="JF211755" begin="360" fromJunction="J6" toJunction="J0" end="420" vehsPerHour="33.73741138898313"/>
  <flow id="JF211756" begin="360" fromJunction="J6" toJunction="J3" end="420" vehsPerHour="26.925732682793047"/>
  <flow id="JF211757" begin="360" fromJunction="J4" toJunction="J0" end="420" vehsPerHour="9.340599156796493"/>
  <flow id="JF211758" begin="360" fromJunction="J4" toJunction="J3" end="420" vehsPerHour="22.860748150788353"/>
  <flow id="JF211759" begin="360" fromJunction="J7" toJunction="J0" end="420" vehsPerHour="15.03133148979134"/>
  <flow id="JF211760" begin="360" fromJunction="J7" toJunction="J3" end="420" vehsPerHour="21.436426980840032"/>
  <flow id="JF211761" begin="360" fromJunction="J5" toJunction="J0" end="420" vehsPerHour="5.428490149107813"/>
  <flow id="JF211762" begin="360" fromJunction="J5" toJunction="J3" end="420" vehsPerHour="37.60369128103238"/>
  <flow id="JF211763" begin="420" fromJunction="J0" toJunction="J3" end="480" vehsPerHour="363.6018840602135"/>
  <flow id="JF211764" begin="420" fromJunction="J3" toJunction="J0" end="480" vehsPerHour="323.2863610209027"/>
  <flow id="JF211765" begin="420" fromJunction="J0" toJunction="J6" end="480" vehsPerHour="95.6996191271825"/>
  <flow id="JF211766" begin="420" fromJunction="J0" toJunction="J4" end="480" vehsPerHour="110.38424197956765"/>
  <flow id="JF211767" begin="420" fromJunction="J0" toJunction="J7" end="480" vehsPerHour="44.834685039185565"/>
  <flow id="JF211768" begin="420" fromJunction="J0" toJunction="J5" end="480" vehsPerHour="108.48414863139072"/>
  <flow id="JF211769" begin="420" fromJunction="J3" toJunction="J6" end="480" vehsPerHour="64.22448036317303"/>
  <flow id="JF211770" begin="420" fromJunction="J3" toJunction="J4" end="480" vehsPerHour="99.03779337377634"/>
  <flow id="JF211771" begin="420" fromJunction="J3" toJunction="J7" end="480" vehsPerHour="66.3133742813953"/>
  <flow id="JF211772" begin="420" fromJunction="J3" toJunction="J5" end="480" vehsPerHour="52.01090690946505"/>
  <flow id="JF211773" begin="420" fromJunction="J6" toJunction="J4" end="480" vehsPerHour="17.730731510703873"/>
  <flow id="JF211774" begin="420" fromJunction="J6" toJunction="J7" end="480" vehsPerHour="29.477859071321"/>
  <flow id="JF211775" begin="420" fromJunction="J6" toJunction="J5" end="480" vehsPerHour="25.21117503475219"/>
  <flow id="JF211776" begin="420" fromJunction="J4" toJunction="J6" end="480" vehsPerHour="37.23809262721186"/>
  <flow id="JF211777" begin="420" fromJunction="J4" toJunction="J7" end="480" vehsPerHour="68.49762701681364"/>
  <flow id="JF211778" begin="420" fromJunction="J4" toJunction="J5" end="480" vehsPerHour="58.27617296370975"/>
  <flow id="JF211779" begin="420" fromJunction="J7" toJunction="J6" end="480" vehsPerHour="41.84913647313296"/>
  <flow id="JF211780" begin="420" fromJunction="J7" toJunction="J4" end="480" vehsPerHour="43.179962695762576"/>
  <flow id="JF211781" begin="420" fromJunction="J7" toJunction="J5" end="480" vehsPerHour="24.925683007887564"/>
  <flow id="JF211782" begin="420" fromJunction="J5" toJunction="J6" end="480" vehsPerHour="26.032750102578643"/>
  <flow id="JF211783" begin="420" fromJunction="J5" toJunction="J4" end="480" vehsPerHour="64.05258911332038"/>
  <flow id="JF211784" begin="420" fromJunction="J5" toJunction="J7" end="480" vehsPerHour="23.971957770072425"/>
  <flow id="JF211785" begin="420" fromJunction="J6" toJunction="J0" end="480" vehsPerHour="50.0286918955593"/>
  <flow id="JF211786" begin="420" fromJunction="J6" toJunction="J3" end="480" vehsPerHour="23.371521639398026"/>
  <flow id="JF211787" begin="420" fromJunction="J4" toJunction="J0" end="480" vehsPerHour="61.14382993673"/>
  <flow id="JF211788" begin="420" fromJunction="J4" toJunction="J3" end="480" vehsPerHour="25.37468457798375"/>
  <flow id="JF211789" begin="420" fromJunction="J7" toJunction="J0" end="480" vehsPerHour="60.05633629796648"/>
  <flow id="JF211790" begin="420" fromJunction="J7" toJunction="J3" end="480" vehsPerHour="52.41083559735884"/>
  <flow id="JF211791" begin="420" fromJunction="J5" toJunction="J0" end="480" vehsPerHour="3.7597644970815036"/>
  <flow id="JF211792" begin="420" fromJunction="J5" toJunction="J3" end="480" vehsPerHour="47.35408832167545"/>
  <flow id="JF211793" begin="480" fromJunction="J0" toJunction="J3" end="540" vehsPerHour="308.5199161899653"/>
  <flow id="JF211794" begin="480" fromJunction="J3" toJunction="J0" end="540" vehsPerHour="78.78259849777375"/>
  <flow id="JF211795" begin="480" fromJunction="J0" toJunction="J6" end="540" vehsPerHour="116.6967922612047"/>
  <flow id="JF211796" begin="480" fromJunction="J0" toJunction="J4" end="540" vehsPerHour="104.36486038060093"/>
  <flow id="JF211797" begin="480" fromJunction="J0" toJunction="J7" end="540" vehsPerHour="96.87944548400556"/>
  <flow id="JF211798" begin="480" fromJunction="J0" toJunction="J5" end="540" vehsPerHour="62.60264878624757"/>
  <flow id="JF211799" begin="480" fromJunction="J3" toJunction="J6" end="540" vehsPerHour="6.292976588209991"/>
  <flow id="JF211800" begin="480" fromJunction="J3" toJunction="J4" end="540" vehsPerHour="83.68699429478484"/>
  <flow id="JF211801" begin="480" fromJunction="J3" toJunction="J7" end="540" vehsPerHour="110.19542085810608"/>
  <flow id="JF211802" begin="480" fromJunction="J3" toJunction="J5" end="540" vehsPerHour="19.868911379413625"/>
  <flow id="JF211803" begin="480" fromJunction="J6" toJunction="J4" end="540" vehsPerHour="8.6930573978247"/>
  <flow id="JF211804" begin="480" fromJunction="J6" toJunction="J7" end="540" vehsPerHour="16.051508648688273"/>
  <flow id="JF211805" begin="480" fromJunction="J6" toJunction="J5" end="540" vehsPerHour="26.022906623551535"/>
  <flow id="JF211806" begin="480" fromJunction="J4" toJunction="J6" end="540" vehsPerHour="38.54264875371171"/>
  <flow id="JF211807" begin="480" fromJunction="J4" toJunction="J7" end="540" vehsPerHour="53.65831610552584"/>
  <flow id="JF211808" begin="480" fromJunction="J4" toJunction="J5" end="540" vehsPerHour="28.82957492560197"/>
  <flow id="JF211809" begin="480" fromJunction="J7" toJunction="J6" end="540" vehsPerHour="6.097877849376926"/>
  <flow id="JF211810" begin="480" fromJunction="J7" toJunction="J4" end="540" vehsPerHour="64.61480920914167"/>
  <flow id="JF211811" begin="480" fromJunction="J7" toJunction="J5" end="540" vehsPerHour="55.84284058168683"/>
  <flow id="JF211812" begin="480" fromJunction="J5" toJunction="J6" end="540" vehsPerHour="33.03663698031777"/>
  <flow id="JF211813" begin="480" fromJunction="J5" toJunction="J4" end="540" vehsPerHour="16.471968778278562"/>
  <flow id="JF211814" begin="480" fromJunction="J5" toJunction="J7" end="540" vehsPerHour="62.099592449402785"/>
  <flow id="JF211815" begin="480" fromJunction="J6" toJunction="J0" end="540" vehsPerHour="44.90664479757741"/>
  <flow id="JF211816" begin="480" fromJunction="J6" toJunction="J3" end="540" vehsPerHour="51.15103886600704"/>
  <flow id="JF211817" begin="480" fromJunction="J4" toJunction="J0" end="540" vehsPerHour="13.572831270633728"/>
  <flow id="JF211818" begin="480" fromJunction="J4" toJunction="J3" end="540" vehsPerHour="31.234897012659175"/>
  <flow id="JF211819" begin="480" fromJunction="J7" toJunction="J0" end="540" vehsPerHour="21.463544462042087"/>
  <flow id="JF211820" begin="480" fromJunction="J7" toJunction="J3" end="540" vehsPerHour="6.2228712306809655"/>
  <flow id="JF211821" begin="480" fromJunction="J5" toJunction="J0" end="540" vehsPerHour="36.07114283220704"/>
  <flow id="JF211822" begin="480" fromJunction="J5" toJunction="J3" end="540" vehsPerHour="10.545684406408393"/>
  <flow id="JF211823" begin="540" fromJunction="J0" toJunction="J3" end="600" vehsPerHour="2.9311096265691634"/>
  <flow id="JF211824" begin="540" fromJunction="J3" toJunction="J0" end="600" vehsPerHour="177.55040075462801"/>
  <flow id="JF211825" begin="540" fromJunction="J0" toJunction="J6" end="600" vehsPerHour="103.44431920728397"/>
  <flow id="JF211826" begin="540" fromJunction="J0" toJunction="J4" end="600" vehsPerHour="84.66580105588118"/>
  <flow id="JF211827" begin="540" fromJunction="J0" toJunction="J7" end="600" vehsPerHour="64.44856954984088"/>
  <flow id="JF211828" begin="540" fromJunction="J0" toJunction="J5" end="600" vehsPerHour="94.30439601599788"/>
  <flow id="JF211829" begin="540" fromJunction="J3" toJunction="J6" end="600" vehsPerHour="69.8053566528527"/>
  <flow id="JF211830" begin="540" fromJunction="J3" toJunction="J4" end="600" vehsPerHour="56.89398446036692"/>
  <flow id="JF211831" begin="540" fromJunction="J3" toJunction="J7" end="600" vehsPerHour="34.42220382688962"/>
  <flow id="JF211832" begin="540" fromJunction="J3" toJunction="J5" end="600" vehsPerHour="92.38957578695901"/>
  <flow id="JF211833" begin="600" fromJunction="J0" toJunction="J3" end="660" vehsPerHour="546.3029979842755"/>
  <flow id="JF211834" begin="600" fromJunction="J3" toJunction="J0" end="660" vehsPerHour="60.50150586773799"/>
  <flow id="JF211835" begin="600" fromJunction="J0" toJunction="J6" end="660" vehsPerHour="129.8312696493523"/>
  <flow id="JF211836" begin="600" fromJunction="J0" toJunction="J4" end="660" vehsPerHour="24.315347487644235"/>
  <flow id="JF211837" begin="600" fromJunction="J0" toJunction="J7" end="660" vehsPerHour="19.237336753343012"/>
  <flow id="JF211838" begin="600" fromJunction="J0" toJunction="J5" end="660" vehsPerHour="18.212197161711686"/>
  <flow id="JF211839" begin="600" fromJunction="J3" toJunction="J6" end="660" vehsPerHour="125.23875899164089"/>
  <flow id="JF211840" begin="600" fromJunction="J3" toJunction="J4" end="660" vehsPerHour="15.328081045306853"/>
  <flow id="JF211841" begin="600" fromJunction="J3" toJunction="J7" end="660" vehsPerHour="47.49113638422788"/>
  <flow id="JF211842" begin="600" fromJunction="J3" toJunction="J5" end="660" vehsPerHour="4.897757539477651"/>
  <flow id="JF211843" begin="660" fromJunction="J0" toJunction="J3" end="720" vehsPerHour="15.866387058130936"/>
  <flow id="JF211844" begin="660" fromJunction="J3" toJunction="J0" end="720" vehsPerHour="415.8088977311251"/>
  <flow id="JF211845" begin="660" fromJunction="J0" toJunction="J6" end="720" vehsPerHour="1.7579645782643174"/>
  <flow id="JF211846" begin="660" fromJunction="J0" toJunction="J4" end="720" vehsPerHour="119.36514882551731"/>
  <flow id="JF211847" begin="660" fromJunction="J0" toJunction="J7" end="720" vehsPerHour="81.85351814826718"/>
  <flow id="JF211848" begin="660" fromJunction="J0" toJunction="J5" end="720" vehsPerHour="10.1037620112546"/>
  <flow id="JF211849" begin="660" fromJunction="J3" toJunction="J6" end="720" vehsPerHour="31.84563401427956"/>
  <flow id="JF211850" begin="660" fromJunction="J3" toJunction="J4" end="720" vehsPerHour="9.924094687870822"/>
  <flow id="JF211851" begin="660" fromJunction="J3" toJunction="J7" end="720" vehsPerHour="60.20650893047126"/>
  <flow id="JF211852" begin="660" fromJunction="J3" toJunction="J5" end="720" vehsPerHour="111.2823988194407"/>
  <flow id="JF211853" begin="720" fromJunction="J0" toJunction="J3" end="780" vehsPerHour="301.95222606074276"/>
  <flow id="JF211854" begin="720" fromJunction="J3" toJunction="J0" end="780" vehsPerHour="60.03996975273245"/>
  <flow id="JF211855" begin="720" fromJunction="J0" toJunction="J6" end="780" vehsPerHour="104.18693356864836"/>
  <flow id="JF211856" begin="720" fromJunction="J0" toJunction="J4" end="780" vehsPerHour="25.35000699361696"/>
  <flow id="JF211857" begin="720" fromJunction="J0" toJunction="J7" end="780" vehsPerHour="119.60981082806322"/>
  <flow id="JF211858" begin="720" fromJunction="J0" toJunction="J5" end="780" vehsPerHour="27.647478532970588"/>