<?xml version="1.0" encoding="UTF-8"?>
<routes xmlns:xsi="http://www.w3.org/2001/XMLSchema-instance" xsi:noNamespaceSchemaLocation="http://sumo.dlr.de/xsd/routes_file.xsd">
  <flow id="JF223913" begin="0" fromJunction="J0" toJunction="J3" end="60" vehsPerHour="17.00248386130761"/>
  <flow id="JF223914" begin="0" fromJunction="J3" toJunction="J0" end="60" vehsPerHour="171.02576949304927"/>
  <flow id="JF223915" begin="0" fromJunction="J0" toJunction="J6" end="60" vehsPerHour="64.86021400453045"/>
  <flow id="JF223916" begin="0" fromJunction="J0" toJunction="J4" end="60" vehsPerHour="94.84922855853297"/>
  <flow id="JF223917" begin="0" fromJunction="J0" toJunction="J7" end="60" vehsPerHour="3.1959295997938826"/>
  <flow id="JF223918" begin="0" fromJunction="J0" toJunction="J5" end="60" vehsPerHour="5.210256437211462"/>
  <flow id="JF223919" begin="0" fromJunction="J3" toJunction="J6" end="60" vehsPerHour="58.34731825971463"/>
  <flow id="JF223920" begin="0" fromJunction="J3" toJunction="J4" end="60" vehsPerHour="44.59528020951751"/>
  <flow id="JF223921" begin="0" fromJunction="J3" toJunction="J7" end="60" vehsPerHour="100.58926641719923"/>
  <flow id="JF223922" begin="0" fromJunction="J3" toJunction="J5" end="60" vehsPerHour="60.48612719107038"/>
  <flow id="JF223923" begin="0" fromJunction="J6" toJunction="J4" end="60" vehsPerHour="38.22665814675748"/>
  <flow id="JF223924" begin="0" fromJunction="J6" toJunction="J7" end="60" vehsPerHour="16.28507425551367"/>
  <flow id="JF223925" begin="0" fromJunction="J6" toJunction="J5" end="60" vehsPerHour="26.775620510043026"/>
  <flow id="JF223926" begin="0" fromJunction="J4" toJunction="J6" end="60" vehsPerHour="36.64988788014909"/>
  <flow id="JF223927" begin="0" fromJunction="J4" toJunction="J7" end="60" vehsPerHour="8.550860961589114"/>
  <flow id="JF223928" begin="0" fromJunction="J4" toJunction="J5" end="60" vehsPerHour="21.656014804352807"/>
  <flow id="JF223929" begin="0" fromJunction="J7" toJunction="J6" end="60" vehsPerHour="41.80710252625061"/>
  <flow id="JF223930" begin="0" fromJunction="J7" toJunction="J4" end="60" vehsPerHour="9.783286632109956"/>
  <flow id="JF223931" begin="0" fromJunction="J7" toJunction="J5" end="60" vehsPerHour="5.141200211812296"/>
  <flow id="JF223932" begin="0" fromJunction="J5" toJunction="J6" end="60" vehsPerHour="50.98401246564381"/>
  <flow id="JF223933" begin="0" fromJunction="J5" toJunction="J4" end="60" vehsPerHour="25.216522706704243"/>
  <flow id="JF223934" begin="0" fromJunction="J5" toJunction="J7" end="60" vehsPerHour="40.73761661983455"/>
  <flow id="JF223935" begin="0" fromJunction="J6" toJunction="J0" end="60" vehsPerHour="24.060049728649144"/>
  <flow id="JF223936" begin="0" fromJunction="J6" toJunction="J3" end="60" vehsPerHour="37.790506286007535"/>
  <flow id="JF223937" begin="0" fromJunction="J4" toJunction="J0" end="60" vehsPerHour="18.6426647062426"/>
  <flow id="JF223938" begin="0" fromJunction="J4" toJunction="J3" end="60" vehsPerHour="61.75786615277906"/>
  <flow id="JF223939" begin="0" fromJunction="J7" toJunction="J0" end="60" vehsPerHour="55.64821114842197"/>
  <flow id="JF223940" begin="0" fromJunction="J7" toJunction="J3" end="60" vehsPerHour="41.954064834391424"/>
  <flow id="JF223941" begin="0" fromJunction="J5" toJunction="J0" end="60" vehsPerHour="56.774542814334396"/>
  <flow id="JF223942" begin="0" fromJunction="J5" toJunction="J3" end="60" vehsPerHour="14.732991578464528"/>
  <flow id="JF223943" begin="60" fromJunction="J0" toJunction="J3" end="120" vehsPerHour="355.6565163104182"/>
  <flow id="JF223944" begin="60" fromJunction="J3" toJunction="J0" end="120" vehsPerHour="291.25070494710303"/>
  <flow id="JF223945" begin="60" fromJunction="J0" toJunction="J6" end="120" vehsPerHour="34.1168776607997"/>
  <flow id="JF223946" begin="60" fromJunction="J0" toJunction="J4" end="120" vehsPerHour="2.2374607237396273"/>
  <flow id="JF223947" begin="60" fromJunction="J0" toJunction="J7" end="120" vehsPerHour="64.71476420563162"/>
  <flow id="JF223948" begin="60" fromJunction="J0" toJunction="J5" end="120" vehsPerHour="101.5812015020496"/>
  <flow id="JF223949" begin="60" fromJunction="J3" toJunction="J6" end="120" vehsPerHour="42.09007518052048"/>
  <flow id="JF223950" begin="60" fromJunction="J3" toJunction="J4" end="120" vehsPerHour="102.01774057336824"/>
  <flow id="JF223951" begin="60" fromJunction="J3" toJunction="J7" end="120" vehsPerHour="37.23448201470629"/>
  <flow id="JF223952" begin="60" fromJunction="J3" toJunction="J5" end="120" vehsPerHour="123.41498111980482"/>
  <flow id="JF223953" begin="60" fromJunction="J6" toJunction="J4" end="120" vehsPerHour="0.18279595618840228"/>
  <flow id="JF223954" begin="60" fromJunction="J6" toJunction="J7" end="120" vehsPerHour="11.584021361827856"/>
  <flow id="JF223955" begin="60" fromJunction="J6" toJunction="J5" end="120" vehsPerHour="39.72978093043621"/>
  <flow id="JF223956" begin="60" fromJunction="J4" toJunction="J6" end="120" vehsPerHour="67.59616049102159"/>
  <flow id="JF223957" begin="60" fromJunction="J4" toJunction="J7" end="120" vehsPerHour="21.5773908298947"/>
  <flow id="JF223958" begin="60" fromJunction="J4" toJunction="J5" end="120" vehsPerHour="48.328075321546386"/>
  <flow id="JF223959" begin="60" fromJunction="J7" toJunction="J6" end="120" vehsPerHour="31.802852426764566"/>
  <flow id="JF223960" begin="60" fromJunction="J7" toJunction="J4" end="120" vehsPerHour="15.576230790042455"/>
  <flow id="JF223961" begin="60" fromJunction="J7" toJunction="J5" end="120" vehsPerHour="25.19314740461859"/>
  <flow id="JF223962" begin="60" fromJunction="J5" toJunction="J6" end="120" vehsPerHour="4.241417360443181"/>
  <flow id="JF223963" begin="60" fromJunction="J5" toJunction="J4" end="120" vehsPerHour="59.576735694774676"/>
  <flow id="JF223964" begin="60" fromJunction="J5" toJunction="J7" end="120" vehsPerHour="3.225158712375057"/>
  <flow id="JF223965" begin="60" fromJunction="J6" toJunction="J0" end="120" vehsPerHour="25.185006063915267"/>
  <flow id="JF223966" begin="60" fromJunction="J6" toJunction="J3" end="120" vehsPerHour="52.277991184821396"/>
  <flow id="JF223967" begin="60" fromJunction="J4" toJunction="J0" end="120" vehsPerHour="28.723004527864934"/>
  <flow id="JF223968" begin="60" fromJunction="J4" toJunction="J3" end="120" vehsPerHour="30.0011609297538"/>
  <flow id="JF223969" begin="60" fromJunction="J7" toJunction="J0" end="120" vehsPerHour="1.9662424777703793"/>
  <flow id="JF223970" begin="60" fromJunction="J7" toJunction="J3" end="120" vehsPerHour="41.33532674071989"/>
  <flow id="JF223971" begin="60" fromJunction="J5" toJunction="J0" end="120" vehsPerHour="62.36891103553195"/>
  <flow id="JF223972" begin="60" fromJunction="J5" toJunction="J3" end="120" vehsPerHour="40.04838751882825"/>
  <flow id="JF223973" begin="120" fromJunction="J0" toJunction="J3" end="180" vehsPerHour="289.6117277367445"/>
  <flow id="JF223974" begin="120" fromJunction="J3" toJunction="J0" end="180" vehsPerHour="448.1834690950235"/>
  <flow id="JF223975" begin="120" fromJunction="J0" toJunction="J6" end="180" vehsPerHour="20.431988922884454"/>
  <flow id="JF223976" begin="120" fromJunction="J0" toJunction="J4" end="180" vehsPerHour="20.639644138282097"/>
  <flow id="JF223977" begin="120" fromJunction="J0" toJunction="J7" end="180" vehsPerHour="72.92379276717472"/>
  <flow id="JF223978" begin="120" fromJunction="J0" toJunction="J5" end="180" vehsPerHour="6.305129384407503"/>
  <flow id="JF223979" begin="120" fromJunction="J3" toJunction="J6" end="180" vehsPerHour="136.1560957661615"/>
  <flow id="JF223980" begin="120" fromJunction="J3" toJunction="J4" end="180" vehsPerHour="127.04636909778426"/>
  <flow id="JF223981" begin="120" fromJunction="J3" toJunction="J7" end="180" vehsPerHour="8.63466458080004"/>
  <flow id="JF223982" begin="120" fromJunction="J3" toJunction="J5" end="180" vehsPerHour="59.0401989319505"/>
  <flow id="JF223983" begin="120" fromJunction="J6" toJunction="J4" end="180" vehsPerHour="13.916463742774727"/>
  <flow id="JF223984" begin="120" fromJunction="J6" toJunction="J7" end="180" vehsPerHour="32.01465740538035"/>
  <flow id="JF223985" begin="120" fromJunction="J6" toJunction="J5" end="180" vehsPerHour="37.45107042955486"/>
  <flow id="JF223986" begin="120" fromJunction="J4" toJunction="J6" end="180" vehsPerHour="26.74899542149629"/>
  <flow id="JF223987" begin="120" fromJunction="J4" toJunction="J7" end="180" vehsPerHour="3.192940841216969"/>
  <flow id="JF223988" begin="120" fromJunction="J4" toJunction="J5" end="180" vehsPerHour="56.261903612869354"/>
  <flow id="JF223989" begin="120" fromJunction="J7" toJunction="J6" end="180" vehsPerHour="34.19077440145138"/>
  <flow id="JF223990" begin="120" fromJunction="J7" toJunction="J4" end="180" vehsPerHour="2.14429896013669"/>
  <flow id="JF223991" begin="120" fromJunction="J7" toJunction="J5" end="180" vehsPerHour="10.707933107100393"/>
  <flow id="JF223992" begin="120" fromJunction="J5" toJunction="J6" end="180" vehsPerHour="3.3108707041854033"/>
  <flow id="JF223993" begin="120" fromJunction="J5" toJunction="J4" end="180" vehsPerHour="55.249329631208404"/>
  <flow id="JF223994" begin="120" fromJunction="J5" toJunction="J7" end="180" vehsPerHour="47.19620323852396"/>
  <flow id="JF223995" begin="120" fromJunction="J6" toJunction="J0" end="180" vehsPerHour="19.3156290363832"/>
  <flow id="JF223996" begin="120" fromJunction="J6" toJunction="J3" end="180" vehsPerHour="14.094658818320235"/>
  <flow id="JF223997" begin="120" fromJunction="J4" toJunction="J0" end="180" vehsPerHour="18.383544171502948"/>
  <flow id="JF223998" begin="120" fromJunction="J4" toJunction="J3" end="180" vehsPerHour="10.419078997786313"/>
  <flow id="JF223999" begin="120" fromJunction="J7" toJunction="J0" end="180" vehsPerHour="4.882619711332242"/>
  <flow id="JF224000" begin="120" fromJunction="J7" toJunction="J3" end="180" vehsPerHour="3.289189999182546"/>
  <flow id="JF224001" begin="120" fromJunction="J5" toJunction="J0" end="180" vehsPerHour="5.716935263845848"/>
  <flow id="JF224002" begin="120" fromJunction="J5" toJunction="J3" end="180" vehsPerHour="57.27962153824752"/>
  <flow id="JF224003" begin="180" fromJunction="J0" toJunction="J3" end="240" vehsPerHour="297.31657941847755"/>
  <flow id="JF224004" begin="180" fromJunction="J3" toJunction="J0" end="240" vehsPerHour="83.31342480802789"/>
  <flow id="JF224005" begin="180" fromJunction="J0" toJunction="J6" end="240" vehsPerHour="81.94686940926931"/>
  <flow id="JF224006" begin="180" fromJunction="J0" toJunction="J4" end="240" vehsPerHour="30.03256567593005"/>
  <flow id="JF224007" begin="180" fromJunction="J0" toJunction="J7" end="240" vehsPerHour="92.62452871867254"/>
  <flow id="JF224008" begin="180" fromJunction="J0" toJunction="J5" end="240" vehsPerHour="91.90994716785674"/>
  <flow id="JF224009" begin="180" fromJunction="J3" toJunction="J6" end="240" vehsPerHour="51.142294961824014"/>
  <flow id="JF224010" begin="180" fromJunction="J3" toJunction="J4" end="240" vehsPerHour="10.998555939785525"/>
  <flow id="JF224011" begin="180" fromJunction="J3" toJunction="J7" end="240" vehsPerHour="110.54090320336404"/>
  <flow id="JF224012" begin="180" fromJunction="J3" toJunction="J5" end="240" vehsPerHour="1.5175745785457624"/>
  <flow id="JF224013" begin="240" fromJunction="J0" toJunction="J3" end="300" vehsPerHour="422.05464366197594"/>
  <flow id="JF224014" begin="240" fromJunction="J3" toJunction="J0" end="300" vehsPerHour="190.45481234734578"/>
  <flow id="JF224015" begin="240" fromJunction="J0" toJunction="J6" end="300" vehsPerHour="107.08731307485192"/>
  <flow id="JF224016" begin="240" fromJunction="J0" toJunction="J4" end="300" vehsPerHour="106.52474638668998"/>
  <flow id="JF224017" begin="240" fromJunction="J0" toJunction="J7" end="300" vehsPerHour="85.74572410829593"/>
  <flow id="JF224018" begin="240" fromJunction="J0" toJunction="J5" end="300" vehsPerHour="7.72063855995129"/>
  <flow id="JF224019" begin="240" fromJunction="J3" toJunction="J6" end="300" vehsPerHour="76.8534154981991"/>
  <flow id="JF224020" begin="240" fromJunction="J3" toJunction="J4" end="300" vehsPerHour="0.055293671229440955"/>
  <flow id="JF224021" begin="240" fromJunction="J3" toJunction="J7" end="300" vehsPerHour="60.166482085963366"/>
  <flow id="JF224022" begin="240" fromJunction="J3" toJunction="J5" end="300" vehsPerHour="47.55392309160196"/>
  <flow id="JF224023" begin="240" fromJunction="J6" toJunction="J4" end="300" vehsPerHour="64.12456859100365"/>
  <flow id="JF224024" begin="240" fromJunction="J6" toJunction="J7" end="300" vehsPerHour="31.26918234151228"/>
  <flow id="JF224025" begin="240" fromJunction="J6" toJunction="J5" end="300" vehsPerHour="33.17721529911014"/>
  <flow id="JF224026" begin="240" fromJunction="J4" toJunction="J6" end="300" vehsPerHour="65.76263841707166"/>
  <flow id="JF224027" begin="240" fromJunction="J4" toJunction="J7" end="300" vehsPerHour="21.36004398823662"/>
  <flow id="JF224028" begin="240" fromJunction="J4" toJunction="J5" end="300" vehsPerHour="28.60156169977027"/>
  <flow id="JF224029" begin="240" fromJunction="J7" toJunction="J6" end="300" vehsPerHour="17.132089839157675"/>
  <flow id="JF224030" begin="240" fromJunction="J7" toJunction="J4" end="300" vehsPerHour="53.356439641010084"/>
  <flow id="JF224031" begin="240" fromJunction="J7" toJunction="J5" end="300" vehsPerHour="53.39523520069803"/>
  <flow id="JF224032" begin="240" fromJunction="J5" toJunction="J6" end="300" vehsPerHour="38.93977346888113"/>
  <flow id="JF224033" begin="240" fromJunction="J5" toJunction="J4" end="300" vehsPerHour="9.787412074262658"/>
  <flow id="JF224034" begin="240" fromJunction="J5" toJunction="J7" end="300" vehsPerHour="41.25033432444847"/>
  <flow id="JF224035" begin="240" fromJunction="J6" toJunction="J0" end="300" vehsPerHour="11.210629064007499"/>
  <flow id="JF224036" begin="240" fromJunction="J6" toJunction="J3" end="300" vehsPerHour="30.66298837289249"/>
  <flow id="JF224037" begin="240" fromJunction="J4" toJunction="J0" end="300" vehsPerHour="34.23492914275044"/>
  <flow id="JF224038" begin="240" fromJunction="J4" toJunction="J3" end="300" vehsPerHour="58.293365282817945"/>
  <flow id="JF224039" begin="240" fromJunction="J7" toJunction="J0" end="300" vehsPerHour="47.54854129396573"/>
  <flow id="JF224040" begin="240" fromJunction="J7" toJunction="J3" end="300" vehsPerHour="14.646230187612726"/>
  <flow id="JF224041" begin="240" fromJunction="J5" toJunction="J0" end="300" vehsPerHour="48.93316610893037"/>
  <flow id="JF224042" begin="240" fromJunction="J5" toJunction="J3" end="300" vehsPerHour="32.89812073245147"/>
  <flow id="JF224043" begin="300" fromJunction="J0" toJunction="J3" end="360" vehsPerHour="531.0699620817134"/>
  <flow id="JF224044" begin="300" fromJunction="J3" toJunction="J0" end="360" vehsPerHour="432.4309860162953"/>
  <flow id="JF224045" begin="300" fromJunction="J0" toJunction="J6" end="360" vehsPerHour="108.87044827201824"/>
  <flow id="JF224046" begin="300" fromJunction="J0" toJunction="J4" end="360" vehsPerHour="17.475787122669036"/>
  <flow id="JF224047" begin="300" fromJunction="J0" toJunction="J7" end="360" vehsPerHour="97.31679187188685"/>
  <flow id="JF224048" begin="300" fromJunction="J0" toJunction="J5" end="360" vehsPerHour="8.92901885714936"/>
  <flow id="JF224049" begin="300" fromJunction="J3" toJunction="J6" end="360" vehsPerHour="85.81745588742024"/>
  <flow id="JF224050" begin="300" fromJunction="J3" toJunction="J4" end="360" vehsPerHour="81.02689223552234"/>
  <flow id="JF224051" begin="300" fromJunction="J3" toJunction="J7" end="360" vehsPerHour="3.9316931568713187"/>
  <flow id="JF224052" begin="300" fromJunction="J3" toJunction="J5" end="360" vehsPerHour="96.87280817329635"/>
  <flow id="JF224053" begin="300" fromJunction="J6" toJunction="J4" end="360" vehsPerHour="2.887454175071188"/>
  <flow id="JF224054" begin="300" fromJunction="J6" toJunction="J7" end="360" vehsPerHour="3.2096517500065076"/>
  <flow id="JF224055" begin="300" fromJunction="J6" toJunction="J5" end="360" vehsPerHour="21.45159740069724"/>
  <flow id="JF224056" begin="300" fromJunction="J4" toJunction="J6" end="360" vehsPerHour="36.786295417370944"/>
  <flow id="JF224057" begin="300" fromJunction="J4" toJunction="J7" end="360" vehsPerHour="12.026337544601633"/>
  <flow id="JF224058" begin="300" fromJunction="J4" toJunction="J5" end="360" vehsPerHour="60.39838073318795"/>
  <flow id="JF224059" begin="300" fromJunction="J7" toJunction="J6" end="360" vehsPerHour="59.85572616586593"/>
  <flow id="JF224060" begin="300" fromJunction="J7" toJunction="J4" end="360" vehsPerHour="28.436790592722062"/>
  <flow id="JF224061" begin="300" fromJunction="J7" toJunction="J5" end="360" vehsPerHour="49.65368081069418"/>
  <flow id="JF224062" begin="300" fromJunction="J5" toJunction="J6" end="360" vehsPerHour="65.9375931054535"/>
  <flow id="JF224063" begin="300" fromJunction="J5" toJunction="J4" end="360" vehsPerHour="5.992314788088634"/>
  <flow id="JF224064" begin="300" fromJunction="J5" toJunction="J7" end="360" vehsPerHour="49.10746004320678"/>
  <flow id="JF224065" begin="300" fromJunction="J6" toJunction="J0" end="360" vehsPerHour="7.469168392811295"/>
  <flow id="JF224066" begin="300" fromJunction="J6" toJunction="J3" end="360" vehsPerHour="24.36108454786289"/>
  <flow id="JF224067" begin="300" fromJunction="J4" toJunction="J0" end="360" vehsPerHour="24.679726610441787"/>
  <flow id="JF224068" begin="300" fromJunction="J4" toJunction="J3" end="360" vehsPerHour="44.82935423839493"/>
  <flow id="JF224069" begin="300" fromJunction="J7" toJunction="J0" end="360" vehsPerHour="61.248629014932966"/>
  <flow id="JF224070" begin="300" fromJunction="J7" toJunction="J3" end="360" vehsPerHour="45.13789548844172"/>
  <flow id="JF224071" begin="300" fromJunction="J5" toJunction="J0" end="360" vehsPerHour="44.61355276610559"/>
  <flow id="JF224072" begin="300" fromJunction="J5" toJunction="J3" end="360" vehsPerHour="8.21229223232641"/>
  <flow id="JF224073" begin="360" fromJunction="J0" toJunction="J3" end="420" vehsPerHour="396.8695399549591"/>
  <flow id="JF224074" begin="360" fromJunction="J3" toJunction="J0" end="420" vehsPerHour="52.3664176528809"/>
  <flow id="JF224075" begin="360" fromJunction="J0" toJunction="J6" end="420" vehsPerHour="92.17606315630454"/>
  <flow id="JF224076" begin="360" fromJunction="J0" toJunction="J4" end="420" vehsPerHour="108.65002714203118"/>
  <flow id="JF224077" begin="360" fromJunction="J0" toJunction="J7" end="420" vehsPerHour="108.78663972375463"/>
  <flow id="JF224078" begin="360" fromJunction="J0" toJunction="J5" end="420" vehsPerHour="22.252731494981614"/>
  <flow id="JF224079" begin="360" fromJunction="J3" toJunction="J6" end="420" vehsPerHour="5.843352260400577"/>
  <flow id="JF224080" begin="360" fromJunction="J3" toJunction="J4" end="420" vehsPerHour="53.08962427024436"/>
  <flow id="JF224081" begin="360" fromJunction="J3" toJunction="J7" end="420" vehsPerHour="75.97298841955448"/>
  <flow id="JF224082" begin="360" fromJunction="J3" toJunction="J5" end="420" vehsPerHour="9.970476175002574"/>
  <flow id="JF224083" begin="360" fromJunction="J6" toJunction="J4" end="420" vehsPerHour="2.7026136536654217"/>
  <flow id="JF224084" begin="360" fromJunction="J6" toJunction="J7" end="420" vehsPerHour="7.577961757258672"/>
  <flow id="JF224085" begin="360" fromJunction="J6" toJunction="J5" end="420" vehsPerHour="40.02524614026637"/>
  <flow id="JF224086" begin="360" fromJunction="J4" toJunction="J6" end="420" vehsPerHour="10.997896401210566"/>
  <flow id="JF224087" begin="360" fromJunction="J4" toJunction="J7" end="420" vehsPerHour="14.446799375520131"/>
  <flow id="JF224088" begin="360" fromJunction="J4" toJunction="J5" end="420" vehsPerHour="3.4613596811903413"/>
  <flow id="JF224089" begin="360" fromJunction="J7" toJunction="J6" end="420" vehsPerHour="12.106509835588716"/>
  <flow id="JF224090" begin="360" fromJunction="J7" toJunction="J4" end="420" vehsPerHour="67.34874767622668"/>
  <flow id="JF224091" begin="360" fromJunction="J7" toJunction="J5" end="420" vehsPerHour="6.950188148297589"/>
  <flow id="JF224092" begin="360" fromJunction="J5" toJunction="J6" end="420" vehsPerHour="17.196225207213747"/>
  <flow id="JF224093" begin="360" fromJunction="J5" toJunction="J4" end="420" vehsPerHour="12.790823856050752"/>
  <flow id="JF224094" begin="360" fromJunction="J5" toJunction="J7" end="420" vehsPerHour="19.631117044199257"/>
  <flow id="JF224095" begin="360" fromJunction="J6" toJunction="J0" end="420" vehsPerHour="46.4232481518051"/>
  <flow id="JF224096" begin="360" fromJunction="J6" toJunction="J3" end="420" vehsPerHour="55.12015397693173"/>
  <flow id="JF224097" begin="360" fromJunction="J4" toJunction="J0" end="420" vehsPerHour="63.31856147847789"/>
  <flow id="JF224098" begin="360" fromJunction="J4" toJunction="J3" end="420" vehsPerHour="54.15298442753089"/>
  <flow id="JF224099" begin="360" fromJunction="J7" toJunction="J0" end="420" vehsPerHour="66.1062819583212"/>
  <flow id="JF224100" begin="360" fromJunction="J7" toJunction="J3" end="420" vehsPerHour="49.7394817713904"/>
  <flow id="JF224101" begin="360" fromJunction="J5" toJunction="J0" end="420" vehsPerHour="33.37984158755432"/>
  <flow id="JF224102" begin="360" fromJunction="J5" toJunction="J3" end="420" vehsPerHour="53.27565469148924"/>
  <flow id="JF224103" begin="420" fromJunction="J0" toJunction="J3" end="480" vehsPerHour="290.85494716288974"/>
  <flow id="JF224104" begin="420" fromJunction="J3" toJunction="J0" end="480" vehsPerHour="72.52036187837955"/>
  <flow id="JF224105" begin="420" fromJunction="J0" toJunction="J6" end="480" vehsPerHour="79.14067846856976"/>
  <flow id="JF224106" begin="420" fromJunction="J0" toJunction="J4" end="480" vehsPerHour="83.05108796525828"/>
  <flow id="JF224107" begin="420" fromJunction="J0" toJunction="J7" end="480" vehsPerHour="116.27205707741176"/>
  <flow id="JF224108" begin="420" fromJunction="J0" toJunction="J5" end="480" vehsPerHour="110.08580353132844"/>
  <flow id="JF224109" begin="420" fromJunction="J3" toJunction="J6" end="480" vehsPerHour="34.80158932122896"/>
  <flow id="JF224110" begin="420" fromJunction="J3" toJunction="J4" end="480" vehsPerHour="23.08023847111618"/>
  <flow id="JF224111" begin="420" fromJunction="J3" toJunction="J7" end="480" vehsPerHour="60.34703939612548"/>
  <flow id="JF224112" begin="420" fromJunction="J3" toJunction="J5" end="480" vehsPerHour="66.93527603803118"/>
  <flow id="JF224113" begin="480" fromJunction="J0" toJunction="J3" end="540" vehsPerHour="36.99125706301464"/>
  <flow id="JF224114" begin="480" fromJunction="J3" toJunction="J0" end="540" vehsPerHour="285.39817492802723"/>
  <flow id="JF224115" begin="480" fromJunction="J0" toJunction="J6" end="540" vehsPerHour="136.5996091992943"/>
  <flow id="JF224116" begin="480" fromJunction="J0" toJunction="J4" end="540" vehsPerHour="88.23187673742643"/>
  <flow id="JF224117" begin="480" fromJunction="J0" toJunction="J7" end="540" vehsPerHour="56.32191992988138"/>
  <flow id="JF224118" begin="480" fromJunction="J0" toJunction="J5" end="540" vehsPerHour="96.63508732268842"/>
  <flow id="JF224119" begin="480" fromJunction="J3" toJunction="J6" end="540" vehsPerHour="133.1053378784794"/>
  <flow id="JF224120" begin="480" fromJunction="J3" toJunction="J4" end="540" vehsPerHour="86.76413087482672"/>
  <flow id="JF224121" begin="480" fromJunction="J3" toJunction="J7" end="540" vehsPerHour="108.45779886565539"/>
  <flow id="JF224122" begin="480" fromJunction="J3" toJunction="J5" end="540" vehsPerHour="76.50937935268882"/>
  <flow id="JF224123" begin="480" fromJunction="J6" toJunction="J4" end="540" vehsPerHour="26.800005344172554"/>
  <flow id="JF224124" begin="480" fromJunction="J6" toJunction="J7" end="540" vehsPerHour="4.1798991405110275"/>
  <flow id="JF224125" begin="480" fromJunction="J6" toJunction="J5" end="540" vehsPerHour="43.56131747681049"/>
  <flow id="JF224126" begin="480" fromJunction="J4" toJunction="J6" end="540" vehsPerHour="31.399049216659247"/>
  <flow id="JF224127" begin="480" fromJunction="J4" toJunction="J7" end="540" vehsPerHour="52.50599968904441"/>
  <flow id="JF224128" begin="480" fromJunction="J4" toJunction="J5" end="540" vehsPerHour="55.44875629623497"/>
  <flow id="JF224129" begin="480" fromJunction="J7" toJunction="J6" end="540" vehsPerHour="51.619287495742604"/>
  <flow id="JF224130" begin="480" fromJunction="J7" toJunction="J4" end="540" vehsPerHour="13.666823799136033"/>
  <flow id="JF224131" begin="480" fromJunction="J7" toJunction="J5" end="540" vehsPerHour="25.495047280800655"/>
  <flow id="JF224132" begin="480" fromJunction="J5" toJunction="J6" end="540" vehsPerHour="31.160518481616755"/>
  <flow id="JF224133" begin="480" fromJunction="J5" toJunction="J4" end="540" vehsPerHour="58.40683316707368"/>
  <flow id="JF224134" begin="480" fromJunction="J5" toJunction="J7" end="540" vehsPerHour="68.07274305172865"/>
  <flow id="JF224135" begin="480" fromJunction="J6" toJunction="J0" end="540" vehsPerHour="20.4434313034829"/>
  <flow id="JF224136" begin="480" fromJunction="J6" toJunction="J3" end="540" vehsPerHour="49.944635929914135"/>
  <flow id="JF224137" begin="480" fromJunction="J4" toJunction="J0" end="540" vehsPerHour="12.065010062991666"/>
  <flow id="JF224138" begin="480" fromJunction="J4" toJunction="J3" end="540" vehsPerHour="53.448741168080375"/>
  <flow id="JF224139" begin="480" fromJunction="J7" toJunction="J0" end="540" vehsPerHour="31.395421730029714"/>
  <flow id="JF224140" begin="480" fromJunction="J7" toJunction="J3" end="540" vehsPerHour="6.684632031179146"/>
  <flow id="JF224141" begin="480" fromJunction="J5" toJunction="J0" end="540" vehsPerHour="44.31757228949511"/>
  <flow id="JF224142" begin="480" fromJunction="J5" toJunction="J3" end="540" vehsPerHour="41.239402443741795"/>
  <flow id="JF224143" begin="540" fromJunction="J0" toJunction="J3" end="600" vehsPerHour="242.53902075195748"/>
  <flow id="JF224144" begin="540" fromJunction="J3" toJunction="J0" end="600" vehsPerHour="93.97385035287732"/>
  <flow id="JF224145" begin="540" fromJunction="J0" toJunction="J6" end="600" vehsPerHour="119.0910586899901"/>
  <flow id="JF224146" begin="540" fromJunction="J0" toJunction="J4" end="600" vehsPerHour="11.303495054303335"/>
  <flow id="JF224147" begin="540" fromJunction="J0" toJunction="J7" end="600" vehsPerHour="123.81972499463956"/>
  <flow id="JF224148" begin="540" fromJunction="J0" toJunction="J5" end="600" vehsPerHour="92.07217577649777"/>
  <flow id="JF224149" begin="540" fromJunction="J3" toJunction="J6" end="600" vehsPerHour="100.31975920527803"/>
  <flow id="JF224150" begin="540" fromJunction="J3" toJunction="J4" end="600" vehsPerHour="30.375225936066638"/>
  <flow id="JF224151" begin="540" fromJunction="J3" toJunction="J7" end="600" vehsPerHour="24.83058249002816"/>
  <flow id="JF224152" begin="540" fromJunction="J3" toJunction="J5" end="600" vehsPerHour="0.22078693504774488"/>
  <flow id="JF224153" begin="540" fromJunction="J6" toJunction="J4" end="600" vehsPerHour="21.195095504901804"/>
  <flow id="JF224154" begin="540" fromJunction="J6" toJunction="J7" end="600" vehsPerHour="12.834754586715974"/>
  <flow id="JF224155" begin="540" fromJunction="J6" toJunction="J5" end="600" vehsPerHour="52.49016293184611"/>
  <flow id="JF224156" begin="540" fromJunction="J4" toJunction="J6" end="600" vehsPerHour="19.476096706283613"/>
  <flow id="JF224157" begin="540" fromJunction="J4" toJunction="J7" end="600" vehsPerHour="51.29272204486449"/>
  <flow id="JF224158" begin="540" fromJunction="J4" toJunction="J5" end="600" vehsPerHour="63.55310090679784"/>
  <flow id="JF224159" begin="540" fromJunction="J7" toJunction="J6" end="600" vehsPerHour="27.128166926846287"/>
  <flow id="JF224160" begin="540" fromJunction="J7" toJunction="J4" end="600" vehsPerHour="32.53223149039097"/>
  <flow id="JF224161" begin="540" fromJunction="J7" toJunction="J5" end="600" vehsPerHour="22.9369174745954"/>
  <flow id="JF224162" begin="540" fromJunction="J5" toJunction="J6" end="600" vehsPerHour="52.68532566395727"/>
  <flow id="JF224163" begin="540" fromJunction="J5" toJunction="J4" end="600" vehsPerHour="42.46548888345257"/>
  <flow id="JF224164" begin="540" fromJunction="J5" toJunction="J7" end="600" vehsPerHour="50.15525022074284"/>
  <flow id="JF224165" begin="540" fromJunction="J6" toJunction="J0" end="600" vehsPerHour="56.87322802885854"/>
  <flow id="JF224166" begin="540" fromJunction="J6" toJunction="J3" end="600" vehsPerHour="42.2802563556015"/>
  <flow id="JF224167" begin="540" fromJunction="J4" toJunction="J0" end="600" vehsPerHour="22.755601529718074"/>
  <flow id="JF224168" begin="540" fromJunction="J4" toJunction="J3" end="600" vehsPerHour="21.674847072306523"/>
  <flow id="JF224169" begin="540" fromJunction="J7" toJunction="J0" end="600" vehsPerHour="17.07675211050848"/>
  <flow id="JF224170" begin="540" fromJunction="J7" toJunction="J3" end="600" vehsPerHour="7.3453050057642"/>
  <flow id="JF224171" begin="540" fromJunction="J5" toJunction="J0" end="600" vehsPerHour="32.78669284779656"/>
  <flow id="JF224172" begin="540" fromJunction="J5" toJunction="J3" end="600" vehsPerHour="29.606329659707047"/>
  <flow id="JF224173" begin="600" fromJunction="J0" toJunction="J3" end="660" vehsPerHour="290.20232189079496"/>
  <flow id="JF224174" begin="600" fromJunction="J3" toJunction="J0" end="660" vehsPerHour="46.80415540507876"/>
  <flow id="JF224175" begin="600" fromJunction="J0" toJunction="J6" end="660" vehsPerHour="1.9589949785483216"/>
  <flow id="JF224176" begin="600" fromJunction="J0" toJunction="J4" end="660" vehsPerHour="131.35751715841317"/>
  <flow id="JF224177" begin="600" fromJunction="J0" toJunction="J7" end="660" vehsPerHour="38.19832059458311"/>
  <flow id="JF224178" begin="600" fromJunction="J0" toJunction="J5" end="660" vehsPerHour="32.088054020219595"/>