<?xml version="1.0" encoding="UTF-8"?>
<routes xmlns:xsi="http://www.w3.org/2001/XMLSchema-instance" xsi:noNamespaceSchemaLocation="http://sumo.dlr.de/xsd/routes_file.xsd">
  <flow id="JF215753" begin="0" fromJunction="J0" toJunction="J3" end="60" vehsPerHour="200.89950257389913"/>
  <flow id="JF215754" begin="0" fromJunction="J3" toJunction="J0" end="60" vehsPerHour="140.583908197346"/>
  <flow id="JF215755" begin="0" fromJunction="J0" toJunction="J6" end="60" vehsPerHour="68.0735602897744"/>
  <flow id="JF215756" begin="0" fromJunction="J0" toJunction="J4" end="60" vehsPerHour="58.38337990607017"/>
  <flow id="JF215757" begin="0" fromJunction="J0" toJunction="J7" end="60" vehsPerHour="63.77717926381682"/>
  <flow id="JF215758" begin="0" fromJunction="J0" toJunction="J5" end="60" vehsPerHour="130.67800811481402"/>
  <flow id="JF215759" begin="0" fromJunction="J3" toJunction="J6" end="60" vehsPerHour="37.902596098114714"/>
  <flow id="JF215760" begin="0" fromJunction="J3" toJunction="J4" end="60" vehsPerHour="111.03673825294797"/>
  <flow id="JF215761" begin="0" fromJunction="J3" toJunction="J7" end="60" vehsPerHour="103.0158836310323"/>
  <flow id="JF215762" begin="0" fromJunction="J3" toJunction="J5" end="60" vehsPerHour="112.07617379799089"/>
  <flow id="JF215763" begin="0" fromJunction="J6" toJunction="J4" end="60" vehsPerHour="30.311170507380535"/>
  <flow id="JF215764" begin="0" fromJunction="J6" toJunction="J7" end="60" vehsPerHour="46.30256615942749"/>
  <flow id="JF215765" begin="0" fromJunction="J6" toJunction="J5" end="60" vehsPerHour="28.633274500635945"/>
  <flow id="JF215766" begin="0" fromJunction="J4" toJunction="J6" end="60" vehsPerHour="4.6609501608584"/>
  <flow id="JF215767" begin="0" fromJunction="J4" toJunction="J7" end="60" vehsPerHour="0.9163335795018952"/>
  <flow id="JF215768" begin="0" fromJunction="J4" toJunction="J5" end="60" vehsPerHour="65.84989317447224"/>
  <flow id="JF215769" begin="0" fromJunction="J7" toJunction="J6" end="60" vehsPerHour="63.905363831334974"/>
  <flow id="JF215770" begin="0" fromJunction="J7" toJunction="J4" end="60" vehsPerHour="30.968767998985214"/>
  <flow id="JF215771" begin="0" fromJunction="J7" toJunction="J5" end="60" vehsPerHour="4.027334785531327"/>
  <flow id="JF215772" begin="0" fromJunction="J5" toJunction="J6" end="60" vehsPerHour="0.11155425328066887"/>
  <flow id="JF215773" begin="0" fromJunction="J5" toJunction="J4" end="60" vehsPerHour="4.695745358816323"/>
  <flow id="JF215774" begin="0" fromJunction="J5" toJunction="J7" end="60" vehsPerHour="12.62383328832102"/>
  <flow id="JF215775" begin="0" fromJunction="J6" toJunction="J0" end="60" vehsPerHour="2.7304681145392435"/>
  <flow id="JF215776" begin="0" fromJunction="J6" toJunction="J3" end="60" vehsPerHour="40.890542265436906"/>
  <flow id="JF215777" begin="0" fromJunction="J4" toJunction="J0" end="60" vehsPerHour="53.9639896590562"/>
  <flow id="JF215778" begin="0" fromJunction="J4" toJunction="J3" end="60" vehsPerHour="10.700694309462348"/>
  <flow id="JF215779" begin="0" fromJunction="J7" toJunction="J0" end="60" vehsPerHour="15.222448182289254"/>
  <flow id="JF215780" begin="0" fromJunction="J7" toJunction="J3" end="60" vehsPerHour="32.31540884001214"/>
  <flow id="JF215781" begin="0" fromJunction="J5" toJunction="J0" end="60" vehsPerHour="30.44703911591286"/>
  <flow id="JF215782" begin="0" fromJunction="J5" toJunction="J3" end="60" vehsPerHour="40.38568512105928"/>
  <flow id="JF215783" begin="60" fromJunction="J0" toJunction="J3" end="120" vehsPerHour="66.44936700172711"/>
  <flow id="JF215784" begin="60" fromJunction="J3" toJunction="J0" end="120" vehsPerHour="368.09861024619005"/>
  <flow id="JF215785" begin="60" fromJunction="J0" toJunction="J6" end="120" vehsPerHour="117.56976474690605"/>
  <flow id="JF215786" begin="60" fromJunction="J0" toJunction="J4" end="120" vehsPerHour="114.7379931187576"/>
  <flow id="JF215787" begin="60" fromJunction="J0" toJunction="J7" end="120" vehsPerHour="106.53354239995524"/>
  <flow id="JF215788" begin="60" fromJunction="J0" toJunction="J5" end="120" vehsPerHour="67.51733192534218"/>
  <flow id="JF215789" begin="60" fromJunction="J3" toJunction="J6" end="120" vehsPerHour="1.811061101012038"/>
  <flow id="JF215790" begin="60" fromJunction="J3" toJunction="J4" end="120" vehsPerHour="50.574694175974784"/>
  <flow id="JF215791" begin="60" fromJunction="J3" toJunction="J7" end="120" vehsPerHour="73.30250156010362"/>
  <flow id="JF215792" begin="60" fromJunction="J3" toJunction="J5" end="120" vehsPerHour="34.76300922787687"/>
  <flow id="JF215793" begin="60" fromJunction="J6" toJunction="J4" end="120" vehsPerHour="7.249193499041578"/>
  <flow id="JF215794" begin="60" fromJunction="J6" toJunction="J7" end="120" vehsPerHour="67.98359208274628"/>
  <flow id="JF215795" begin="60" fromJunction="J6" toJunction="J5" end="120" vehsPerHour="42.680527037714626"/>
  <flow id="JF215796" begin="60" fromJunction="J4" toJunction="J6" end="120" vehsPerHour="23.08302951338283"/>
  <flow id="JF215797" begin="60" fromJunction="J4" toJunction="J7" end="120" vehsPerHour="35.66178335710023"/>
  <flow id="JF215798" begin="60" fromJunction="J4" toJunction="J5" end="120" vehsPerHour="63.599858800912166"/>
  <flow id="JF215799" begin="60" fromJunction="J7" toJunction="J6" end="120" vehsPerHour="22.182209578590758"/>
  <flow id="JF215800" begin="60" fromJunction="J7" toJunction="J4" end="120" vehsPerHour="1.261339275936764"/>
  <flow id="JF215801" begin="60" fromJunction="J7" toJunction="J5" end="120" vehsPerHour="50.07892648392593"/>
  <flow id="JF215802" begin="60" fromJunction="J5" toJunction="J6" end="120" vehsPerHour="30.899152831025667"/>
  <flow id="JF215803" begin="60" fromJunction="J5" toJunction="J4" end="120" vehsPerHour="32.60931052116951"/>
  <flow id="JF215804" begin="60" fromJunction="J5" toJunction="J7" end="120" vehsPerHour="44.20397404811651"/>
  <flow id="JF215805" begin="60" fromJunction="J6" toJunction="J0" end="120" vehsPerHour="53.793667856923726"/>
  <flow id="JF215806" begin="60" fromJunction="J6" toJunction="J3" end="120" vehsPerHour="22.792710687212487"/>
  <flow id="JF215807" begin="60" fromJunction="J4" toJunction="J0" end="120" vehsPerHour="30.110327383179722"/>
  <flow id="JF215808" begin="60" fromJunction="J4" toJunction="J3" end="120" vehsPerHour="18.066430363406354"/>
  <flow id="JF215809" begin="60" fromJunction="J7" toJunction="J0" end="120" vehsPerHour="11.07374289847791"/>
  <flow id="JF215810" begin="60" fromJunction="J7" toJunction="J3" end="120" vehsPerHour="20.667195753895193"/>
  <flow id="JF215811" begin="60" fromJunction="J5" toJunction="J0" end="120" vehsPerHour="15.354714822487315"/>
  <flow id="JF215812" begin="60" fromJunction="J5" toJunction="J3" end="120" vehsPerHour="65.31567956181799"/>
  <flow id="JF215813" begin="120" fromJunction="J0" toJunction="J3" end="180" vehsPerHour="349.78913060940795"/>
  <flow id="JF215814" begin="120" fromJunction="J3" toJunction="J0" end="180" vehsPerHour="335.2863686744227"/>
  <flow id="JF215815" begin="120" fromJunction="J0" toJunction="J6" end="180" vehsPerHour="34.6852963335388"/>
  <flow id="JF215816" begin="120" fromJunction="J0" toJunction="J4" end="180" vehsPerHour="120.23425048973367"/>
  <flow id="JF215817" begin="120" fromJunction="J0" toJunction="J7" end="180" vehsPerHour="6.901256263460299"/>
  <flow id="JF215818" begin="120" fromJunction="J0" toJunction="J5" end="180" vehsPerHour="10.581805382758297"/>
  <flow id="JF215819" begin="120" fromJunction="J3" toJunction="J6" end="180" vehsPerHour="72.37918725585767"/>
  <flow id="JF215820" begin="120" fromJunction="J3" toJunction="J4" end="180" vehsPerHour="5.8817435603092285"/>
  <flow id="JF215821" begin="120" fromJunction="J3" toJunction="J7" end="180" vehsPerHour="136.2871292743629"/>
  <flow id="JF215822" begin="120" fromJunction="J3" toJunction="J5" end="180" vehsPerHour="118.56417709792716"/>
  <flow id="JF215823" begin="120" fromJunction="J6" toJunction="J4" end="180" vehsPerHour="37.03993517649289"/>
  <flow id="JF215824" begin="120" fromJunction="J6" toJunction="J7" end="180" vehsPerHour="15.067941655643995"/>
  <flow id="JF215825" begin="120" fromJunction="J6" toJunction="J5" end="180" vehsPerHour="47.163874598998966"/>
  <flow id="JF215826" begin="120" fromJunction="J4" toJunction="J6" end="180" vehsPerHour="55.96379990248928"/>
  <flow id="JF215827" begin="120" fromJunction="J4" toJunction="J7" end="180" vehsPerHour="9.87328086345498"/>
  <flow id="JF215828" begin="120" fromJunction="J4" toJunction="J5" end="180" vehsPerHour="8.842934414884995"/>
  <flow id="JF215829" begin="120" fromJunction="J7" toJunction="J6" end="180" vehsPerHour="46.87125932724825"/>
  <flow id="JF215830" begin="120" fromJunction="J7" toJunction="J4" end="180" vehsPerHour="42.132995245367105"/>
  <flow id="JF215831" begin="120" fromJunction="J7" toJunction="J5" end="180" vehsPerHour="21.26023837034468"/>
  <flow id="JF215832" begin="120" fromJunction="J5" toJunction="J6" end="180" vehsPerHour="48.37281763027438"/>
  <flow id="JF215833" begin="120" fromJunction="J5" toJunction="J4" end="180" vehsPerHour="63.044132055051065"/>
  <flow id="JF215834" begin="120" fromJunction="J5" toJunction="J7" end="180" vehsPerHour="3.7786342993076327"/>
  <flow id="JF215835" begin="120" fromJunction="J6" toJunction="J0" end="180" vehsPerHour="7.335243153627653"/>
  <flow id="JF215836" begin="120" fromJunction="J6" toJunction="J3" end="180" vehsPerHour="27.81444161635675"/>
  <flow id="JF215837" begin="120" fromJunction="J4" toJunction="J0" end="180" vehsPerHour="51.129948471592066"/>
  <flow id="JF215838" begin="120" fromJunction="J4" toJunction="J3" end="180" vehsPerHour="48.008862092457164"/>
  <flow id="JF215839" begin="120" fromJunction="J7" toJunction="J0" end="180" vehsPerHour="39.90381403683945"/>
  <flow id="JF215840" begin="120" fromJunction="J7" toJunction="J3" end="180" vehsPerHour="31.323088178436134"/>
  <flow id="JF215841" begin="120" fromJunction="J5" toJunction="J0" end="180" vehsPerHour="29.586499539705013"/>
  <flow id="JF215842" begin="120" fromJunction="J5" toJunction="J3" end="180" vehsPerHour="30.860413670985064"/>
  <flow id="JF215843" begin="180" fromJunction="J0" toJunction="J3" end="240" vehsPerHour="290.4556009704053"/>
  <flow id="JF215844" begin="180" fromJunction="J3" toJunction="J0" end="240" vehsPerHour="536.9161175268459"/>
  <flow id="JF215845" begin="180" fromJunction="J0" toJunction="J6" end="240" vehsPerHour="117.18242626126649"/>
  <flow id="JF215846" begin="180" fromJunction="J0" toJunction="J4" end="240" vehsPerHour="103.91934000100967"/>
  <flow id="JF215847" begin="180" fromJunction="J0" toJunction="J7" end="240" vehsPerHour="93.70019974002543"/>
  <flow id="JF215848" begin="180" fromJunction="J0" toJunction="J5" end="240" vehsPerHour="38.083801477902945"/>
  <flow id="JF215849" begin="180" fromJunction="J3" toJunction="J6" end="240" vehsPerHour="73.71159225996188"/>
  <flow id="JF215850" begin="180" fromJunction="J3" toJunction="J4" end="240" vehsPerHour="120.64437976858704"/>
  <flow id="JF215851" begin="180" fromJunction="J3" toJunction="J7" end="240" vehsPerHour="130.5604501129778"/>
  <flow id="JF215852" begin="180" fromJunction="J3" toJunction="J5" end="240" vehsPerHour="65.00609478222444"/>
  <flow id="JF215853" begin="240" fromJunction="J0" toJunction="J3" end="300" vehsPerHour="368.415275072823"/>
  <flow id="JF215854" begin="240" fromJunction="J3" toJunction="J0" end="300" vehsPerHour="454.42285613653655"/>
  <flow id="JF215855" begin="240" fromJunction="J0" toJunction="J6" end="300" vehsPerHour="9.734610861735918"/>
  <flow id="JF215856" begin="240" fromJunction="J0" toJunction="J4" end="300" vehsPerHour="7.246651880106543"/>
  <flow id="JF215857" begin="240" fromJunction="J0" toJunction="J7" end="300" vehsPerHour="32.18488639839751"/>
  <flow id="JF215858" begin="240" fromJunction="J0" toJunction="J5" end="300" vehsPerHour="70.43909933380688"/>
  <flow id="JF215859" begin="240" fromJunction="J3" toJunction="J6" end="300" vehsPerHour="125.62511128309626"/>
  <flow id="JF215860" begin="240" fromJunction="J3" toJunction="J4" end="300" vehsPerHour="2.993552158618757"/>
  <flow id="JF215861" begin="240" fromJunction="J3" toJunction="J7" end="300" vehsPerHour="18.338070933759777"/>
  <flow id="JF215862" begin="240" fromJunction="J3" toJunction="J5" end="300" vehsPerHour="75.65541274882995"/>
  <flow id="JF215863" begin="300" fromJunction="J0" toJunction="J3" end="360" vehsPerHour="510.0483733039706"/>
  <flow id="JF215864" begin="300" fromJunction="J3" toJunction="J0" end="360" vehsPerHour="175.23342496589004"/>
  <flow id="JF215865" begin="300" fromJunction="J0" toJunction="J6" end="360" vehsPerHour="42.36464550850224"/>
  <flow id="JF215866" begin="300" fromJunction="J0" toJunction="J4" end="360" vehsPerHour="124.04608489866683"/>
  <flow id="JF215867" begin="300" fromJunction="J0" toJunction="J7" end="360" vehsPerHour="135.886873298746"/>
  <flow id="JF215868" begin="300" fromJunction="J0" toJunction="J5" end="360" vehsPerHour="82.33905133872774"/>
  <flow id="JF215869" begin="300" fromJunction="J3" toJunction="J6" end="360" vehsPerHour="120.78485619561692"/>
  <flow id="JF215870" begin="300" fromJunction="J3" toJunction="J4" end="360" vehsPerHour="84.30233865320095"/>
  <flow id="JF215871" begin="300" fromJunction="J3" toJunction="J7" end="360" vehsPerHour="119.48016585159361"/>
  <flow id="JF215872" begin="300" fromJunction="J3" toJunction="J5" end="360" vehsPerHour="95.16351082627611"/>
  <flow id="JF215873" begin="300" fromJunction="J6" toJunction="J4" end="360" vehsPerHour="42.47550678600027"/>
  <flow id="JF215874" begin="300" fromJunction="J6" toJunction="J7" end="360" vehsPerHour="31.629126183218194"/>
  <flow id="JF215875" begin="300" fromJunction="J6" toJunction="J5" end="360" vehsPerHour="16.771659420195604"/>
  <flow id="JF215876" begin="300" fromJunction="J4" toJunction="J6" end="360" vehsPerHour="37.79644071823555"/>
  <flow id="JF215877" begin="300" fromJunction="J4" toJunction="J7" end="360" vehsPerHour="19.250341303429572"/>
  <flow id="JF215878" begin="300" fromJunction="J4" toJunction="J5" end="360" vehsPerHour="58.238852360062545"/>
  <flow id="JF215879" begin="300" fromJunction="J7" toJunction="J6" end="360" vehsPerHour="42.47100160275547"/>
  <flow id="JF215880" begin="300" fromJunction="J7" toJunction="J4" end="360" vehsPerHour="65.71442214394264"/>
  <flow id="JF215881" begin="300" fromJunction="J7" toJunction="J5" end="360" vehsPerHour="24.914449179456707"/>
  <flow id="JF215882" begin="300" fromJunction="J5" toJunction="J6" end="360" vehsPerHour="62.75563687020568"/>
  <flow id="JF215883" begin="300" fromJunction="J5" toJunction="J4" end="360" vehsPerHour="21.23306966279201"/>
  <flow id="JF215884" begin="300" fromJunction="J5" toJunction="J7" end="360" vehsPerHour="37.316502336755946"/>
  <flow id="JF215885" begin="300" fromJunction="J6" toJunction="J0" end="360" vehsPerHour="0.05209075448648355"/>
  <flow id="JF215886" begin="300" fromJunction="J6" toJunction="J3" end="360" vehsPerHour="12.922442403832529"/>
  <flow id="JF215887" begin="300" fromJunction="J4" toJunction="J0" end="360" vehsPerHour="48.74551099035191"/>
  <flow id="JF215888" begin="300" fromJunction="J4" toJunction="J3" end="360" vehsPerHour="4.968616791233158"/>
  <flow id="JF215889" begin="300" fromJunction="J7" toJunction="J0" end="360" vehsPerHour="7.347926524423315"/>
  <flow id="JF215890" begin="300" fromJunction="J7" toJunction="J3" end="360" vehsPerHour="59.19836939766482"/>
  <flow id="JF215891" begin="300" fromJunction="J5" toJunction="J0" end="360" vehsPerHour="18.62657609253232"/>
  <flow id="JF215892" begin="300" fromJunction="J5" toJunction="J3" end="360" vehsPerHour="49.51273606574274"/>
  <flow id="JF215893" begin="360" fromJunction="J0" toJunction="J3" end="420" vehsPerHour="452.77255326896653"/>
  <flow id="JF215894" begin="360" fromJunction="J3" toJunction="J0" end="420" vehsPerHour="23.969851155456723"/>
  <flow id="JF215895" begin="360" fromJunction="J0" toJunction="J6" end="420" vehsPerHour="2.492471963732254"/>
  <flow id="JF215896" begin="360" fromJunction="J0" toJunction="J4" end="420" vehsPerHour="97.73025613628022"/>
  <flow id="JF215897" begin="360" fromJunction="J0" toJunction="J7" end="420" vehsPerHour="108.90435797836321"/>
  <flow id="JF215898" begin="360" fromJunction="J0" toJunction="J5" end="420" vehsPerHour="52.14627197786953"/>
  <flow id="JF215899" begin="360" fromJunction="J3" toJunction="J6" end="420" vehsPerHour="97.58042729853196"/>
  <flow id="JF215900" begin="360" fromJunction="J3" toJunction="J4" end="420" vehsPerHour="5.209550693270925"/>
  <flow id="JF215901" begin="360" fromJunction="J3" toJunction="J7" end="420" vehsPerHour="48.285594773572065"/>
  <flow id="JF215902" begin="360" fromJunction="J3" toJunction="J5" end="420" vehsPerHour="45.70536078499876"/>
  <flow id="JF215903" begin="360" fromJunction="J6" toJunction="J4" end="420" vehsPerHour="4.683411141600383"/>
  <flow id="JF215904" begin="360" fromJunction="J6" toJunction="J7" end="420" vehsPerHour="16.924648429979054"/>
  <flow id="JF215905" begin="360" fromJunction="J6" toJunction="J5" end="420" vehsPerHour="9.412933533249978"/>
  <flow id="JF215906" begin="360" fromJunction="J4" toJunction="J6" end="420" vehsPerHour="39.65846285708374"/>
  <flow id="JF215907" begin="360" fromJunction="J4" toJunction="J7" end="420" vehsPerHour="16.418780994402752"/>
  <flow id="JF215908" begin="360" fromJunction="J4" toJunction="J5" end="420" vehsPerHour="55.084255364364566"/>
  <flow id="JF215909" begin="360" fromJunction="J7" toJunction="J6" end="420" vehsPerHour="10.869098943048135"/>
  <flow id="JF215910" begin="360" fromJunction="J7" toJunction="J4" end="420" vehsPerHour="6.516369002843595"/>
  <flow id="JF215911" begin="360" fromJunction="J7" toJunction="J5" end="420" vehsPerHour="30.582938919436312"/>
  <flow id="JF215912" begin="360" fromJunction="J5" toJunction="J6" end="420" vehsPerHour="39.44333114515592"/>
  <flow id="JF215913" begin="360" fromJunction="J5" toJunction="J4" end="420" vehsPerHour="4.259677215469002"/>
  <flow id="JF215914" begin="360" fromJunction="J5" toJunction="J7" end="420" vehsPerHour="25.448282132431167"/>
  <flow id="JF215915" begin="360" fromJunction="J6" toJunction="J0" end="420" vehsPerHour="49.15754311601586"/>
  <flow id="JF215916" begin="360" fromJunction="J6" toJunction="J3" end="420" vehsPerHour="2.318773982116332"/>
  <flow id="JF215917" begin="360" fromJunction="J4" toJunction="J0" end="420" vehsPerHour="23.38363458049686"/>
  <flow id="JF215918" begin="360" fromJunction="J4" toJunction="J3" end="420" vehsPerHour="16.486854856410122"/>
  <flow id="JF215919" begin="360" fromJunction="J7" toJunction="J0" end="420" vehsPerHour="52.2358812228062"/>
  <flow id="JF215920" begin="360" fromJunction="J7" toJunction="J3" end="420" vehsPerHour="9.053383680201437"/>
  <flow id="JF215921" begin="360" fromJunction="J5" toJunction="J0" end="420" vehsPerHour="52.48616252130371"/>
  <flow id="JF215922" begin="360" fromJunction="J5" toJunction="J3" end="420" vehsPerHour="44.522197731819006"/>
  <flow id="JF215923" begin="420" fromJunction="J0" toJunction="J3" end="480" vehsPerHour="294.9851278636272"/>
  <flow id="JF215924" begin="420" fromJunction="J3" toJunction="J0" end="480" vehsPerHour="379.35101886679314"/>
  <flow id="JF215925" begin="420" fromJunction="J0" toJunction="J6" end="480" vehsPerHour="126.90143296246735"/>
  <flow id="JF215926" begin="420" fromJunction="J0" toJunction="J4" end="480" vehsPerHour="28.300486751730855"/>
  <flow id="JF215927" begin="420" fromJunction="J0" toJunction="J7" end="480" vehsPerHour="113.98733920547838"/>
  <flow id="JF215928" begin="420" fromJunction="J0" toJunction="J5" end="480" vehsPerHour="93.51707195404562"/>
  <flow id="JF215929" begin="420" fromJunction="J3" toJunction="J6" end="480" vehsPerHour="123.34954004588458"/>
  <flow id="JF215930" begin="420" fromJunction="J3" toJunction="J4" end="480" vehsPerHour="66.11530790131714"/>
  <flow id="JF215931" begin="420" fromJunction="J3" toJunction="J7" end="480" vehsPerHour="102.49687767205938"/>
  <flow id="JF215932" begin="420" fromJunction="J3" toJunction="J5" end="480" vehsPerHour="132.29142583184495"/>
  <flow id="JF215933" begin="420" fromJunction="J6" toJunction="J4" end="480" vehsPerHour="20.513925231375755"/>
  <flow id="JF215934" begin="420" fromJunction="J6" toJunction="J7" end="480" vehsPerHour="29.755456013374417"/>
  <flow id="JF215935" begin="420" fromJunction="J6" toJunction="J5" end="480" vehsPerHour="55.698384596255046"/>
  <flow id="JF215936" begin="420" fromJunction="J4" toJunction="J6" end="480" vehsPerHour="39.65793941834286"/>
  <flow id="JF215937" begin="420" fromJunction="J4" toJunction="J7" end="480" vehsPerHour="16.29020717162818"/>
  <flow id="JF215938" begin="420" fromJunction="J4" toJunction="J5" end="480" vehsPerHour="32.38561952093765"/>
  <flow id="JF215939" begin="420" fromJunction="J7" toJunction="J6" end="480" vehsPerHour="68.03293084544454"/>
  <flow id="JF215940" begin="420" fromJunction="J7" toJunction="J4" end="480" vehsPerHour="55.10695056164102"/>
  <flow id="JF215941" begin="420" fromJunction="J7" toJunction="J5" end="480" vehsPerHour="14.736465081254195"/>
  <flow id="JF215942" begin="420" fromJunction="J5" toJunction="J6" end="480" vehsPerHour="60.0967745830896"/>
  <flow id="JF215943" begin="420" fromJunction="J5" toJunction="J4" end="480" vehsPerHour="58.533715422240945"/>
  <flow id="JF215944" begin="420" fromJunction="J5" toJunction="J7" end="480" vehsPerHour="11.61331226002516"/>
  <flow id="JF215945" begin="420" fromJunction="J6" toJunction="J0" end="480" vehsPerHour="0.8504820684076883"/>
  <flow id="JF215946" begin="420" fromJunction="J6" toJunction="J3" end="480" vehsPerHour="31.01635363284957"/>
  <flow id="JF215947" begin="420" fromJunction="J4" toJunction="J0" end="480" vehsPerHour="4.688677235667724"/>
  <flow id="JF215948" begin="420" fromJunction="J4" toJunction="J3" end="480" vehsPerHour="16.695146786276464"/>
  <flow id="JF215949" begin="420" fromJunction="J7" toJunction="J0" end="480" vehsPerHour="6.472036005601726"/>
  <flow id="JF215950" begin="420" fromJunction="J7" toJunction="J3" end="480" vehsPerHour="59.820010558374"/>
  <flow id="JF215951" begin="420" fromJunction="J5" toJunction="J0" end="480" vehsPerHour="2.7455282044039775"/>
  <flow id="JF215952" begin="420" fromJunction="J5" toJunction="J3" end="480" vehsPerHour="37.182738820926176"/>
  <flow id="JF215953" begin="480" fromJunction="J0" toJunction="J3" end="540" vehsPerHour="420.78799257492693"/>
  <flow id="JF215954" begin="480" fromJunction="J3" toJunction="J0" end="540" vehsPerHour="153.42053272830654"/>
  <flow id="JF215955" begin="480" fromJunction="J0" toJunction="J6" end="540" vehsPerHour="132.21082483185288"/>
  <flow id="JF215956" begin="480" fromJunction="J0" toJunction="J4" end="540" vehsPerHour="68.55767636767843"/>
  <flow id="JF215957" begin="480" fromJunction="J0" toJunction="J7" end="540" vehsPerHour="67.74482917126798"/>
  <flow id="JF215958" begin="480" fromJunction="J0" toJunction="J5" end="540" vehsPerHour="64.01881576694663"/>
  <flow id="JF215959" begin="480" fromJunction="J3" toJunction="J6" end="540" vehsPerHour="111.68381859351557"/>
  <flow id="JF215960" begin="480" fromJunction="J3" toJunction="J4" end="540" vehsPerHour="40.59050452043084"/>
  <flow id="JF215961" begin="480" fromJunction="J3" toJunction="J7" end="540" vehsPerHour="114.26106139105914"/>
  <flow id="JF215962" begin="480" fromJunction="J3" toJunction="J5" end="540" vehsPerHour="37.29179320073822"/>
  <flow id="JF215963" begin="480" fromJunction="J6" toJunction="J4" end="540" vehsPerHour="45.14040399204819"/>
  <flow id="JF215964" begin="480" fromJunction="J6" toJunction="J7" end="540" vehsPerHour="33.862840586845074"/>
  <flow id="JF215965" begin="480" fromJunction="J6" toJunction="J5" end="540" vehsPerHour="2.9991328295840627"/>
  <flow id="JF215966" begin="480" fromJunction="J4" toJunction="J6" end="540" vehsPerHour="62.694502825810794"/>
  <flow id="JF215967" begin="480" fromJunction="J4" toJunction="J7" end="540" vehsPerHour="43.07469996956453"/>
  <flow id="JF215968" begin="480" fromJunction="J4" toJunction="J5" end="540" vehsPerHour="27.603126673854117"/>
  <flow id="JF215969" begin="480" fromJunction="J7" toJunction="J6" end="540" vehsPerHour="0.8759150234261508"/>
  <flow id="JF215970" begin="480" fromJunction="J7" toJunction="J4" end="540" vehsPerHour="66.13459743356552"/>
  <flow id="JF215971" begin="480" fromJunction="J7" toJunction="J5" end="540" vehsPerHour="46.53884907311485"/>
  <flow id="JF215972" begin="480" fromJunction="J5" toJunction="J6" end="540" vehsPerHour="42.34599719060567"/>
  <flow id="JF215973" begin="480" fromJunction="J5" toJunction="J4" end="540" vehsPerHour="11.552958471486406"/>
  <flow id="JF215974" begin="480" fromJunction="J5" toJunction="J7" end="540" vehsPerHour="22.81072439782918"/>
  <flow id="JF215975" begin="480" fromJunction="J6" toJunction="J0" end="540" vehsPerHour="40.46673564812407"/>
  <flow id="JF215976" begin="480" fromJunction="J6" toJunction="J3" end="540" vehsPerHour="17.095499354751624"/>
  <flow id="JF215977" begin="480" fromJunction="J4" toJunction="J0" end="540" vehsPerHour="32.02108701204242"/>
  <flow id="JF215978" begin="480" fromJunction="J4" toJunction="J3" end="540" vehsPerHour="42.33194327786013"/>
  <flow id="JF215979" begin="480" fromJunction="J7" toJunction="J0" end="540" vehsPerHour="46.37727809270178"/>
  <flow id="JF215980" begin="480" fromJunction="J7" toJunction="J3" end="540" vehsPerHour="57.90746546687704"/>
  <flow id="JF215981" begin="480" fromJunction="J5" toJunction="J0" end="540" vehsPerHour="51.242528848244106"/>
  <flow id="JF215982" begin="480" fromJunction="J5" toJunction="J3" end="540" vehsPerHour="29.7652878152511"/>
  <flow id="JF215983" begin="540" fromJunction="J0" toJunction="J3" end="600" vehsPerHour="207.94065055895277"/>
  <flow id="JF215984" begin="540" fromJunction="J3" toJunction="J0" end="600" vehsPerHour="79.48636448518297"/>
  <flow id="JF215985" begin="540" fromJunction="J0" toJunction="J6" end="600" vehsPerHour="50.91630380389817"/>
  <flow id="JF215986" begin="540" fromJunction="J0" toJunction="J4" end="600" vehsPerHour="95.33533856905936"/>
  <flow id="JF215987" begin="540" fromJunction="J0" toJunction="J7" end="600" vehsPerHour="18.202145316612782"/>
  <flow id="JF215988" begin="540" fromJunction="J0" toJunction="J5" end="600" vehsPerHour="8.047011073130934"/>
  <flow id="JF215989" begin="540" fromJunction="J3" toJunction="J6" end="600" vehsPerHour="88.65108114476827"/>
  <flow id="JF215990" begin="540" fromJunction="J3" toJunction="J4" end="600" vehsPerHour="14.31384475860479"/>
  <flow id="JF215991" begin="540" fromJunction="J3" toJunction="J7" end="600" vehsPerHour="51.56425568031593"/>
  <flow id="JF215992" begin="540" fromJunction="J3" toJunction="J5" end="600" vehsPerHour="45.30522185012359"/>
  <flow id="JF215993" begin="540" fromJunction="J6" toJunction="J4" end="600" vehsPerHour="25.63490951302736"/>
  <flow id="JF215994" begin="540" fromJunction="J6" toJunction="J7" end="600" vehsPerHour="50.9633443650718"/>
  <flow id="JF215995" begin="540" fromJunction="J6" toJunction="J5" end="600" vehsPerHour="29.150928121464087"/>
  <flow id="JF215996" begin="540" fromJunction="J4" toJunction="J6" end="600" vehsPerHour="41.844840940649995"/>
  <flow id="JF215997" begin="540" fromJunction="J4" toJunction="J7" end="600" vehsPerHour="43.100536041836456"/>
  <flow id="JF215998" begin="540" fromJunction="J4" toJunction="J5" end="600" vehsPerHour="30.348034419828917"/>
  <flow id="JF215999" begin="540" fromJunction="J7" toJunction="J6" end="600" vehsPerHour="39.90563462307083"/>
  <flow id="JF216000" begin="540" fromJunction="J7" toJunction="J4" end="600" vehsPerHour="30.489585885786106"/>
  <flow id="JF216001" begin="540" fromJunction="J7" toJunction="J5" end="600" vehsPerHour="42.99179502012078"/>
  <flow id="JF216002" begin="540" fromJunction="J5" toJunction="J6" end="600" vehsPerHour="23.507189433233467"/>
  <flow id="JF216003" begin="540" fromJunction="J5" toJunction="J4" end="600" vehsPerHour="49.25563545389216"/>
  <flow id="JF216004" begin="540" fromJunction="J5" toJunction="J7" end="600" vehsPerHour="6.834729869971536"/>
  <flow id="JF216005" begin="540" fromJunction="J6" toJunction="J0" end="600" vehsPerHour="65.08768830786022"/>
  <flow id="JF216006" begin="540" fromJunction="J6" toJunction="J3" end="600" vehsPerHour="13.205967567776558"/>
  <flow id="JF216007" begin="540" fromJunction="J4" toJunction="J0" end="600" vehsPerHour="11.903858066291933"/>
  <flow id="JF216008" begin="540" fromJunction="J4" toJunction="J3" end="600" vehsPerHour="28.773239569822938"/>
  <flow id="JF216009" begin="540" fromJunction="J7" toJunction="J0" end="600" vehsPerHour="20.110803049268878"/>
  <flow id="JF216010" begin="540" fromJunction="J7" toJunction="J3" end="600" vehsPerHour="33.244435550265784"/>
  <flow id="JF216011" begin="540" fromJunction="J5" toJunction="J0" end="600" vehsPerHour="52.46201893185186"/>
  <flow id="JF216012" begin="540" fromJunction="J5" toJunction="J3" end="600" vehsPerHour="50.11002495398625"/>
  <flow id="JF216013" begin="600" fromJunction="J0" toJunction="J3" end="660" vehsPerHour="390.45700041239354"/>
  <flow id="JF216014" begin="600" fromJunction="J3" toJunction="J0" end="660" vehsPerHour="90.1371595947193"/>
  <flow id="JF216015" begin="600" fromJunction="J0" toJunction="J6" end="660" vehsPerHour="96.0379614569625"/>
  <flow id="JF216016" begin="600" fromJunction="J0" toJunction="J4" end="660" vehsPerHour="58.16938269684288"/>
  <flow id="JF216017" begin="600" fromJunction="J0" toJunction="J7" end="660" vehsPerHour="109.08136831860905"/>
  <flow id="JF216018" begin="600" fromJunction="J0" toJunction="J5" end="660" vehsPerHour="81.39580895160051"/>