<?xml version="1.0" encoding="UTF-8"?>

<!-- generated on 2025-05-15 15:23:26 by Eclipse SUMO netedit Version 1.20.0
<configuration xmlns:xsi="http://www.w3.org/2001/XMLSchema-instance" xsi:noNamespaceSchemaLocation="http://sumo.dlr.de/xsd/neteditConfiguration.xsd">

    <input>
        <sumocfg-file value="/home/refo/Documents/Github/sumo-rl2/scenarios/celoria/simulation.sumocfg"/>
        <additional-files value=""/>
        <route-files value="/home/refo/Documents/Github/sumo-rl2/scenarios/celoria/routes.rou.xml"/>
        <sumo-net-file value="/home/refo/Documents/Github/sumo-rl2/scenarios/celoria/network.net.xml"/>
    </input>

    <output>
        <output-file value="/home/refo/Documents/Github/sumo-rl2/scenarios/celoria/network.net.xml"/>
    </output>

    <processing>
        <geometry.min-radius.fix.railways value="false"/>
        <geometry.max-grade.fix value="false"/>
        <offset.disable-normalization value="true"/>
        <lefthand value="0"/>
    </processing>

    <junctions>
        <no-turnarounds value="true"/>
        <junctions.corner-detail value="5"/>
        <junctions.limit-turn-speed value="5.50"/>
        <rectangular-lane-cut value="0"/>
    </junctions>

    <pedestrian>
        <walkingareas value="0"/>
    </pedestrian>

</configuration>
-->

<net version="1.20" junctionCornerDetail="5" limitTurnSpeed="5.50" xmlns:xsi="http://www.w3.org/2001/XMLSchema-instance" xsi:noNamespaceSchemaLocation="http://sumo.dlr.de/xsd/net_file.xsd">

    <location netOffset="0.00,0.00" convBoundary="-1.39,-185.23,852.66,404.94" origBoundary="-10000000000.00,-10000000000.00,10000000000.00,10000000000.00" projParameter="!"/>

    <edge id=":J1_0" function="internal">
        <lane id=":J1_0_0" index="0" speed="6.52" length="9.03" shape="89.84,53.57 87.63,52.47 85.59,52.35 83.73,53.19 82.05,55.01"/>
    </edge>
    <edge id=":J1_1" function="internal">
        <lane id=":J1_1_0" index="0" speed="13.89" length="14.95" shape="89.84,53.57 77.65,44.81"/>
        <lane id=":J1_1_1" index="1" speed="13.89" length="14.95" shape="91.65,50.93 79.57,42.25"/>
    </edge>
    <edge id=":J1_3" function="internal">
        <lane id=":J1_3_0" index="0" speed="8.81" length="3.81" shape="91.65,50.93 88.99,48.20"/>
    </edge>
    <edge id=":J1_14" function="internal">
        <lane id=":J1_14_0" index="0" speed="8.81" length="13.27" shape="88.99,48.20 88.92,48.13 87.91,44.67 88.63,40.54 91.08,35.76"/>
    </edge>
    <edge id=":J1_4" function="internal">
        <lane id=":J1_4_0" index="0" speed="6.69" length="9.40" shape="93.77,37.50 92.66,39.86 92.55,42.00 93.42,43.93 95.28,45.65"/>
    </edge>
    <edge id=":J1_5" function="internal">
        <lane id=":J1_5_0" index="0" speed="13.89" length="21.07" shape="93.77,37.50 82.05,55.01"/>
    </edge>
    <edge id=":J1_6" function="internal">
        <lane id=":J1_6_0" index="0" speed="8.56" length="5.76" shape="93.77,37.50 90.36,41.68 90.05,41.88"/>
    </edge>
    <edge id=":J1_15" function="internal">
        <lane id=":J1_15_0" index="0" speed="8.56" length="11.47" shape="90.05,41.88 86.86,43.87 83.26,44.06 79.57,42.25"/>
    </edge>
    <edge id=":J1_7" function="internal">
        <lane id=":J1_7_0" index="0" speed="6.36" length="9.04" shape="83.40,37.13 85.60,38.33 87.61,38.50 89.44,37.64 91.08,35.76"/>
    </edge>
    <edge id=":J1_8" function="internal">
        <lane id=":J1_8_0" index="0" speed="13.89" length="14.68" shape="83.40,37.13 95.28,45.65"/>
        <lane id=":J1_8_1" index="1" speed="13.89" length="14.68" shape="81.48,39.69 93.46,48.29"/>
    </edge>
    <edge id=":J1_10" function="internal">
        <lane id=":J1_10_0" index="0" speed="8.89" length="3.57" shape="81.48,39.69 83.91,42.31"/>
    </edge>
    <edge id=":J1_16" function="internal">
        <lane id=":J1_16_0" index="0" speed="8.89" length="13.68" shape="83.91,42.31 84.28,42.71 85.30,46.27 84.56,50.37 82.05,55.01"/>
    </edge>
    <edge id=":J1_11" function="internal">
        <lane id=":J1_11_0" index="0" speed="6.80" length="9.67" shape="79.41,53.18 80.51,50.92 80.58,48.77 79.62,46.73 77.65,44.81"/>
    </edge>
    <edge id=":J1_12" function="internal">
        <lane id=":J1_12_0" index="0" speed="13.89" length="20.97" shape="79.41,53.18 91.08,35.76"/>
    </edge>
    <edge id=":J1_13" function="internal">
        <lane id=":J1_13_0" index="0" speed="8.68" length="5.27" shape="79.41,53.18 82.85,49.18"/>
    </edge>
    <edge id=":J1_17" function="internal">
        <lane id=":J1_17_0" index="0" speed="8.68" length="11.56" shape="82.85,49.18 86.34,47.03 89.87,46.74 93.46,48.29"/>
    </edge>
    <edge id=":J10_0" function="internal">
        <lane id=":J10_0_0" index="0" speed="12.15" length="17.41" shape="506.30,144.74 501.48,148.05 497.97,151.24 495.76,154.29 494.86,157.21"/>
    </edge>
    <edge id=":J10_1" function="internal">
        <lane id=":J10_1_0" index="0" speed="13.89" length="20.69" shape="506.30,144.74 500.96,148.01 496.77,150.03 492.30,150.96 486.14,150.98"/>
        <lane id=":J10_1_1" index="1" speed="13.89" length="20.69" shape="504.62,142.02 499.66,145.12 495.99,146.98 492.06,147.80 486.30,147.78"/>
    </edge>
    <edge id=":J10_3" function="internal">
        <lane id=":J10_3_0" index="0" speed="8.14" length="4.47" shape="504.62,142.02 500.51,143.76"/>
    </edge>
    <edge id=":J10_14" function="internal">
        <lane id=":J10_14_0" index="0" speed="8.14" length="16.05" shape="500.51,143.76 499.36,144.25 495.51,143.58 493.07,140.00 492.05,133.52"/>
    </edge>
    <edge id=":J10_4" function="internal">
        <lane id=":J10_4_0" index="0" speed="5.68" length="9.23" shape="495.24,133.39 495.72,136.11 496.88,137.55 498.72,137.70 501.25,136.57"/>
    </edge>
    <edge id=":J10_5" function="internal">
        <lane id=":J10_5_0" index="0" speed="13.89" length="23.83" shape="495.24,133.39 495.33,138.51 495.29,145.30 495.13,152.09 494.86,157.21"/>
    </edge>
    <edge id=":J10_6" function="internal">
        <lane id=":J10_6_0" index="0" speed="8.98" length="7.26" shape="495.24,133.39 494.91,139.87 494.66,140.59"/>
    </edge>
    <edge id=":J10_15" function="internal">
        <lane id=":J10_15_0" index="0" speed="8.98" length="12.17" shape="494.66,140.59 493.31,144.43 490.44,147.07 486.30,147.78"/>
    </edge>
    <edge id=":J10_7" function="internal">
        <lane id=":J10_7_0" index="0" speed="6.90" length="11.02" shape="486.63,141.39 489.13,141.01 490.86,139.57 491.83,137.07 492.05,133.52"/>
    </edge>
    <edge id=":J10_8" function="internal">
        <lane id=":J10_8_0" index="0" speed="13.89" length="16.80" shape="486.63,141.39 491.24,141.38 494.37,140.65 497.28,139.09 501.25,136.57"/>
        <lane id=":J10_8_1" index="1" speed="13.89" length="16.80" shape="486.47,144.59 491.65,144.59 495.18,143.82 498.47,142.10 502.93,139.29"/>
    </edge>
    <edge id=":J10_10" function="internal">
        <lane id=":J10_10_0" index="0" speed="8.68" length="3.14" shape="486.47,144.59 489.52,145.32"/>
    </edge>
    <edge id=":J10_16" function="internal">
        <lane id=":J10_16_0" index="0" speed="8.68" length="14.19" shape="489.52,145.32 490.54,145.56 493.29,147.99 494.73,151.87 494.86,157.21"/>
    </edge>
    <edge id=":J10_11" function="internal">
        <lane id=":J10_11_0" index="0" speed="6.53" length="9.34" shape="491.67,156.93 491.51,154.44 490.53,152.62 488.74,151.47 486.14,150.98"/>
    </edge>
    <edge id=":J10_12" function="internal">
        <lane id=":J10_12_0" index="0" speed="13.89" length="23.42" shape="491.67,156.93 491.94,151.87 492.10,145.23 492.13,138.58 492.05,133.52"/>
    </edge>
    <edge id=":J10_13" function="internal">
        <lane id=":J10_13_0" index="0" speed="13.54" length="4.88" shape="491.67,156.93 492.64,152.14"/>
    </edge>
    <edge id=":J10_17" function="internal">
        <lane id=":J10_17_0" index="0" speed="13.54" length="16.84" shape="492.64,152.14 492.74,151.60 494.98,146.88 498.37,142.78 502.93,139.29"/>
    </edge>
    <edge id=":J11_0" function="internal">
        <lane id=":J11_0_0" index="0" speed="6.76" length="9.32" shape="643.20,66.91 641.42,65.01 639.47,64.07 637.37,64.09 635.12,65.05"/>
    </edge>
    <edge id=":J11_1" function="internal">
        <lane id=":J11_1_0" index="0" speed="13.89" length="24.09" shape="643.20,66.91 640.92,62.31 638.75,55.78 637.10,49.08 636.39,43.95"/>
    </edge>
    <edge id=":J11_2" function="internal">
        <lane id=":J11_2_0" index="0" speed="9.35" length="7.29" shape="643.20,66.91 640.78,62.11 640.72,60.20"/>
    </edge>
    <edge id=":J11_14" function="internal">
        <lane id=":J11_14_0" index="0" speed="9.35" length="13.12" shape="640.72,60.20 640.65,57.63 642.81,53.48 647.27,49.66"/>
    </edge>
    <edge id=":J11_3" function="internal">
        <lane id=":J11_3_0" index="0" speed="7.46" length="12.60" shape="650.77,55.01 647.35,57.67 645.39,60.23 644.87,62.69 645.80,65.04"/>
    </edge>
    <edge id=":J11_4" function="internal">
        <lane id=":J11_4_0" index="0" speed="13.89" length="18.56" shape="650.77,55.01 635.12,65.05"/>
        <lane id=":J11_4_1" index="1" speed="13.89" length="18.56" shape="649.02,52.33 633.43,62.33"/>
    </edge>
    <edge id=":J11_6" function="internal">
        <lane id=":J11_6_0" index="0" speed="8.14" length="5.14" shape="649.02,52.33 644.36,54.48"/>
    </edge>
    <edge id=":J11_15" function="internal">
        <lane id=":J11_15_0" index="0" speed="8.14" length="15.79" shape="644.36,54.48 643.66,54.80 639.76,54.23 637.34,50.61 636.39,43.95"/>
    </edge>
    <edge id=":J11_7" function="internal">
        <lane id=":J11_7_0" index="0" speed="5.64" length="9.27" shape="639.59,43.87 640.03,46.64 641.16,48.08 642.99,48.19 645.52,46.98"/>
    </edge>
    <edge id=":J11_8" function="internal">
        <lane id=":J11_8_0" index="0" speed="13.89" length="22.21" shape="639.59,43.87 640.21,48.72 641.65,54.81 643.61,60.72 645.80,65.04"/>
    </edge>
    <edge id=":J11_9" function="internal">
        <lane id=":J11_9_0" index="0" speed="12.13" length="3.99" shape="639.59,43.87 639.44,47.86"/>
    </edge>
    <edge id=":J11_16" function="internal">
        <lane id=":J11_16_0" index="0" speed="12.13" length="16.27" shape="639.44,47.86 639.35,50.43 638.24,55.70 636.27,59.66 633.43,62.33"/>
    </edge>
    <edge id=":J11_10" function="internal">
        <lane id=":J11_10_0" index="0" speed="10.53" length="15.10" shape="630.06,56.88 632.92,54.55 634.93,51.62 636.08,48.09 636.39,43.95"/>
    </edge>
    <edge id=":J11_11" function="internal">
        <lane id=":J11_11_0" index="0" speed="13.89" length="18.40" shape="630.06,56.88 645.52,46.98"/>
        <lane id=":J11_11_1" index="1" speed="13.89" length="18.40" shape="631.75,59.60 647.27,49.66"/>
    </edge>
    <edge id=":J11_13" function="internal">
        <lane id=":J11_13_0" index="0" speed="8.88" length="3.36" shape="631.75,59.60 634.90,58.45"/>
    </edge>
    <edge id=":J11_17" function="internal">
        <lane id=":J11_17_0" index="0" speed="8.88" length="13.42" shape="634.90,58.45 635.26,58.32 638.77,58.79 642.28,61.03 645.80,65.04"/>
    </edge>
    <edge id=":J4_0" function="internal">
        <lane id=":J4_0_0" index="0" speed="7.08" length="10.18" shape="154.86,97.19 152.10,96.09 149.69,95.98 147.61,96.85 145.88,98.72"/>
    </edge>
    <edge id=":J4_1" function="internal">
        <lane id=":J4_1_0" index="0" speed="13.89" length="15.39" shape="154.86,97.19 150.81,94.97 148.07,93.39 145.41,91.68 141.59,89.08"/>
        <lane id=":J4_1_1" index="1" speed="13.89" length="15.39" shape="156.39,94.38 152.43,92.21 149.74,90.66 147.14,88.99 143.40,86.45"/>
    </edge>
    <edge id=":J4_3" function="internal">
        <lane id=":J4_3_0" index="0" speed="8.51" length="3.90" shape="156.39,94.38 153.37,91.91"/>
    </edge>
    <edge id=":J4_14" function="internal">
        <lane id=":J4_14_0" index="0" speed="8.51" length="13.52" shape="153.37,91.91 153.14,91.72 151.82,88.34 152.44,84.24 155.00,79.43"/>
    </edge>
    <edge id=":J4_4" function="internal">
        <lane id=":J4_4_0" index="0" speed="6.30" length="9.04" shape="157.64,81.23 156.54,83.49 156.47,85.50 157.44,87.25 159.46,88.76"/>
    </edge>
    <edge id=":J4_5" function="internal">
        <lane id=":J4_5_0" index="0" speed="13.89" length="21.08" shape="157.64,81.23 145.88,98.72"/>
    </edge>
    <edge id=":J4_6" function="internal">
        <lane id=":J4_6_0" index="0" speed="8.74" length="5.64" shape="157.64,81.23 154.14,85.39 153.97,85.50"/>
    </edge>
    <edge id=":J4_15" function="internal">
        <lane id=":J4_15_0" index="0" speed="8.74" length="11.52" shape="153.97,85.50 150.60,87.64 147.02,87.99 143.40,86.45"/>
    </edge>
    <edge id=":J4_7" function="internal">
        <lane id=":J4_7_0" index="0" speed="6.59" length="9.31" shape="147.03,81.17 149.26,82.25 151.33,82.32 153.24,81.38 155.00,79.43"/>
    </edge>
    <edge id=":J4_8" function="internal">
        <lane id=":J4_8_0" index="0" speed="13.89" length="14.74" shape="147.03,81.17 150.60,83.60 153.10,85.20 155.66,86.68 159.46,88.76"/>
        <lane id=":J4_8_1" index="1" speed="13.89" length="14.74" shape="145.22,83.81 148.87,86.29 151.42,87.93 154.04,89.44 157.92,91.57"/>
    </edge>
    <edge id=":J4_10" function="internal">
        <lane id=":J4_10_0" index="0" speed="8.72" length="3.71" shape="145.22,83.81 147.82,86.45"/>
    </edge>
    <edge id=":J4_16" function="internal">
        <lane id=":J4_16_0" index="0" speed="8.72" length="13.15" shape="147.82,86.45 147.98,86.60 149.01,90.02 148.31,94.06 145.88,98.72"/>
    </edge>
    <edge id=":J4_11" function="internal">
        <lane id=":J4_11_0" index="0" speed="6.57" length="9.13" shape="143.21,96.95 144.26,94.72 144.34,92.66 143.45,90.78 141.59,89.08"/>
    </edge>
    <edge id=":J4_12" function="internal">
        <lane id=":J4_12_0" index="0" speed="13.89" length="21.12" shape="143.21,96.95 155.00,79.43"/>
    </edge>
    <edge id=":J4_13" function="internal">
        <lane id=":J4_13_0" index="0" speed="9.11" length="5.55" shape="143.21,96.95 146.58,92.92 146.83,92.77"/>
    </edge>
    <edge id=":J4_17" function="internal">
        <lane id=":J4_17_0" index="0" speed="9.11" length="11.94" shape="146.83,92.77 150.15,90.68 153.93,90.23 157.92,91.57"/>
    </edge>
    <edge id=":J5_0" function="internal">
        <lane id=":J5_0_0" index="0" speed="12.08" length="18.08" shape="241.91,138.34 235.91,138.35 231.08,139.07 227.42,140.49 224.92,142.62"/>
    </edge>
    <edge id=":J5_1" function="internal">
        <lane id=":J5_1_0" index="0" speed="13.89" length="21.29" shape="241.91,138.34 235.63,137.99 230.91,137.37 226.42,135.95 220.82,133.19"/>
        <lane id=":J5_1_1" index="1" speed="13.89" length="21.29" shape="242.07,135.15 236.01,134.86 231.76,134.37 227.74,133.08 222.36,130.39"/>
    </edge>
    <edge id=":J5_3" function="internal">
        <lane id=":J5_3_0" index="0" speed="8.13" length="4.63" shape="242.07,135.15 237.54,134.23"/>
    </edge>
    <edge id=":J5_14" function="internal">
        <lane id=":J5_14_0" index="0" speed="8.13" length="16.37" shape="237.54,134.23 236.25,133.97 233.44,131.21 233.64,126.86 236.86,120.92"/>
    </edge>
    <edge id=":J5_4" function="internal">
        <lane id=":J5_4_0" index="0" speed="5.63" length="9.28" shape="239.48,122.76 238.18,125.25 238.23,127.08 239.64,128.25 242.40,128.76"/>
    </edge>
    <edge id=":J5_5" function="internal">
        <lane id=":J5_5_0" index="0" speed="13.89" length="24.62" shape="239.48,122.76 224.92,142.62"/>
    </edge>
    <edge id=":J5_6" function="internal">
        <lane id=":J5_6_0" index="0" speed="9.97" length="7.28" shape="239.48,122.76 235.18,127.84 234.66,128.20"/>
    </edge>
    <edge id=":J5_15" function="internal">
        <lane id=":J5_15_0" index="0" speed="9.97" length="13.38" shape="234.66,128.20 230.89,130.80 226.62,131.65 222.36,130.39"/>
    </edge>
    <edge id=":J5_7" function="internal">
        <lane id=":J5_7_0" index="0" speed="8.12" length="13.41" shape="225.42,124.77 228.51,125.82 231.44,125.53 234.22,123.90 236.86,120.92"/>
    </edge>
    <edge id=":J5_8" function="internal">
        <lane id=":J5_8_0" index="0" speed="13.89" length="18.43" shape="225.42,124.77 230.08,127.09 233.52,128.16 237.15,128.53 242.40,128.76"/>
        <lane id=":J5_8_1" index="1" speed="13.89" length="18.43" shape="223.89,127.58 228.93,130.10 232.64,131.28 236.56,131.70 242.24,131.95"/>
    </edge>
    <edge id=":J5_10" function="internal">
        <lane id=":J5_10_0" index="0" speed="8.43" length="3.33" shape="223.89,127.58 226.48,129.68"/>
    </edge>
    <edge id=":J5_16" function="internal">
        <lane id=":J5_16_0" index="0" speed="8.43" length="14.45" shape="226.48,129.68 227.29,130.34 228.60,133.76 227.81,137.86 224.92,142.62"/>
    </edge>
    <edge id=":J5_11" function="internal">
        <lane id=":J5_11_0" index="0" speed="6.19" length="9.05" shape="222.39,140.66 223.64,138.45 223.79,136.47 222.86,134.72 220.82,133.19"/>
    </edge>
    <edge id=":J5_12" function="internal">
        <lane id=":J5_12_0" index="0" speed="13.89" length="24.47" shape="222.39,140.66 236.86,120.92"/>
    </edge>
    <edge id=":J5_13" function="internal">
        <lane id=":J5_13_0" index="0" speed="13.45" length="5.07" shape="222.39,140.66 225.93,137.03"/>
    </edge>
    <edge id=":J5_17" function="internal">
        <lane id=":J5_17_0" index="0" speed="13.45" length="17.50" shape="225.93,137.03 226.34,136.60 230.97,133.80 236.27,132.25 242.24,131.95"/>
    </edge>

    <edge id="-E0" from="J1" to="J0" priority="-1" spreadType="center" shape="85.29,44.70 146.96,-50.38">
        <lane id="-E0_0" index="0" speed="13.89" length="102.68" shape="91.08,35.76 146.96,-50.38"/>
    </edge>
    <edge id="-E1" from="J1" to="J2" priority="-1" spreadType="center" shape="84.72,48.11 -1.39,-16.41">
        <lane id="-E1_0" index="0" speed="13.89" length="99.96" shape="77.65,44.81 -2.35,-15.13"/>
        <lane id="-E1_1" index="1" speed="13.89" length="99.96" shape="79.57,42.25 -0.43,-17.69"/>
    </edge>
    <edge id="-E10" from="J9" to="J5" priority="-1" spreadType="center" shape="299.80,36.77 231.69,133.86">
        <lane id="-E10_0" index="0" speed="13.89" length="105.04" shape="299.80,36.77 239.48,122.76"/>
    </edge>
    <edge id="-E11" from="J11" to="J10" priority="-1" spreadType="center" shape="640.05,60.12 495.86,149.31">
        <lane id="-E11_0" index="0" speed="13.89" length="151.47" shape="635.12,65.05 506.30,144.74"/>
        <lane id="-E11_1" index="1" speed="13.89" length="151.47" shape="633.43,62.33 504.62,142.02"/>
    </edge>
    <edge id="-E12" from="J12" to="J10" priority="-1" spreadType="center" shape="470.08,404.66 492.59,146.45">
        <lane id="-E12_0" index="0" speed="13.89" length="248.67" shape="470.08,404.66 491.67,156.93"/>
    </edge>
    <edge id="-E13" from="J13" to="J10" priority="-1" spreadType="center" shape="485.70,-100.67 495.78,146.52">
        <lane id="-E13_0" index="0" speed="13.89" length="234.25" shape="485.70,-100.67 495.24,133.39"/>
    </edge>
    <edge id="-E14" from="J14" to="J11" priority="-1" spreadType="center" shape="633.72,-185.23 639.94,57.37">
        <lane id="-E14_0" index="0" speed="13.89" length="229.18" shape="633.72,-185.23 639.59,43.87"/>
    </edge>
    <edge id="-E15" from="J15" to="J11" priority="-1" spreadType="center" shape="769.37,242.33 637.04,58.34">
        <lane id="-E15_0" index="0" speed="13.89" length="216.08" shape="769.37,242.33 643.20,66.91"/>
    </edge>
    <edge id="-E16" from="J16" to="J11" priority="-1" spreadType="center" shape="852.66,-78.97 640.09,60.09">
        <lane id="-E16_0" index="0" speed="13.89" length="242.29" shape="853.53,-77.64 650.77,55.01"/>
        <lane id="-E16_1" index="1" speed="13.89" length="242.29" shape="851.78,-80.31 649.02,52.33"/>
    </edge>
    <edge id="-E2" from="J3" to="J1" priority="-1" spreadType="center" shape="24.44,132.63 85.33,44.64">
        <lane id="-E2_0" index="0" speed="13.89" length="96.61" shape="24.44,132.63 79.41,53.18"/>
    </edge>
    <edge id="-E3" from="J4" to="J1" priority="-1" spreadType="center" shape="148.51,91.89 84.83,48.19">
        <lane id="-E3_0" index="0" speed="13.89" length="62.76" shape="141.59,89.08 89.84,53.57"/>
        <lane id="-E3_1" index="1" speed="13.89" length="62.76" shape="143.40,86.45 91.65,50.93"/>
    </edge>
    <edge id="-E4" from="J5" to="J4" priority="-1" spreadType="center" shape="228.90,135.78 148.73,92.02">
        <lane id="-E4_0" index="0" speed="13.89" length="75.16" shape="220.82,133.19 154.86,97.19"/>
        <lane id="-E4_1" index="1" speed="13.89" length="75.16" shape="222.36,130.39 156.39,94.38"/>
    </edge>
    <edge id="-E5" from="J4" to="J6" priority="-1" spreadType="center" shape="151.60,90.09 105.18,160.12">
        <lane id="-E5_0" index="0" speed="13.89" length="73.66" shape="145.88,98.72 105.18,160.12"/>
    </edge>
    <edge id="-E6" from="J5" to="J7" priority="-1" spreadType="center" shape="231.64,133.92 191.58,185.78">
        <lane id="-E6_0" index="0" speed="13.89" length="54.54" shape="224.92,142.62 191.58,185.78"/>
    </edge>
    <edge id="-E7" from="J8" to="J4" priority="-1" spreadType="center" shape="218.42,-7.90 151.59,90.11">
        <lane id="-E7_0" index="0" speed="13.89" length="107.88" shape="218.42,-7.90 157.64,81.23"/>
    </edge>
    <edge id="-E9" from="J10" to="J5" priority="-1" spreadType="center" shape="494.01,149.79 230.18,136.13">
        <lane id="-E9_0" index="0" speed="13.89" length="244.56" shape="486.14,150.98 241.91,138.34"/>
        <lane id="-E9_1" index="1" speed="13.89" length="244.56" shape="486.30,147.78 242.07,135.15"/>
    </edge>
    <edge id="E0" from="J0" to="J1" priority="-1" spreadType="center" length="312.00" shape="149.64,-48.64 87.97,46.44">
        <lane id="E0_0" index="0" speed="13.89" length="312.00" shape="149.64,-48.64 93.77,37.50"/>
    </edge>
    <edge id="E1" from="J2" to="J1" priority="-1" spreadType="center" length="208.00" shape="2.45,-21.53 88.56,42.99">
        <lane id="E1_0" index="0" speed="13.89" length="208.00" shape="3.41,-22.81 83.40,37.13"/>
        <lane id="E1_1" index="1" speed="13.89" length="208.00" shape="1.49,-20.25 81.48,39.69"/>
    </edge>
    <edge id="E10" from="J5" to="J9" priority="-1" spreadType="center" shape="229.07,132.02 297.18,34.93">
        <lane id="E10_0" index="0" speed="13.89" length="105.04" shape="236.86,120.92 297.18,34.93"/>
    </edge>
    <edge id="E11" from="J10" to="J11" priority="-1" spreadType="center" shape="492.50,143.87 636.68,54.67">
        <lane id="E11_0" index="0" speed="13.89" length="151.47" shape="501.25,136.57 630.06,56.88"/>
        <lane id="E11_1" index="1" speed="13.89" length="151.47" shape="502.93,139.29 631.75,59.60"/>
    </edge>
    <edge id="E12" from="J10" to="J12" priority="-1" spreadType="center" shape="495.77,146.73 473.26,404.94">
        <lane id="E12_0" index="0" speed="13.89" length="248.67" shape="494.86,157.21 473.26,404.94"/>
    </edge>
    <edge id="E13" from="J10" to="J13" priority="-1" spreadType="center" shape="492.58,146.66 482.50,-100.54">
        <lane id="E13_0" index="0" speed="13.89" length="234.25" shape="492.05,133.52 482.50,-100.54"/>
    </edge>
    <edge id="E14" from="J11" to="J14" priority="-1" spreadType="center" shape="636.74,57.45 630.52,-185.15">
        <lane id="E14_0" index="0" speed="13.89" length="229.18" shape="636.39,43.95 630.52,-185.15"/>
    </edge>
    <edge id="E15" from="J11" to="J15" priority="-1" spreadType="center" shape="639.64,56.48 771.97,240.46">
        <lane id="E15_0" index="0" speed="13.89" length="216.08" shape="645.80,65.04 771.97,240.46"/>
    </edge>
    <edge id="E16" from="J11" to="J16" priority="-1" spreadType="center" shape="636.59,54.73 849.15,-84.33">
        <lane id="E16_0" index="0" speed="13.89" length="242.29" shape="645.52,46.98 848.28,-85.67"/>
        <lane id="E16_1" index="1" speed="13.89" length="242.29" shape="647.27,49.66 850.03,-82.99"/>
    </edge>
    <edge id="E2" from="J1" to="J3" priority="-1" spreadType="center" length="300.00" shape="87.96,46.46 27.08,134.45">
        <lane id="E2_0" index="0" speed="13.89" length="300.00" shape="82.05,55.01 27.08,134.45"/>
    </edge>
    <edge id="E3" from="J1" to="J4" priority="-1" spreadType="center" shape="88.45,42.91 152.13,86.61">
        <lane id="E3_0" index="0" speed="13.89" length="62.76" shape="95.28,45.65 147.03,81.17"/>
        <lane id="E3_1" index="1" speed="13.89" length="62.76" shape="93.46,48.29 145.22,83.81"/>
    </edge>
    <edge id="E4" from="J4" to="J5" priority="-1" spreadType="center" shape="151.79,86.40 231.96,130.16">
        <lane id="E4_0" index="0" speed="13.89" length="75.16" shape="159.46,88.76 225.42,124.77"/>
        <lane id="E4_1" index="1" speed="13.89" length="75.16" shape="157.92,91.57 223.89,127.58"/>
    </edge>
    <edge id="E5" from="J6" to="J4" priority="-1" spreadType="center" shape="102.51,158.35 148.93,88.32">
        <lane id="E5_0" index="0" speed="13.89" length="73.66" shape="102.51,158.35 143.21,96.95"/>
    </edge>
    <edge id="E6" from="J7" to="J5" priority="-1" spreadType="center" shape="189.05,183.82 229.11,131.96">
        <lane id="E6_0" index="0" speed="13.89" length="54.54" shape="189.05,183.82 222.39,140.66"/>
    </edge>
    <edge id="E7" from="J4" to="J8" priority="-1" spreadType="center" shape="148.94,88.31 215.77,-9.70">
        <lane id="E7_0" index="0" speed="13.89" length="107.88" shape="155.00,79.43 215.77,-9.70"/>
    </edge>
    <edge id="E9" from="J5" to="J10" priority="-1" spreadType="center" shape="230.51,129.74 494.35,143.39">
        <lane id="E9_0" index="0" speed="13.89" length="244.56" shape="242.40,128.76 486.63,141.39"/>
        <lane id="E9_1" index="1" speed="13.89" length="244.56" shape="242.24,131.95 486.47,144.59"/>
    </edge>

    <tlLogic id="J1" type="static" programID="0" offset="0">
        <phase duration="42" state="GGGgrrrGGGgrrr"/>
        <phase duration="3"  state="yyyyrrryyyyrrr"/>
        <phase duration="42" state="rrrrGGgrrrrGGg"/>
        <phase duration="3"  state="rrrryyyrrrryyy"/>
    </tlLogic>
    <tlLogic id="J10" type="static" programID="0" offset="0">
        <phase duration="42" state="GGGgrrrGGGgrrr"/>
        <phase duration="3"  state="yyyyrrryyyyrrr"/>
        <phase duration="42" state="rrrrGGgrrrrGGg"/>
        <phase duration="3"  state="rrrryyyrrrryyy"/>
    </tlLogic>
    <tlLogic id="J11" type="static" programID="0" offset="0">
        <phase duration="42" state="rrrGGGgrrrGGGg"/>
        <phase duration="3"  state="rrryyyyrrryyyy"/>
        <phase duration="42" state="GGgrrrrGGgrrrr"/>
        <phase duration="3"  state="yyyrrrryyyrrrr"/>
    </tlLogic>
    <tlLogic id="J4" type="static" programID="0" offset="0">
        <phase duration="42" state="GGGgrrrGGGgrrr"/>
        <phase duration="3"  state="yyyyrrryyyyrrr"/>
        <phase duration="42" state="rrrrGGgrrrrGGg"/>
        <phase duration="3"  state="rrrryyyrrrryyy"/>
    </tlLogic>
    <tlLogic id="J5" type="static" programID="0" offset="0">
        <phase duration="42" state="GGGgrrrGGGgrrr"/>
        <phase duration="3"  state="yyyyrrryyyyrrr"/>
        <phase duration="42" state="rrrrGGgrrrrGGg"/>
        <phase duration="3"  state="rrrryyyrrrryyy"/>
    </tlLogic>

    <junction id="J0" type="dead_end" x="148.30" y="-49.51" incLanes="-E0_0" intLanes="" shape="148.30,-49.51 145.62,-51.25 148.30,-49.51"/>
    <junction id="J1" type="traffic_light" x="86.64" y="45.55" incLanes="-E3_0 -E3_1 E0_0 E1_0 E1_1 -E2_0" intLanes=":J1_0_0 :J1_1_0 :J1_1_1 :J1_14_0 :J1_4_0 :J1_5_0 :J1_15_0 :J1_7_0 :J1_8_0 :J1_8_1 :J1_16_0 :J1_11_0 :J1_12_0 :J1_17_0" shape="88.94,54.89 96.18,44.33 94.54,42.63 94.20,41.67 94.19,40.64 94.49,39.54 95.11,38.37 89.74,34.89 88.18,36.49 87.31,36.81 86.38,36.81 85.40,36.49 84.36,35.85 76.69,46.09 78.51,48.02 78.91,49.04 78.98,50.09 78.71,51.16 78.10,52.27 83.36,55.92 84.99,54.34 85.89,54.01 86.85,54.00 87.87,54.29">
        <request index="0"  response="00000000000000" foes="00010000100000" cont="0"/>
        <request index="1"  response="10000001000000" foes="11110001100000" cont="0"/>
        <request index="2"  response="10000001000000" foes="11110001100000" cont="0"/>
        <request index="3"  response="10001111000000" foes="11001111100000" cont="1"/>
        <request index="4"  response="00001100000000" foes="00001100000000" cont="0"/>
        <request index="5"  response="00011100001111" foes="10011100001111" cont="0"/>
        <request index="6"  response="01011100001110" foes="01011100001110" cont="1"/>
        <request index="7"  response="00000000000000" foes="01000000001000" cont="0"/>
        <request index="8"  response="10000001000000" foes="11000001111000" cont="0"/>
        <request index="9"  response="10000001000000" foes="11000001111000" cont="0"/>
        <request index="10" response="10000001000111" foes="11000001100111" cont="1"/>
        <request index="11" response="00000000000110" foes="00000000000110" cont="0"/>
        <request index="12" response="00011110001110" foes="00011111001110" cont="0"/>
        <request index="13" response="00011100101110" foes="00011100101110" cont="1"/>
    </junction>
    <junction id="J10" type="traffic_light" x="494.18" y="146.59" incLanes="-E11_0 -E11_1 -E13_0 E9_0 E9_1 -E12_0" intLanes=":J10_0_0 :J10_1_0 :J10_1_1 :J10_14_0 :J10_4_0 :J10_5_0 :J10_15_0 :J10_7_0 :J10_8_0 :J10_8_1 :J10_16_0 :J10_11_0 :J10_12_0 :J10_17_0" shape="507.14,146.10 500.41,135.21 498.50,135.94 497.81,135.79 497.31,135.31 496.99,134.48 496.84,133.32 490.45,133.58 490.15,137.13 489.64,138.34 488.90,139.20 487.93,139.68 486.71,139.80 486.05,152.58 488.44,153.15 489.25,153.74 489.79,154.55 490.06,155.57 490.08,156.79 496.45,157.35 497.83,153.92 499.34,152.08 501.39,150.17 503.99,148.17">
        <request index="0"  response="00000000000000" foes="00010000100000" cont="0"/>
        <request index="1"  response="10000001000000" foes="11110001100000" cont="0"/>