<?xml version="1.0" encoding="UTF-8"?>
<routes xmlns:xsi="http://www.w3.org/2001/XMLSchema-instance" xsi:noNamespaceSchemaLocation="http://sumo.dlr.de/xsd/routes_file.xsd">
  <flow id="JF0" begin="0" fromJunction="J0" toJunction="J14" end="360" vehsPerHour="21.45106274124748" departLane="free" arrivalSpeed="0.0"/>
  <flow id="JF1" begin="0" fromJunction="J0" toJunction="J15" end="360" vehsPerHour="18.18874799422706" departLane="free" arrivalSpeed="0.0"/>
  <flow id="JF2" begin="0" fromJunction="J0" toJunction="J16" end="360" vehsPerHour="61.24971916041298" departLane="free" arrivalSpeed="0.0"/>
  <flow id="JF3" begin="0" fromJunction="J0" toJunction="J2" end="360" vehsPerHour="10.181791429051012" departLane="free" arrivalSpeed="0.0"/>
  <flow id="JF4" begin="0" fromJunction="J0" toJunction="J3" end="360" vehsPerHour="18.759037013958096" departLane="free" arrivalSpeed="0.0"/>
  <flow id="JF5" begin="0" fromJunction="J0" toJunction="J7" end="360" vehsPerHour="4.856155568319171" departLane="free" arrivalSpeed="0.0"/>
  <flow id="JF6" begin="0" fromJunction="J0" toJunction="J8" end="360" vehsPerHour="9.090352697911724" departLane="free" arrivalSpeed="0.0"/>
  <flow id="JF7" begin="0" fromJunction="J0" toJunction="J9" end="360" vehsPerHour="67.58762780549844" departLane="free" arrivalSpeed="0.0"/>
  <flow id="JF8" begin="0" fromJunction="J12" toJunction="J13" end="360" vehsPerHour="1.8232922205350484" departLane="free" arrivalSpeed="0.0"/>
  <flow id="JF9" begin="0" fromJunction="J12" toJunction="J16" end="360" vehsPerHour="24.581229971524397" departLane="free" arrivalSpeed="0.0"/>
  <flow id="JF10" begin="0" fromJunction="J12" toJunction="J7" end="360" vehsPerHour="11.525244599614323" departLane="free" arrivalSpeed="0.0"/>
  <flow id="JF11" begin="0" fromJunction="J12" toJunction="J8" end="360" vehsPerHour="12.84101630800901" departLane="free" arrivalSpeed="0.0"/>
  <flow id="JF12" begin="0" fromJunction="J12" toJunction="J9" end="360" vehsPerHour="14.144724527865142" departLane="free" arrivalSpeed="0.0"/>
  <flow id="JF13" begin="0" fromJunction="J13" toJunction="J0" end="360" vehsPerHour="62.64449281257354" departLane="free" arrivalSpeed="0.0"/>
  <flow id="JF14" begin="0" fromJunction="J13" toJunction="J12" end="360" vehsPerHour="61.6147323967201" departLane="free" arrivalSpeed="0.0"/>
  <flow id="JF15" begin="0" fromJunction="J13" toJunction="J14" end="360" vehsPerHour="59.61462155666197" departLane="free" arrivalSpeed="0.0"/>
  <flow id="JF16" begin="0" fromJunction="J13" toJunction="J15" end="360" vehsPerHour="64.16695422466772" departLane="free" arrivalSpeed="0.0"/>
  <flow id="JF17" begin="0" fromJunction="J13" toJunction="J16" end="360" vehsPerHour="3.3980993154044583" departLane="free" arrivalSpeed="0.0"/>
  <flow id="JF18" begin="0" fromJunction="J13" toJunction="J2" end="360" vehsPerHour="21.118067359086595" departLane="free" arrivalSpeed="0.0"/>
  <flow id="JF19" begin="0" fromJunction="J13" toJunction="J3" end="360" vehsPerHour="43.21044190562583" departLane="free" arrivalSpeed="0.0"/>
  <flow id="JF20" begin="0" fromJunction="J13" toJunction="J6" end="360" vehsPerHour="25.428765736365854" departLane="free" arrivalSpeed="0.0"/>
  <flow id="JF21" begin="0" fromJunction="J13" toJunction="J7" end="360" vehsPerHour="0.13196349271674504" departLane="free" arrivalSpeed="0.0"/>
  <flow id="JF22" begin="0" fromJunction="J13" toJunction="J9" end="360" vehsPerHour="43.60024597254471" departLane="free" arrivalSpeed="0.0"/>
  <flow id="JF23" begin="0" fromJunction="J14" toJunction="J0" end="360" vehsPerHour="35.4909497776678" departLane="free" arrivalSpeed="0.0"/>
  <flow id="JF24" begin="0" fromJunction="J14" toJunction="J12" end="360" vehsPerHour="17.418866246341853" departLane="free" arrivalSpeed="0.0"/>
  <flow id="JF25" begin="0" fromJunction="J14" toJunction="J13" end="360" vehsPerHour="64.82880736409012" departLane="free" arrivalSpeed="0.0"/>
  <flow id="JF26" begin="0" fromJunction="J14" toJunction="J15" end="360" vehsPerHour="50.085501693859" departLane="free" arrivalSpeed="0.0"/>
  <flow id="JF27" begin="0" fromJunction="J14" toJunction="J2" end="360" vehsPerHour="6.096677682777492" departLane="free" arrivalSpeed="0.0"/>
  <flow id="JF28" begin="0" fromJunction="J14" toJunction="J3" end="360" vehsPerHour="22.097481525052487" departLane="free" arrivalSpeed="0.0"/>
  <flow id="JF29" begin="0" fromJunction="J14" toJunction="J6" end="360" vehsPerHour="43.304251301570005" departLane="free" arrivalSpeed="0.0"/>
  <flow id="JF30" begin="0" fromJunction="J14" toJunction="J7" end="360" vehsPerHour="16.31706996564962" departLane="free" arrivalSpeed="0.0"/>
  <flow id="JF31" begin="0" fromJunction="J14" toJunction="J9" end="360" vehsPerHour="61.61731139207338" departLane="free" arrivalSpeed="0.0"/>
  <flow id="JF32" begin="0" fromJunction="J15" toJunction="J0" end="360" vehsPerHour="50.03151543945921" departLane="free" arrivalSpeed="0.0"/>
  <flow id="JF33" begin="0" fromJunction="J15" toJunction="J12" end="360" vehsPerHour="65.56303338734683" departLane="free" arrivalSpeed="0.0"/>
  <flow id="JF34" begin="0" fromJunction="J15" toJunction="J13" end="360" vehsPerHour="64.61282237813772" departLane="free" arrivalSpeed="0.0"/>
  <flow id="JF35" begin="0" fromJunction="J15" toJunction="J14" end="360" vehsPerHour="5.069995193932733" departLane="free" arrivalSpeed="0.0"/>
  <flow id="JF36" begin="0" fromJunction="J15" toJunction="J16" end="360" vehsPerHour="30.021471035704202" departLane="free" arrivalSpeed="0.0"/>
  <flow id="JF37" begin="0" fromJunction="J15" toJunction="J2" end="360" vehsPerHour="37.82938470167011" departLane="free" arrivalSpeed="0.0"/>
  <flow id="JF38" begin="0" fromJunction="J15" toJunction="J3" end="360" vehsPerHour="12.486320941015592" departLane="free" arrivalSpeed="0.0"/>
  <flow id="JF39" begin="0" fromJunction="J15" toJunction="J9" end="360" vehsPerHour="27.30246884426186" departLane="free" arrivalSpeed="0.0"/>
  <flow id="JF40" begin="0" fromJunction="J16" toJunction="J0" end="360" vehsPerHour="133.8965458398742" departLane="free" arrivalSpeed="0.0"/>
  <flow id="JF41" begin="0" fromJunction="J16" toJunction="J13" end="360" vehsPerHour="60.80271205287338" departLane="free" arrivalSpeed="0.0"/>
  <flow id="JF42" begin="0" fromJunction="J16" toJunction="J14" end="360" vehsPerHour="81.494965238017" departLane="free" arrivalSpeed="0.0"/>
  <flow id="JF43" begin="0" fromJunction="J16" toJunction="J15" end="360" vehsPerHour="123.44685190579143" departLane="free" arrivalSpeed="0.0"/>
  <flow id="JF44" begin="0" fromJunction="J16" toJunction="J2" end="360" vehsPerHour="98.97880925325896" departLane="free" arrivalSpeed="0.0"/>
  <flow id="JF45" begin="0" fromJunction="J16" toJunction="J3" end="360" vehsPerHour="123.78920361180813" departLane="free" arrivalSpeed="0.0"/>
  <flow id="JF46" begin="0" fromJunction="J16" toJunction="J6" end="360" vehsPerHour="49.49217913940659" departLane="free" arrivalSpeed="0.0"/>
  <flow id="JF47" begin="0" fromJunction="J16" toJunction="J9" end="360" vehsPerHour="71.4767159196292" departLane="free" arrivalSpeed="0.0"/>
  <flow id="JF48" begin="0" fromJunction="J2" toJunction="J12" end="360" vehsPerHour="1.8697594037826657" departLane="free" arrivalSpeed="0.0"/>
  <flow id="JF49" begin="0" fromJunction="J2" toJunction="J13" end="360" vehsPerHour="113.82116994382119" departLane="free" arrivalSpeed="0.0"/>
  <flow id="JF50" begin="0" fromJunction="J2" toJunction="J6" end="360" vehsPerHour="25.895445016352436" departLane="free" arrivalSpeed="0.0"/>
  <flow id="JF51" begin="0" fromJunction="J2" toJunction="J7" end="360" vehsPerHour="60.01430632243799" departLane="free" arrivalSpeed="0.0"/>
  <flow id="JF52" begin="0" fromJunction="J2" toJunction="J8" end="360" vehsPerHour="7.761100658153936" departLane="free" arrivalSpeed="0.0"/>
  <flow id="JF53" begin="0" fromJunction="J2" toJunction="J9" end="360" vehsPerHour="71.57035619274815" departLane="free" arrivalSpeed="0.0"/>
  <flow id="JF54" begin="0" fromJunction="J3" toJunction="J0" end="360" vehsPerHour="35.05468770176678" departLane="free" arrivalSpeed="0.0"/>
  <flow id="JF55" begin="0" fromJunction="J3" toJunction="J14" end="360" vehsPerHour="10.065437756937472" departLane="free" arrivalSpeed="0.0"/>
  <flow id="JF56" begin="0" fromJunction="J3" toJunction="J16" end="360" vehsPerHour="49.24462887370496" departLane="free" arrivalSpeed="0.0"/>
  <flow id="JF57" begin="0" fromJunction="J3" toJunction="J6" end="360" vehsPerHour="59.99372276097342" departLane="free" arrivalSpeed="0.0"/>
  <flow id="JF58" begin="0" fromJunction="J3" toJunction="J7" end="360" vehsPerHour="12.403476491031295" departLane="free" arrivalSpeed="0.0"/>
  <flow id="JF59" begin="0" fromJunction="J3" toJunction="J8" end="360" vehsPerHour="66.65434023952528" departLane="free" arrivalSpeed="0.0"/>
  <flow id="JF60" begin="0" fromJunction="J6" toJunction="J13" end="360" vehsPerHour="39.613848000455306" departLane="free" arrivalSpeed="0.0"/>
  <flow id="JF61" begin="0" fromJunction="J6" toJunction="J16" end="360" vehsPerHour="26.74302683922901" departLane="free" arrivalSpeed="0.0"/>
  <flow id="JF62" begin="0" fromJunction="J6" toJunction="J2" end="360" vehsPerHour="3.771317533218519" departLane="free" arrivalSpeed="0.0"/>
  <flow id="JF63" begin="0" fromJunction="J6" toJunction="J8" end="360" vehsPerHour="39.74388352483138" departLane="free" arrivalSpeed="0.0"/>
  <flow id="JF64" begin="0" fromJunction="J6" toJunction="J9" end="360" vehsPerHour="48.18293278987778" departLane="free" arrivalSpeed="0.0"/>
  <flow id="JF65" begin="0" fromJunction="J7" toJunction="J12" end="360" vehsPerHour="5.507342309495501" departLane="free" arrivalSpeed="0.0"/>
  <flow id="JF66" begin="0" fromJunction="J7" toJunction="J13" end="360" vehsPerHour="51.417156335376866" departLane="free" arrivalSpeed="0.0"/>
  <flow id="JF67" begin="0" fromJunction="J7" toJunction="J15" end="360" vehsPerHour="46.319997996210724" departLane="free" arrivalSpeed="0.0"/>
  <flow id="JF68" begin="0" fromJunction="J7" toJunction="J16" end="360" vehsPerHour="54.38392544608919" departLane="free" arrivalSpeed="0.0"/>
  <flow id="JF69" begin="0" fromJunction="J7" toJunction="J3" end="360" vehsPerHour="65.93899297399115" departLane="free" arrivalSpeed="0.0"/>
  <flow id="JF70" begin="0" fromJunction="J7" toJunction="J6" end="360" vehsPerHour="46.14231508574141" departLane="free" arrivalSpeed="0.0"/>
  <flow id="JF71" begin="0" fromJunction="J7" toJunction="J8" end="360" vehsPerHour="33.86076201644768" departLane="free" arrivalSpeed="0.0"/>
  <flow id="JF72" begin="0" fromJunction="J7" toJunction="J9" end="360" vehsPerHour="20.12481379877916" departLane="free" arrivalSpeed="0.0"/>
  <flow id="JF73" begin="0" fromJunction="J8" toJunction="J0" end="360" vehsPerHour="11.423813646291363" departLane="free" arrivalSpeed="0.0"/>
  <flow id="JF74" begin="0" fromJunction="J8" toJunction="J13" end="360" vehsPerHour="60.51359973684898" departLane="free" arrivalSpeed="0.0"/>
  <flow id="JF75" begin="0" fromJunction="J8" toJunction="J14" end="360" vehsPerHour="10.046039601599176" departLane="free" arrivalSpeed="0.0"/>
  <flow id="JF76" begin="0" fromJunction="J8" toJunction="J15" end="360" vehsPerHour="9.61057170952207" departLane="free" arrivalSpeed="0.0"/>
  <flow id="JF77" begin="0" fromJunction="J8" toJunction="J16" end="360" vehsPerHour="4.6021442267319665" departLane="free" arrivalSpeed="0.0"/>
  <flow id="JF78" begin="0" fromJunction="J8" toJunction="J2" end="360" vehsPerHour="24.54128174255963" departLane="free" arrivalSpeed="0.0"/>
  <flow id="JF79" begin="0" fromJunction="J8" toJunction="J3" end="360" vehsPerHour="54.43886659844309" departLane="free" arrivalSpeed="0.0"/>
  <flow id="JF80" begin="0" fromJunction="J8" toJunction="J6" end="360" vehsPerHour="64.68651652535988" departLane="free" arrivalSpeed="0.0"/>
  <flow id="JF81" begin="0" fromJunction="J9" toJunction="J0" end="360" vehsPerHour="46.01959185219958" departLane="free" arrivalSpeed="0.0"/>
  <flow id="JF82" begin="0" fromJunction="J9" toJunction="J12" end="360" vehsPerHour="7.765962392113246" departLane="free" arrivalSpeed="0.0"/>
  <flow id="JF83" begin="0" fromJunction="J9" toJunction="J13" end="360" vehsPerHour="34.79546234447705" departLane="free" arrivalSpeed="0.0"/>
  <flow id="JF84" begin="0" fromJunction="J9" toJunction="J15" end="360" vehsPerHour="32.74701918699583" departLane="free" arrivalSpeed="0.0"/>
  <flow id="JF85" begin="0" fromJunction="J9" toJunction="J16" end="360" vehsPerHour="12.870614552259285" departLane="free" arrivalSpeed="0.0"/>
  <flow id="JF86" begin="0" fromJunction="J9" toJunction="J3" end="360" vehsPerHour="17.70734700389126" departLane="free" arrivalSpeed="0.0"/>
  <flow id="JF87" begin="0" fromJunction="J9" toJunction="J6" end="360" vehsPerHour="23.52617087225702" departLane="free" arrivalSpeed="0.0"/>
  <flow id="JF88" begin="0" fromJunction="J9" toJunction="J7" end="360" vehsPerHour="4.514736046148586" departLane="free" arrivalSpeed="0.0"/>
  <flow id="JF89" begin="0" fromJunction="J9" toJunction="J8" end="360" vehsPerHour="19.106507693069073" departLane="free" arrivalSpeed="0.0"/>
  <flow id="JF90" begin="360" fromJunction="J0" toJunction="J12" end="720" vehsPerHour="9.359758052114469" departLane="free" arrivalSpeed="0.0"/>
  <flow id="JF91" begin="360" fromJunction="J0" toJunction="J14" end="720" vehsPerHour="19.894795393410277" departLane="free" arrivalSpeed="0.0"/>
  <flow id="JF92" begin="360" fromJunction="J0" toJunction="J2" end="720" vehsPerHour="55.46917992299158" departLane="free" arrivalSpeed="0.0"/>
  <flow id="JF93" begin="360" fromJunction="J0" toJunction="J3" end="720" vehsPerHour="35.38402887623284" departLane="free" arrivalSpeed="0.0"/>
  <flow id="JF94" begin="360" fromJunction="J0" toJunction="J8" end="720" vehsPerHour="55.54357540297925" departLane="free" arrivalSpeed="0.0"/>
  <flow id="JF95" begin="360" fromJunction="J0" toJunction="J9" end="720" vehsPerHour="68.39788040184865" departLane="free" arrivalSpeed="0.0"/>
  <flow id="JF96" begin="360" fromJunction="J12" toJunction="J13" end="720" vehsPerHour="17.578727779326183" departLane="free" arrivalSpeed="0.0"/>
  <flow id="JF97" begin="360" fromJunction="J12" toJunction="J14" end="720" vehsPerHour="25.07135293330291" departLane="free" arrivalSpeed="0.0"/>
  <flow id="JF98" begin="360" fromJunction="J12" toJunction="J15" end="720" vehsPerHour="56.19752511448663" departLane="free" arrivalSpeed="0.0"/>
  <flow id="JF99" begin="360" fromJunction="J12" toJunction="J16" end="720" vehsPerHour="8.214185282963578" departLane="free" arrivalSpeed="0.0"/>
  <flow id="JF100" begin="360" fromJunction="J12" toJunction="J2" end="720" vehsPerHour="44.39576565271155" departLane="free" arrivalSpeed="0.0"/>
  <flow id="JF101" begin="360" fromJunction="J12" toJunction="J8" end="720" vehsPerHour="62.13575280800227" departLane="free" arrivalSpeed="0.0"/>
  <flow id="JF102" begin="360" fromJunction="J12" toJunction="J9" end="720" vehsPerHour="4.21627898543854" departLane="free" arrivalSpeed="0.0"/>
  <flow id="JF103" begin="360" fromJunction="J13" toJunction="J0" end="720" vehsPerHour="25.456740863112742" departLane="free" arrivalSpeed="0.0"/>
  <flow id="JF104" begin="360" fromJunction="J13" toJunction="J15" end="720" vehsPerHour="64.08574246632364" departLane="free" arrivalSpeed="0.0"/>
  <flow id="JF105" begin="360" fromJunction="J13" toJunction="J16" end="720" vehsPerHour="15.04067740226264" departLane="free" arrivalSpeed="0.0"/>
  <flow id="JF106" begin="360" fromJunction="J13" toJunction="J2" end="720" vehsPerHour="28.333430288337322" departLane="free" arrivalSpeed="0.0"/>
  <flow id="JF107" begin="360" fromJunction="J13" toJunction="J3" end="720" vehsPerHour="1.9842148204805927" departLane="free" arrivalSpeed="0.0"/>
  <flow id="JF108" begin="360" fromJunction="J13" toJunction="J6" end="720" vehsPerHour="26.3664350648362" departLane="free" arrivalSpeed="0.0"/>
  <flow id="JF109" begin="360" fromJunction="J13" toJunction="J7" end="720" vehsPerHour="60.524117341634856" departLane="free" arrivalSpeed="0.0"/>
  <flow id="JF110" begin="360" fromJunction="J13" toJunction="J8" end="720" vehsPerHour="12.836678481421336" departLane="free" arrivalSpeed="0.0"/>
  <flow id="JF111" begin="360" fromJunction="J13" toJunction="J9" end="720" vehsPerHour="5.811476218023235" departLane="free" arrivalSpeed="0.0"/>
  <flow id="JF112" begin="360" fromJunction="J14" toJunction="J0" end="720" vehsPerHour="0.8084757008459337" departLane="free" arrivalSpeed="0.0"/>
  <flow id="JF113" begin="360" fromJunction="J14" toJunction="J12" end="720" vehsPerHour="25.37447898525853" departLane="free" arrivalSpeed="0.0"/>
  <flow id="JF114" begin="360" fromJunction="J14" toJunction="J15" end="720" vehsPerHour="2.7891450222485528" departLane="free" arrivalSpeed="0.0"/>
  <flow id="JF115" begin="360" fromJunction="J14" toJunction="J16" end="720" vehsPerHour="12.250003697633428" departLane="free" arrivalSpeed="0.0"/>
  <flow id="JF116" begin="360" fromJunction="J14" toJunction="J7" end="720" vehsPerHour="59.2743178924504" departLane="free" arrivalSpeed="0.0"/>
  <flow id="JF117" begin="360" fromJunction="J14" toJunction="J9" end="720" vehsPerHour="4.26987412036783" departLane="free" arrivalSpeed="0.0"/>
  <flow id="JF118" begin="360" fromJunction="J15" toJunction="J0" end="720" vehsPerHour="11.541045866065536" departLane="free" arrivalSpeed="0.0"/>
  <flow id="JF119" begin="360" fromJunction="J15" toJunction="J14" end="720" vehsPerHour="6.556691301734698" departLane="free" arrivalSpeed="0.0"/>
  <flow id="JF120" begin="360" fromJunction="J15" toJunction="J2" end="720" vehsPerHour="66.21069043476477" departLane="free" arrivalSpeed="0.0"/>
  <flow id="JF121" begin="360" fromJunction="J15" toJunction="J3" end="720" vehsPerHour="10.582631855757226" departLane="free" arrivalSpeed="0.0"/>
  <flow id="JF122" begin="360" fromJunction="J15" toJunction="J7" end="720" vehsPerHour="68.11542590613237" departLane="free" arrivalSpeed="0.0"/>
  <flow id="JF123" begin="360" fromJunction="J15" toJunction="J8" end="720" vehsPerHour="14.756894938840071" departLane="free" arrivalSpeed="0.0"/>
  <flow id="JF124" begin="360" fromJunction="J15" toJunction="J9" end="720" vehsPerHour="54.27268116746913" departLane="free" arrivalSpeed="0.0"/>
  <flow id="JF125" begin="360" fromJunction="J16" toJunction="J0" end="720" vehsPerHour="47.46085490149685" departLane="free" arrivalSpeed="0.0"/>
  <flow id="JF126" begin="360" fromJunction="J16" toJunction="J12" end="720" vehsPerHour="110.8979170798131" departLane="free" arrivalSpeed="0.0"/>
  <flow id="JF127" begin="360" fromJunction="J16" toJunction="J13" end="720" vehsPerHour="125.05699505073756" departLane="free" arrivalSpeed="0.0"/>
  <flow id="JF128" begin="360" fromJunction="J16" toJunction="J14" end="720" vehsPerHour="98.9865581768689" departLane="free" arrivalSpeed="0.0"/>
  <flow id="JF129" begin="360" fromJunction="J16" toJunction="J2" end="720" vehsPerHour="9.25037364934204" departLane="free" arrivalSpeed="0.0"/>
  <flow id="JF130" begin="360" fromJunction="J16" toJunction="J3" end="720" vehsPerHour="14.90656071712851" departLane="free" arrivalSpeed="0.0"/>
  <flow id="JF131" begin="360" fromJunction="J16" toJunction="J6" end="720" vehsPerHour="5.717401126216308" departLane="free" arrivalSpeed="0.0"/>
  <flow id="JF132" begin="360" fromJunction="J16" toJunction="J7" end="720" vehsPerHour="112.44655969474" departLane="free" arrivalSpeed="0.0"/>
  <flow id="JF133" begin="360" fromJunction="J16" toJunction="J8" end="720" vehsPerHour="54.6627229666494" departLane="free" arrivalSpeed="0.0"/>
  <flow id="JF134" begin="360" fromJunction="J2" toJunction="J13" end="720" vehsPerHour="61.58733070293267" departLane="free" arrivalSpeed="0.0"/>
  <flow id="JF135" begin="360" fromJunction="J2" toJunction="J14" end="720" vehsPerHour="72.08415267933384" departLane="free" arrivalSpeed="0.0"/>
  <flow id="JF136" begin="360" fromJunction="J2" toJunction="J15" end="720" vehsPerHour="0.4872788470831068" departLane="free" arrivalSpeed="0.0"/>
  <flow id="JF137" begin="360" fromJunction="J2" toJunction="J16" end="720" vehsPerHour="42.251550004968344" departLane="free" arrivalSpeed="0.0"/>
  <flow id="JF138" begin="360" fromJunction="J2" toJunction="J3" end="720" vehsPerHour="52.748326659418396" departLane="free" arrivalSpeed="0.0"/>
  <flow id="JF139" begin="360" fromJunction="J2" toJunction="J6" end="720" vehsPerHour="45.71413388037867" departLane="free" arrivalSpeed="0.0"/>
  <flow id="JF140" begin="360" fromJunction="J2" toJunction="J7" end="720" vehsPerHour="82.60942193826193" departLane="free" arrivalSpeed="0.0"/>
  <flow id="JF141" begin="360" fromJunction="J2" toJunction="J8" end="720" vehsPerHour="18.214567727726248" departLane="free" arrivalSpeed="0.0"/>
  <flow id="JF142" begin="360" fromJunction="J2" toJunction="J9" end="720" vehsPerHour="57.81010234854768" departLane="free" arrivalSpeed="0.0"/>
  <flow id="JF143" begin="360" fromJunction="J3" toJunction="J12" end="720" vehsPerHour="11.410676006872782" departLane="free" arrivalSpeed="0.0"/>
  <flow id="JF144" begin="360" fromJunction="J3" toJunction="J15" end="720" vehsPerHour="6.440940349414649" departLane="free" arrivalSpeed="0.0"/>
  <flow id="JF145" begin="360" fromJunction="J3" toJunction="J16" end="720" vehsPerHour="66.91087600284135" departLane="free" arrivalSpeed="0.0"/>
  <flow id="JF146" begin="360" fromJunction="J3" toJunction="J2" end="720" vehsPerHour="10.53672215548617" departLane="free" arrivalSpeed="0.0"/>
  <flow id="JF147" begin="360" fromJunction="J3" toJunction="J8" end="720" vehsPerHour="18.942385982606453" departLane="free" arrivalSpeed="0.0"/>
  <flow id="JF148" begin="360" fromJunction="J3" toJunction="J9" end="720" vehsPerHour="29.95820649779585" departLane="free" arrivalSpeed="0.0"/>
  <flow id="JF149" begin="360" fromJunction="J6" toJunction="J0" end="720" vehsPerHour="38.17111180643592" departLane="free" arrivalSpeed="0.0"/>
  <flow id="JF150" begin="360" fromJunction="J6" toJunction="J12" end="720" vehsPerHour="62.76924886458869" departLane="free" arrivalSpeed="0.0"/>
  <flow id="JF151" begin="360" fromJunction="J6" toJunction="J14" end="720" vehsPerHour="28.915035697741544" departLane="free" arrivalSpeed="0.0"/>
  <flow id="JF152" begin="360" fromJunction="J6" toJunction="J15" end="720" vehsPerHour="6.295556653868785" departLane="free" arrivalSpeed="0.0"/>
  <flow id="JF153" begin="360" fromJunction="J6" toJunction="J2" end="720" vehsPerHour="54.37130868670851" departLane="free" arrivalSpeed="0.0"/>
  <flow id="JF154" begin="360" fromJunction="J6" toJunction="J3" end="720" vehsPerHour="53.201243217484404" departLane="free" arrivalSpeed="0.0"/>
  <flow id="JF155" begin="360" fromJunction="J6" toJunction="J7" end="720" vehsPerHour="31.40743866457656" departLane="free" arrivalSpeed="0.0"/>
  <flow id="JF156" begin="360" fromJunction="J6" toJunction="J8" end="720" vehsPerHour="54.95966809575092" departLane="free" arrivalSpeed="0.0"/>
  <flow id="JF157" begin="360" fromJunction="J6" toJunction="J9" end="720" vehsPerHour="58.075032376951974" departLane="free" arrivalSpeed="0.0"/>
  <flow id="JF158" begin="360" fromJunction="J7" toJunction="J12" end="720" vehsPerHour="23.85526788429789" departLane="free" arrivalSpeed="0.0"/>
  <flow id="JF159" begin="360" fromJunction="J7" toJunction="J13" end="720" vehsPerHour="48.955578063321774" departLane="free" arrivalSpeed="0.0"/>
  <flow id="JF160" begin="360" fromJunction="J7" toJunction="J14" end="720" vehsPerHour="30.202729720713034" departLane="free" arrivalSpeed="0.0"/>
  <flow id="JF161" begin="360" fromJunction="J7" toJunction="J15" end="720" vehsPerHour="19.787830273114913" departLane="free" arrivalSpeed="0.0"/>
  <flow id="JF162" begin="360" fromJunction="J7" toJunction="J16" end="720" vehsPerHour="38.69447575025382" departLane="free" arrivalSpeed="0.0"/>
  <flow id="JF163" begin="360" fromJunction="J7" toJunction="J2" end="720" vehsPerHour="4.767498288512446" departLane="free" arrivalSpeed="0.0"/>
  <flow id="JF164" begin="360" fromJunction="J7" toJunction="J3" end="720" vehsPerHour="15.72559852089119" departLane="free" arrivalSpeed="0.0"/>
  <flow id="JF165" begin="360" fromJunction="J7" toJunction="J6" end="720" vehsPerHour="45.623444802161465" departLane="free" arrivalSpeed="0.0"/>
  <flow id="JF166" begin="360" fromJunction="J7" toJunction="J8" end="720" vehsPerHour="5.397887019287056" departLane="free" arrivalSpeed="0.0"/>
  <flow id="JF167" begin="360" fromJunction="J7" toJunction="J9" end="720" vehsPerHour="3.0669308133517172" departLane="free" arrivalSpeed="0.0"/>
  <flow id="JF168" begin="360" fromJunction="J8" toJunction="J0" end="720" vehsPerHour="16.999550781430017" departLane="free" arrivalSpeed="0.0"/>
  <flow id="JF169" begin="360" fromJunction="J8" toJunction="J12" end="720" vehsPerHour="34.63120493348082" departLane="free" arrivalSpeed="0.0"/>
  <flow id="JF170" begin="360" fromJunction="J8" toJunction="J13" end="720" vehsPerHour="15.775594402761145" departLane="free" arrivalSpeed="0.0"/>
  <flow id="JF171" begin="360" fromJunction="J8" toJunction="J14" end="720" vehsPerHour="9.961097272942439" departLane="free" arrivalSpeed="0.0"/>
  <flow id="JF172" begin="360" fromJunction="J8" toJunction="J15" end="720" vehsPerHour="33.59626270086306" departLane="free" arrivalSpeed="0.0"/>
  <flow id="JF173" begin="360" fromJunction="J8" toJunction="J2" end="720" vehsPerHour="61.117440760853675" departLane="free" arrivalSpeed="0.0"/>
  <flow id="JF174" begin="360" fromJunction="J8" toJunction="J3" end="720" vehsPerHour="40.265327185707285" departLane="free" arrivalSpeed="0.0"/>
  <flow id="JF175" begin="360" fromJunction="J8" toJunction="J6" end="720" vehsPerHour="50.84089993329908" departLane="free" arrivalSpeed="0.0"/>
  <flow id="JF176" begin="360" fromJunction="J8" toJunction="J7" end="720" vehsPerHour="2.3057279133218906" departLane="free" arrivalSpeed="0.0"/>
  <flow id="JF177" begin="360" fromJunction="J8" toJunction="J9" end="720" vehsPerHour="43.1832727099856" departLane="free" arrivalSpeed="0.0"/>
  <flow id="JF178" begin="360" fromJunction="J9" toJunction="J0" end="720" vehsPerHour="65.99565855747271" departLane="free" arrivalSpeed="0.0"/>
  <flow id="JF179" begin="360" fromJunction="J9" toJunction="J12" end="720" vehsPerHour="57.59025222385711" departLane="free" arrivalSpeed="0.0"/>
  <flow id="JF180" begin="360" fromJunction="J9" toJunction="J13" end="720" vehsPerHour="67.89637328237275" departLane="free" arrivalSpeed="0.0"/>
  <flow id="JF181" begin="360" fromJunction="J9" toJunction="J14" end="720" vehsPerHour="17.879994314655164" departLane="free" arrivalSpeed="0.0"/>
  <flow id="JF182" begin="360" fromJunction="J9" toJunction="J15" end="720" vehsPerHour="59.16091474677154" departLane="free" arrivalSpeed="0.0"/>
  <flow id="JF183" begin="360" fromJunction="J9" toJunction="J16" end="720" vehsPerHour="1.380031528069826" departLane="free" arrivalSpeed="0.0"/>
  <flow id="JF184" begin="360" fromJunction="J9" toJunction="J2" end="720" vehsPerHour="46.00606366954025" departLane="free" arrivalSpeed="0.0"/>
  <flow id="JF185" begin="360" fromJunction="J9" toJunction="J3" end="720" vehsPerHour="7.011060505234021" departLane="free" arrivalSpeed="0.0"/>
  <flow id="JF186" begin="360" fromJunction="J9" toJunction="J6" end="720" vehsPerHour="15.841580100296914" departLane="free" arrivalSpeed="0.0"/>
  <flow id="JF187" begin="360" fromJunction="J9" toJunction="J7" end="720" vehsPerHour="6.129590131743123" departLane="free" arrivalSpeed="0.0"/>
  <flow id="JF188" begin="360" fromJunction="J9" toJunction="J8" end="720" vehsPerHour="58.965229575160365" departLane="free" arrivalSpeed="0.0"/>
  <flow id="JF189" begin="720" fromJunction="J0" toJunction="J12" end="1080" vehsPerHour="5.235023091111411" departLane="free" arrivalSpeed="0.0"/>
  <flow id="JF190" begin="720" fromJunction="J0" toJunction="J13" end="1080" vehsPerHour="63.10104829022675" departLane="free" arrivalSpeed="0.0"/>
  <flow id="JF191" begin="720" fromJunction="J0" toJunction="J14" end="1080" vehsPerHour="31.200534190656324" departLane="free" arrivalSpeed="0.0"/>
  <flow id="JF192" begin="720" fromJunction="J0" toJunction="J3" end="1080" vehsPerHour="66.3105355054016" departLane="free" arrivalSpeed="0.0"/>
  <flow id="JF193" begin="720" fromJunction="J0" toJunction="J6" end="1080" vehsPerHour="35.13805246496992" departLane="free" arrivalSpeed="0.0"/>
  <flow id="JF194" begin="720" fromJunction="J0" toJunction="J7" end="1080" vehsPerHour="57.9432323099608" departLane="free" arrivalSpeed="0.0"/>
  <flow id="JF195" begin="720" fromJunction="J0" toJunction="J8" end="1080" vehsPerHour="56.45006321785484" departLane="free" arrivalSpeed="0.0"/>
  <flow id="JF196" begin="720" fromJunction="J12" toJunction="J14" end="1080" vehsPerHour="1.8606126203221685" departLane="free" arrivalSpeed="0.0"/>
  <flow id="JF197" begin="720" fromJunction="J12" toJunction="J15" end="1080" vehsPerHour="10.277669633945095" departLane="free" arrivalSpeed="0.0"/>
  <flow id="JF198" begin="720" fromJunction="J12" toJunction="J16" end="1080" vehsPerHour="43.989245502454324" departLane="free" arrivalSpeed="0.0"/>
  <flow id="JF199" begin="720" fromJunction="J12" toJunction="J2" end="1080" vehsPerHour="10.763161880953996" departLane="free" arrivalSpeed="0.0"/>
  <flow id="JF200" begin="720" fromJunction="J12" toJunction="J3" end="1080" vehsPerHour="10.673260674696346" departLane="free" arrivalSpeed="0.0"/>
  <flow id="JF201" begin="720" fromJunction="J12" toJunction="J8" end="1080" vehsPerHour="38.13806896573772" departLane="free" arrivalSpeed="0.0"/>
  <flow id="JF202" begin="720" fromJunction="J12" toJunction="J9" end="1080" vehsPerHour="2.676528770341297" departLane="free" arrivalSpeed="0.0"/>
  <flow id="JF203" begin="720" fromJunction="J13" toJunction="J0" end="1080" vehsPerHour="50.47342295271271" departLane="free" arrivalSpeed="0.0"/>