<?xml version="1.0" encoding="UTF-8"?>
<routes xmlns:xsi="http://www.w3.org/2001/XMLSchema-instance" xsi:noNamespaceSchemaLocation="http://sumo.dlr.de/xsd/routes_file.xsd">
  <flow id="JF0" begin="0" fromJunction="J0" toJunction="J3" end="360" vehsPerHour="40.36321309214411" departLane="free"/>
  <flow id="JF1" begin="0" fromJunction="J0" toJunction="J4" end="360" vehsPerHour="108.00689211103148" departLane="free"/>
  <flow id="JF2" begin="0" fromJunction="J0" toJunction="J5" end="360" vehsPerHour="98.7408070479587" departLane="free"/>
  <flow id="JF3" begin="0" fromJunction="J0" toJunction="J6" end="360" vehsPerHour="36.1299084461846" departLane="free"/>
  <flow id="JF4" begin="0" fromJunction="J0" toJunction="J7" end="360" vehsPerHour="62.48150669772196" departLane="free"/>
  <flow id="JF5" begin="0" fromJunction="J3" toJunction="J0" end="360" vehsPerHour="135.58352091185046" departLane="free"/>
  <flow id="JF6" begin="0" fromJunction="J3" toJunction="J4" end="360" vehsPerHour="105.80788712293992" departLane="free"/>
  <flow id="JF7" begin="0" fromJunction="J3" toJunction="J5" end="360" vehsPerHour="71.38206445663248" departLane="free"/>
  <flow id="JF8" begin="0" fromJunction="J3" toJunction="J6" end="360" vehsPerHour="60.77722530437457" departLane="free"/>
  <flow id="JF9" begin="0" fromJunction="J4" toJunction="J0" end="360" vehsPerHour="40.07898759094524" departLane="free"/>
  <flow id="JF10" begin="0" fromJunction="J4" toJunction="J3" end="360" vehsPerHour="50.51514470210707" departLane="free"/>
  <flow id="JF11" begin="0" fromJunction="J4" toJunction="J5" end="360" vehsPerHour="59.6134273454267" departLane="free"/>
  <flow id="JF12" begin="0" fromJunction="J4" toJunction="J6" end="360" vehsPerHour="30.257358358406957" departLane="free"/>
  <flow id="JF13" begin="0" fromJunction="J4" toJunction="J7" end="360" vehsPerHour="58.2863824876393" departLane="free"/>
  <flow id="JF14" begin="0" fromJunction="J5" toJunction="J3" end="360" vehsPerHour="23.45766957773238" departLane="free"/>
  <flow id="JF15" begin="0" fromJunction="J5" toJunction="J4" end="360" vehsPerHour="3.7531158601720773" departLane="free"/>
  <flow id="JF16" begin="0" fromJunction="J5" toJunction="J6" end="360" vehsPerHour="26.303174129753316" departLane="free"/>
  <flow id="JF17" begin="0" fromJunction="J5" toJunction="J7" end="360" vehsPerHour="8.02490208347367" departLane="free"/>
  <flow id="JF18" begin="0" fromJunction="J6" toJunction="J3" end="360" vehsPerHour="34.69858654575247" departLane="free"/>
  <flow id="JF19" begin="0" fromJunction="J6" toJunction="J7" end="360" vehsPerHour="30.14081260277783" departLane="free"/>
  <flow id="JF20" begin="0" fromJunction="J7" toJunction="J3" end="360" vehsPerHour="23.227661957927516" departLane="free"/>
  <flow id="JF21" begin="0" fromJunction="J7" toJunction="J4" end="360" vehsPerHour="59.03637154421699" departLane="free"/>
  <flow id="JF22" begin="0" fromJunction="J7" toJunction="J5" end="360" vehsPerHour="43.57874094323886" departLane="free"/>
  <flow id="JF23" begin="0" fromJunction="J7" toJunction="J6" end="360" vehsPerHour="31.331108996081632" departLane="free"/>
  <flow id="JF24" begin="360" fromJunction="J0" toJunction="J4" end="720" vehsPerHour="45.48000883274456" departLane="free"/>
  <flow id="JF25" begin="360" fromJunction="J0" toJunction="J5" end="720" vehsPerHour="63.45973394026984" departLane="free"/>
  <flow id="JF26" begin="360" fromJunction="J0" toJunction="J6" end="720" vehsPerHour="124.94894132788261" departLane="free"/>
  <flow id="JF27" begin="360" fromJunction="J3" toJunction="J0" end="720" vehsPerHour="22.45371806495164" departLane="free"/>
  <flow id="JF28" begin="360" fromJunction="J3" toJunction="J4" end="720" vehsPerHour="108.27017579851109" departLane="free"/>
  <flow id="JF29" begin="360" fromJunction="J3" toJunction="J6" end="720" vehsPerHour="102.67135670379827" departLane="free"/>
  <flow id="JF30" begin="360" fromJunction="J3" toJunction="J7" end="720" vehsPerHour="47.49730616605278" departLane="free"/>
  <flow id="JF31" begin="360" fromJunction="J4" toJunction="J3" end="720" vehsPerHour="5.971204305497959" departLane="free"/>
  <flow id="JF32" begin="360" fromJunction="J4" toJunction="J5" end="720" vehsPerHour="24.340654994274402" departLane="free"/>
  <flow id="JF33" begin="360" fromJunction="J4" toJunction="J6" end="720" vehsPerHour="41.34349072222984" departLane="free"/>
  <flow id="JF34" begin="360" fromJunction="J5" toJunction="J0" end="720" vehsPerHour="8.103117735323004" departLane="free"/>
  <flow id="JF35" begin="360" fromJunction="J5" toJunction="J7" end="720" vehsPerHour="48.1722982173885" departLane="free"/>
  <flow id="JF36" begin="360" fromJunction="J6" toJunction="J0" end="720" vehsPerHour="12.281524709630455" departLane="free"/>
  <flow id="JF37" begin="360" fromJunction="J6" toJunction="J3" end="720" vehsPerHour="3.800219460485727" departLane="free"/>
  <flow id="JF38" begin="360" fromJunction="J6" toJunction="J4" end="720" vehsPerHour="26.378727184909796" departLane="free"/>
  <flow id="JF39" begin="360" fromJunction="J6" toJunction="J5" end="720" vehsPerHour="6.41536165065587" departLane="free"/>
  <flow id="JF40" begin="360" fromJunction="J6" toJunction="J7" end="720" vehsPerHour="24.434441967863787" departLane="free"/>
  <flow id="JF41" begin="360" fromJunction="J7" toJunction="J3" end="720" vehsPerHour="36.63964132926175" departLane="free"/>
  <flow id="JF42" begin="360" fromJunction="J7" toJunction="J5" end="720" vehsPerHour="64.32631363706088" departLane="free"/>
  <flow id="JF43" begin="720" fromJunction="J0" toJunction="J4" end="1080" vehsPerHour="81.18830691118522" departLane="free"/>
  <flow id="JF44" begin="720" fromJunction="J0" toJunction="J5" end="1080" vehsPerHour="90.29213845197452" departLane="free"/>
  <flow id="JF45" begin="720" fromJunction="J0" toJunction="J6" end="1080" vehsPerHour="122.68204025737715" departLane="free"/>
  <flow id="JF46" begin="720" fromJunction="J0" toJunction="J7" end="1080" vehsPerHour="130.004912052884" departLane="free"/>
  <flow id="JF47" begin="720" fromJunction="J3" toJunction="J0" end="1080" vehsPerHour="110.81534633529594" departLane="free"/>
  <flow id="JF48" begin="720" fromJunction="J3" toJunction="J4" end="1080" vehsPerHour="2.66491338666193" departLane="free"/>
  <flow id="JF49" begin="720" fromJunction="J4" toJunction="J0" end="1080" vehsPerHour="9.453935584138376" departLane="free"/>
  <flow id="JF50" begin="720" fromJunction="J4" toJunction="J5" end="1080" vehsPerHour="13.277908750368209" departLane="free"/>
  <flow id="JF51" begin="720" fromJunction="J5" toJunction="J3" end="1080" vehsPerHour="19.4845802911979" departLane="free"/>
  <flow id="JF52" begin="720" fromJunction="J6" toJunction="J0" end="1080" vehsPerHour="53.82026616601506" departLane="free"/>
  <flow id="JF53" begin="720" fromJunction="J6" toJunction="J3" end="1080" vehsPerHour="9.132614806009501" departLane="free"/>
  <flow id="JF54" begin="720" fromJunction="J6" toJunction="J5" end="1080" vehsPerHour="57.82552486252849" departLane="free"/>
  <flow id="JF55" begin="720" fromJunction="J6" toJunction="J7" end="1080" vehsPerHour="17.820224435921833" departLane="free"/>
  <flow id="JF56" begin="720" fromJunction="J7" toJunction="J3" end="1080" vehsPerHour="27.26937156520563" departLane="free"/>
  <flow id="JF57" begin="720" fromJunction="J7" toJunction="J4" end="1080" vehsPerHour="58.56319048732853" departLane="free"/>
  <flow id="JF58" begin="720" fromJunction="J7" toJunction="J5" end="1080" vehsPerHour="50.92606486112169" departLane="free"/>
  <flow id="JF59" begin="1080" fromJunction="J0" toJunction="J3" end="1440" vehsPerHour="29.06505290457006" departLane="free"/>
  <flow id="JF60" begin="1080" fromJunction="J0" toJunction="J4" end="1440" vehsPerHour="2.149214743057838" departLane="free"/>
  <flow id="JF61" begin="1080" fromJunction="J0" toJunction="J5" end="1440" vehsPerHour="40.99064910547317" departLane="free"/>
  <flow id="JF62" begin="1080" fromJunction="J0" toJunction="J6" end="1440" vehsPerHour="29.332273472275453" departLane="free"/>
  <flow id="JF63" begin="1080" fromJunction="J0" toJunction="J7" end="1440" vehsPerHour="34.85942947735164" departLane="free"/>
  <flow id="JF64" begin="1080" fromJunction="J3" toJunction="J0" end="1440" vehsPerHour="101.48298804537389" departLane="free"/>
  <flow id="JF65" begin="1080" fromJunction="J3" toJunction="J4" end="1440" vehsPerHour="80.2085342613083" departLane="free"/>
  <flow id="JF66" begin="1080" fromJunction="J3" toJunction="J6" end="1440" vehsPerHour="108.428014661442" departLane="free"/>
  <flow id="JF67" begin="1080" fromJunction="J3" toJunction="J7" end="1440" vehsPerHour="70.35158979514331" departLane="free"/>
  <flow id="JF68" begin="1080" fromJunction="J4" toJunction="J0" end="1440" vehsPerHour="40.09035407181514" departLane="free"/>
  <flow id="JF69" begin="1080" fromJunction="J4" toJunction="J3" end="1440" vehsPerHour="1.4262541712502306" departLane="free"/>
  <flow id="JF70" begin="1080" fromJunction="J4" toJunction="J5" end="1440" vehsPerHour="44.22109025276907" departLane="free"/>
  <flow id="JF71" begin="1080" fromJunction="J4" toJunction="J6" end="1440" vehsPerHour="5.606030041424953" departLane="free"/>
  <flow id="JF72" begin="1080" fromJunction="J5" toJunction="J0" end="1440" vehsPerHour="48.02566139470618" departLane="free"/>
  <flow id="JF73" begin="1080" fromJunction="J5" toJunction="J6" end="1440" vehsPerHour="26.063922804278867" departLane="free"/>
  <flow id="JF74" begin="1080" fromJunction="J5" toJunction="J7" end="1440" vehsPerHour="35.28377033848018" departLane="free"/>
  <flow id="JF75" begin="1080" fromJunction="J6" toJunction="J4" end="1440" vehsPerHour="50.41448203328785" departLane="free"/>
  <flow id="JF76" begin="1080" fromJunction="J6" toJunction="J7" end="1440" vehsPerHour="58.3687381541947" departLane="free"/>
  <flow id="JF77" begin="1080" fromJunction="J7" toJunction="J3" end="1440" vehsPerHour="5.69664375311196" departLane="free"/>
  <flow id="JF78" begin="1080" fromJunction="J7" toJunction="J4" end="1440" vehsPerHour="58.82965588436663" departLane="free"/>
  <flow id="JF79" begin="1080" fromJunction="J7" toJunction="J5" end="1440" vehsPerHour="60.02372846530146" departLane="free"/>
  <flow id="JF80" begin="1440" fromJunction="J0" toJunction="J3" end="1800" vehsPerHour="13.746114866818337" departLane="free"/>
  <flow id="JF81" begin="1440" fromJunction="J0" toJunction="J4" end="1800" vehsPerHour="130.55705801585407" departLane="free"/>
  <flow id="JF82" begin="1440" fromJunction="J0" toJunction="J5" end="1800" vehsPerHour="123.44856370586191" departLane="free"/>
  <flow id="JF83" begin="1440" fromJunction="J0" toJunction="J6" end="1800" vehsPerHour="11.228176919660825" departLane="free"/>
  <flow id="JF84" begin="1440" fromJunction="J0" toJunction="J7" end="1800" vehsPerHour="49.30853102417267" departLane="free"/>
  <flow id="JF85" begin="1440" fromJunction="J3" toJunction="J0" end="1800" vehsPerHour="92.38518679013394" departLane="free"/>
  <flow id="JF86" begin="1440" fromJunction="J3" toJunction="J4" end="1800" vehsPerHour="37.21004337461761" departLane="free"/>
  <flow id="JF87" begin="1440" fromJunction="J3" toJunction="J6" end="1800" vehsPerHour="116.21719775992325" departLane="free"/>
  <flow id="JF88" begin="1440" fromJunction="J3" toJunction="J7" end="1800" vehsPerHour="114.89773338444135" departLane="free"/>
  <flow id="JF89" begin="1440" fromJunction="J4" toJunction="J0" end="1800" vehsPerHour="13.137621122882713" departLane="free"/>
  <flow id="JF90" begin="1440" fromJunction="J4" toJunction="J3" end="1800" vehsPerHour="19.93429457467839" departLane="free"/>
  <flow id="JF91" begin="1440" fromJunction="J4" toJunction="J7" end="1800" vehsPerHour="40.73195475671848" departLane="free"/>
  <flow id="JF92" begin="1440" fromJunction="J5" toJunction="J0" end="1800" vehsPerHour="27.19328102194875" departLane="free"/>
  <flow id="JF93" begin="1440" fromJunction="J5" toJunction="J3" end="1800" vehsPerHour="56.65455881908825" departLane="free"/>
  <flow id="JF94" begin="1440" fromJunction="J5" toJunction="J6" end="1800" vehsPerHour="41.921270630339805" departLane="free"/>
  <flow id="JF95" begin="1440" fromJunction="J5" toJunction="J7" end="1800" vehsPerHour="47.38870224923573" departLane="free"/>
  <flow id="JF96" begin="1440" fromJunction="J6" toJunction="J0" end="1800" vehsPerHour="67.33381154222916" departLane="free"/>
  <flow id="JF97" begin="1440" fromJunction="J6" toJunction="J3" end="1800" vehsPerHour="14.982201243388339" departLane="free"/>
  <flow id="JF98" begin="1440" fromJunction="J6" toJunction="J4" end="1800" vehsPerHour="21.0281220175705" departLane="free"/>
  <flow id="JF99" begin="1440" fromJunction="J6" toJunction="J5" end="1800" vehsPerHour="48.531647073121185" departLane="free"/>
  <flow id="JF100" begin="1440" fromJunction="J6" toJunction="J7" end="1800" vehsPerHour="45.753872996705645" departLane="free"/>
  <flow id="JF101" begin="1440" fromJunction="J7" toJunction="J0" end="1800" vehsPerHour="3.4390881700721185" departLane="free"/>
  <flow id="JF102" begin="1440" fromJunction="J7" toJunction="J3" end="1800" vehsPerHour="48.519423350192504" departLane="free"/>
  <flow id="JF103" begin="1440" fromJunction="J7" toJunction="J6" end="1800" vehsPerHour="14.321271289724551" departLane="free"/>
  <flow id="JF104" begin="1800" fromJunction="J0" toJunction="J3" end="2160" vehsPerHour="35.79521133596566" departLane="free"/>
  <flow id="JF105" begin="1800" fromJunction="J0" toJunction="J4" end="2160" vehsPerHour="100.8048500438849" departLane="free"/>
  <flow id="JF106" begin="1800" fromJunction="J0" toJunction="J5" end="2160" vehsPerHour="39.50347955225921" departLane="free"/>
  <flow id="JF107" begin="1800" fromJunction="J0" toJunction="J6" end="2160" vehsPerHour="123.25892171797959" departLane="free"/>
  <flow id="JF108" begin="1800" fromJunction="J0" toJunction="J7" end="2160" vehsPerHour="42.62126136432301" departLane="free"/>
  <flow id="JF109" begin="1800" fromJunction="J3" toJunction="J0" end="2160" vehsPerHour="97.03452926846303" departLane="free"/>
  <flow id="JF110" begin="1800" fromJunction="J3" toJunction="J4" end="2160" vehsPerHour="120.978937465544" departLane="free"/>
  <flow id="JF111" begin="1800" fromJunction="J3" toJunction="J5" end="2160" vehsPerHour="23.122574972072613" departLane="free"/>
  <flow id="JF112" begin="1800" fromJunction="J3" toJunction="J6" end="2160" vehsPerHour="29.963611049103662" departLane="free"/>
  <flow id="JF113" begin="1800" fromJunction="J3" toJunction="J7" end="2160" vehsPerHour="11.266836288926122" departLane="free"/>
  <flow id="JF114" begin="1800" fromJunction="J4" toJunction="J3" end="2160" vehsPerHour="35.243003018874056" departLane="free"/>
  <flow id="JF115" begin="1800" fromJunction="J4" toJunction="J6" end="2160" vehsPerHour="8.423805236747564" departLane="free"/>
  <flow id="JF116" begin="1800" fromJunction="J5" toJunction="J3" end="2160" vehsPerHour="38.677057730388064" departLane="free"/>
  <flow id="JF117" begin="1800" fromJunction="J5" toJunction="J7" end="2160" vehsPerHour="35.74746096785902" departLane="free"/>
  <flow id="JF118" begin="1800" fromJunction="J6" toJunction="J0" end="2160" vehsPerHour="65.045228385079" departLane="free"/>
  <flow id="JF119" begin="1800" fromJunction="J6" toJunction="J3" end="2160" vehsPerHour="23.265054140594625" departLane="free"/>
  <flow id="JF120" begin="1800" fromJunction="J6" toJunction="J4" end="2160" vehsPerHour="34.621442955266254" departLane="free"/>
  <flow id="JF121" begin="1800" fromJunction="J6" toJunction="J5" end="2160" vehsPerHour="8.411245957905784" departLane="free"/>
  <flow id="JF122" begin="1800" fromJunction="J6" toJunction="J7" end="2160" vehsPerHour="29.07225164439407" departLane="free"/>
  <flow id="JF123" begin="1800" fromJunction="J7" toJunction="J4" end="2160" vehsPerHour="33.500767229320005" departLane="free"/>
  <flow id="JF124" begin="1800" fromJunction="J7" toJunction="J5" end="2160" vehsPerHour="38.3102644119576" departLane="free"/>
  <flow id="JF125" begin="1800" fromJunction="J7" toJunction="J6" end="2160" vehsPerHour="16.34967791989564" departLane="free"/>
  <flow id="JF126" begin="2160" fromJunction="J0" toJunction="J3" end="2520" vehsPerHour="95.04532449572159" departLane="free"/>
  <flow id="JF127" begin="2160" fromJunction="J0" toJunction="J4" end="2520" vehsPerHour="96.59351423982989" departLane="free"/>
  <flow id="JF128" begin="2160" fromJunction="J0" toJunction="J5" end="2520" vehsPerHour="125.08499687767332" departLane="free"/>
  <flow id="JF129" begin="2160" fromJunction="J0" toJunction="J6" end="2520" vehsPerHour="90.24582117382133" departLane="free"/>
  <flow id="JF130" begin="2160" fromJunction="J0" toJunction="J7" end="2520" vehsPerHour="119.5914516797258" departLane="free"/>
  <flow id="JF131" begin="2160" fromJunction="J3" toJunction="J0" end="2520" vehsPerHour="110.93160527817466" departLane="free"/>
  <flow id="JF132" begin="2160" fromJunction="J3" toJunction="J5" end="2520" vehsPerHour="112.31489453913126" departLane="free"/>
  <flow id="JF133" begin="2160" fromJunction="J3" toJunction="J7" end="2520" vehsPerHour="123.8642069642594" departLane="free"/>
  <flow id="JF134" begin="2160" fromJunction="J4" toJunction="J0" end="2520" vehsPerHour="7.42643752157828" departLane="free"/>
  <flow id="JF135" begin="2160" fromJunction="J4" toJunction="J3" end="2520" vehsPerHour="52.71808644707587" departLane="free"/>
  <flow id="JF136" begin="2160" fromJunction="J4" toJunction="J5" end="2520" vehsPerHour="26.27969373440611" departLane="free"/>
  <flow id="JF137" begin="2160" fromJunction="J4" toJunction="J6" end="2520" vehsPerHour="30.200445381863293" departLane="free"/>
  <flow id="JF138" begin="2160" fromJunction="J5" toJunction="J4" end="2520" vehsPerHour="30.38531583967314" departLane="free"/>
  <flow id="JF139" begin="2160" fromJunction="J5" toJunction="J6" end="2520" vehsPerHour="6.758938836230287" departLane="free"/>
  <flow id="JF140" begin="2160" fromJunction="J5" toJunction="J7" end="2520" vehsPerHour="55.82160765574234" departLane="free"/>
  <flow id="JF141" begin="2160" fromJunction="J6" toJunction="J0" end="2520" vehsPerHour="31.577022955438192" departLane="free"/>
  <flow id="JF142" begin="2160" fromJunction="J6" toJunction="J4" end="2520" vehsPerHour="43.87826571251664" departLane="free"/>
  <flow id="JF143" begin="2160" fromJunction="J7" toJunction="J3" end="2520" vehsPerHour="51.14223250278161" departLane="free"/>
  <flow id="JF144" begin="2160" fromJunction="J7" toJunction="J5" end="2520" vehsPerHour="63.4448491581321" departLane="free"/>
  <flow id="JF145" begin="2520" fromJunction="J0" toJunction="J3" end="2880" vehsPerHour="33.47803025593584" departLane="free"/>
  <flow id="JF146" begin="2520" fromJunction="J0" toJunction="J4" end="2880" vehsPerHour="59.861489926500475" departLane="free"/>
  <flow id="JF147" begin="2520" fromJunction="J0" toJunction="J7" end="2880" vehsPerHour="127.5861121509448" departLane="free"/>
  <flow id="JF148" begin="2520" fromJunction="J3" toJunction="J0" end="2880" vehsPerHour="136.8825122545774" departLane="free"/>
  <flow id="JF149" begin="2520" fromJunction="J3" toJunction="J4" end="2880" vehsPerHour="109.8917330824249" departLane="free"/>
  <flow id="JF150" begin="2520" fromJunction="J3" toJunction="J5" end="2880" vehsPerHour="29.344755096962313" departLane="free"/>
  <flow id="JF151" begin="2520" fromJunction="J3" toJunction="J7" end="2880" vehsPerHour="34.937051748865834" departLane="free"/>
  <flow id="JF152" begin="2520" fromJunction="J4" toJunction="J0" end="2880" vehsPerHour="44.38868602976629" departLane="free"/>
  <flow id="JF153" begin="2520" fromJunction="J4" toJunction="J6" end="2880" vehsPerHour="11.330055716592089" departLane="free"/>
  <flow id="JF154" begin="2520" fromJunction="J5" toJunction="J0" end="2880" vehsPerHour="11.053765181603325" departLane="free"/>
  <flow id="JF155" begin="2520" fromJunction="J5" toJunction="J6" end="2880" vehsPerHour="39.21038896633866" departLane="free"/>
  <flow id="JF156" begin="2520" fromJunction="J5" toJunction="J7" end="2880" vehsPerHour="22.75039038632199" departLane="free"/>
  <flow id="JF157" begin="2520" fromJunction="J6" toJunction="J4" end="2880" vehsPerHour="4.592078260836958" departLane="free"/>
  <flow id="JF158" begin="2520" fromJunction="J6" toJunction="J5" end="2880" vehsPerHour="17.431618085857664" departLane="free"/>
  <flow id="JF159" begin="2520" fromJunction="J6" toJunction="J7" end="2880" vehsPerHour="66.2532105029797" departLane="free"/>
  <flow id="JF160" begin="2520" fromJunction="J7" toJunction="J3" end="2880" vehsPerHour="42.07098981494479" departLane="free"/>
  <flow id="JF161" begin="2520" fromJunction="J7" toJunction="J4" end="2880" vehsPerHour="55.407923005331284" departLane="free"/>
  <flow id="JF162" begin="2520" fromJunction="J7" toJunction="J6" end="2880" vehsPerHour="42.260580374990134" departLane="free"/>
  <flow id="JF163" begin="2880" fromJunction="J0" toJunction="J3" end="3240" vehsPerHour="88.41386272562258" departLane="free"/>
  <flow id="JF164" begin="2880" fromJunction="J0" toJunction="J4" end="3240" vehsPerHour="8.132215863658478" departLane="free"/>
  <flow id="JF165" begin="2880" fromJunction="J0" toJunction="J7" end="3240" vehsPerHour="42.02450339939112" departLane="free"/>
  <flow id="JF166" begin="2880" fromJunction="J3" toJunction="J0" end="3240" vehsPerHour="61.06003421330047" departLane="free"/>
  <flow id="JF167" begin="2880" fromJunction="J3" toJunction="J4" end="3240" vehsPerHour="54.60430923517989" departLane="free"/>
  <flow id="JF168" begin="2880" fromJunction="J3" toJunction="J7" end="3240" vehsPerHour="32.200386190347686" departLane="free"/>
  <flow id="JF169" begin="2880" fromJunction="J4" toJunction="J3" end="3240" vehsPerHour="49.16371461363942" departLane="free"/>
  <flow id="JF170" begin="2880" fromJunction="J4" toJunction="J5" end="3240" vehsPerHour="22.15691056637385" departLane="free"/>
  <flow id="JF171" begin="2880" fromJunction="J4" toJunction="J6" end="3240" vehsPerHour="47.72833724591254" departLane="free"/>
  <flow id="JF172" begin="2880" fromJunction="J4" toJunction="J7" end="3240" vehsPerHour="33.56698024160031" departLane="free"/>
  <flow id="JF173" begin="2880" fromJunction="J5" toJunction="J0" end="3240" vehsPerHour="66.79206191491335" departLane="free"/>
  <flow id="JF174" begin="2880" fromJunction="J5" toJunction="J3" end="3240" vehsPerHour="56.00119130592866" departLane="free"/>
  <flow id="JF175" begin="2880" fromJunction="J5" toJunction="J4" end="3240" vehsPerHour="6.631378524029648" departLane="free"/>
  <flow id="JF176" begin="2880" fromJunction="J5" toJunction="J7" end="3240" vehsPerHour="58.47388893678933" departLane="free"/>
  <flow id="JF177" begin="2880" fromJunction="J6" toJunction="J0" end="3240" vehsPerHour="15.840939190444152" departLane="free"/>
  <flow id="JF178" begin="2880" fromJunction="J6" toJunction="J3" end="3240" vehsPerHour="4.333850327096872" departLane="free"/>
  <flow id="JF179" begin="2880" fromJunction="J7" toJunction="J3" end="3240" vehsPerHour="60.38884617816409" departLane="free"/>
  <flow id="JF180" begin="3240" fromJunction="J0" toJunction="J3" end="3600" vehsPerHour="123.2459390048195" departLane="free"/>
  <flow id="JF181" begin="3240" fromJunction="J0" toJunction="J4" end="3600" vehsPerHour="32.01042105409012" departLane="free"/>
  <flow id="JF182" begin="3240" fromJunction="J0" toJunction="J5" end="3600" vehsPerHour="114.02430743183903" departLane="free"/>
  <flow id="JF183" begin="3240" fromJunction="J0" toJunction="J6" end="3600" vehsPerHour="80.40064025143172" departLane="free"/>
  <flow id="JF184" begin="3240" fromJunction="J0" toJunction="J7" end="3600" vehsPerHour="50.8447841309037" departLane="free"/>
  <flow id="JF185" begin="3240" fromJunction="J3" toJunction="J0" end="3600" vehsPerHour="123.20903024992116" departLane="free"/>
  <flow id="JF186" begin="3240" fromJunction="J3" toJunction="J4" end="3600" vehsPerHour="33.995495032428984" departLane="free"/>
  <flow id="JF187" begin="3240" fromJunction="J3" toJunction="J5" end="3600" vehsPerHour="31.957202299972888" departLane="free"/>
  <flow id="JF188" begin="3240" fromJunction="J3" toJunction="J6" end="3600" vehsPerHour="19.83391401858512" departLane="free"/>
  <flow id="JF189" begin="3240" fromJunction="J3" toJunction="J7" end="3600" vehsPerHour="99.9098022653109" departLane="free"/>
  <flow id="JF190" begin="3240" fromJunction="J4" toJunction="J5" end="3600" vehsPerHour="53.069010734142516" departLane="free"/>
  <flow id="JF191" begin="3240" fromJunction="J4" toJunction="J6" end="3600" vehsPerHour="66.0855681463808" departLane="free"/>
  <flow id="JF192" begin="3240" fromJunction="J5" toJunction="J0" end="3600" vehsPerHour="0.27715993463741917" departLane="free"/>
  <flow id="JF193" begin="3240" fromJunction="J5" toJunction="J3" end="3600" vehsPerHour="22.35766451841768" departLane="free"/>
  <flow id="JF194" begin="3240" fromJunction="J6" toJunction="J5" end="3600" vehsPerHour="11.252905474206042" departLane="free"/>
  <flow id="JF195" begin="3240" fromJunction="J6" toJunction="J7" end="3600" vehsPerHour="47.21763554586065" departLane="free"/>
  <flow id="JF196" begin="3240" fromJunction="J7" toJunction="J0" end="3600" vehsPerHour="4.7352487814857485" departLane="free"/>
  <flow id="JF197" begin="3240" fromJunction="J7" toJunction="J3" end="3600" vehsPerHour="31.46453085302093" departLane="free"/>
  <flow id="JF198" begin="3240" fromJunction="J7" toJunction="J4" end="3600" vehsPerHour="3.060703536756014" departLane="free"/>
  <flow id="JF199" begin="3240" fromJunction="J7" toJunction="J6" end="3600" vehsPerHour="48.16454324773675" departLane="free"/>
  <flow id="JF200" begin="3600" fromJunction="J0" toJunction="J3" end="3960" vehsPerHour="17.473777299365782" departLane="free"/>
  <flow id="JF201" begin="3600" fromJunction="J0" toJunction="J5" end="3960" vehsPerHour="13.604602532629968" departLane="free"/>
  <flow id="JF202" begin="3600" fromJunction="J0" toJunction="J6" end="3960" vehsPerHour="43.87140521583253" departLane="free"/>
  <flow id="JF203" begin="3600" fromJunction="J3" toJunction="J0" end="3960" vehsPerHour="83.40760878524176" departLane="free"/>
  <flow id="JF204" begin="3600" fromJunction="J3" toJunction="J4" end="3960" vehsPerHour="19.59641557388829" departLane="free"/>
  <flow id="JF205" begin="3600" fromJunction="J3" toJunction="J6" end="3960" vehsPerHour="41.19542013319809" departLane="free"/>
  <flow id="JF206" begin="3600" fromJunction="J3" toJunction="J7" end="3960" vehsPerHour="33.50039453332946" departLane="free"/>
  <flow id="JF207" begin="3600" fromJunction="J4" toJunction="J0" end="3960" vehsPerHour="60.08537776654983" departLane="free"/>
  <flow id="JF208" begin="3600" fromJunction="J4" toJunction="J3" end="3960" vehsPerHour="20.68634241648052" departLane="free"/>
  <flow id="JF209" begin="3600" fromJunction="J4" toJunction="J6" end="3960" vehsPerHour="8.702713893284233" departLane="free"/>
  <flow id="JF210" begin="3600" fromJunction="J4" toJunction="J7" end="3960" vehsPerHour="61.31555709341881" departLane="free"/>
  <flow id="JF211" begin="3600" fromJunction="J5" toJunction="J0" end="3960" vehsPerHour="32.87491734372228" departLane="free"/>
  <flow id="JF212" begin="3600" fromJunction="J5" toJunction="J3" end="3960" vehsPerHour="66.17310827360211" departLane="free"/>
  <flow id="JF213" begin="3600" fromJunction="J5" toJunction="J4" end="3960" vehsPerHour="27.19786639991077" departLane="free"/>
  <flow id="JF214" begin="3600" fromJunction="J5" toJunction="J6" end="3960" vehsPerHour="20.657764044639787" departLane="free"/>
  <flow id="JF215" begin="3600" fromJunction="J5" toJunction="J7" end="3960" vehsPerHour="51.38132540977881" departLane="free"/>
  <flow id="JF216" begin="3600" fromJunction="J6" toJunction="J3" end="3960" vehsPerHour="37.493857464870125" departLane="free"/>
  <flow id="JF217" begin="3600" fromJunction="J6" toJunction="J5" end="3960" vehsPerHour="30.097027664884273" departLane="free"/>
  <flow id="JF218" begin="3600" fromJunction="J6" toJunction="J7" end="3960" vehsPerHour="12.81678738983078" departLane="free"/>
  <flow id="JF219" begin="3600" fromJunction="J7" toJunction="J0" end="3960" vehsPerHour="52.826458723261275" departLane="free"/>
  <flow id="JF220" begin="3600" fromJunction="J7" toJunction="J3" end="3960" vehsPerHour="49.95224301041951" departLane="free"/>
  <flow id="JF221" begin="3600" fromJunction="J7" toJunction="J4" end="3960" vehsPerHour="20.874700966894185" departLane="free"/>
  <flow id="JF222" begin="3600" fromJunction="J7" toJunction="J5" end="3960" vehsPerHour="17.33993826627534" departLane="free"/>
  <flow id="JF223" begin="3600" fromJunction="J7" toJunction="J6" end="3960" vehsPerHour="47.82734268950248" departLane="free"/>
  <flow id="JF224" begin="3960" fromJunction="J0" toJunction="J3" end="4320" vehsPerHour="66.08816710458906" departLane="free"/>
  <flow id="JF225" begin="3960" fromJunction="J0" toJunction="J5" end="4320" vehsPerHour="5.681119490538289" departLane="free"/>
  <flow id="JF226" begin="3960" fromJunction="J0" toJunction="J6" end="4320" vehsPerHour="28.442174677952423" departLane="free"/>
  <flow id="JF227" begin="3960" fromJunction="J0" toJunction="J7" end="4320" vehsPerHour="81.52714086459379" departLane="free"/>
  <flow id="JF228" begin="3960" fromJunction="J3" toJunction="J0" end="4320" vehsPerHour="41.85246896509497" departLane="free"/>
  <flow id="JF229" begin="3960" fromJunction="J3" toJunction="J4" end="4320" vehsPerHour="15.058333110350423" departLane="free"/>
  <flow id="JF230" begin="3960" fromJunction="J3" toJunction="J5" end="4320" vehsPerHour="44.79738543087857" departLane="free"/>
  <flow id="JF231" begin="3960" fromJunction="J3" toJunction="J6" end="4320" vehsPerHour="106.04990058079034" departLane="free"/>