<?xml version="1.0" encoding="UTF-8"?>
<routes xmlns:xsi="http://www.w3.org/2001/XMLSchema-instance" xsi:noNamespaceSchemaLocation="http://sumo.dlr.de/xsd/routes_file.xsd">
  <flow id="JF380600" begin="0" fromJunction="J0" toJunction="J3" end="60" vehsPerHour="341.38836705291243" departLane="free"/>
  <flow id="JF380601" begin="0" fromJunction="J0" toJunction="J4" end="60" vehsPerHour="39.22019999452464" departLane="free"/>
  <flow id="JF380602" begin="0" fromJunction="J0" toJunction="J6" end="60" vehsPerHour="73.26903602699922" departLane="free"/>
  <flow id="JF380603" begin="0" fromJunction="J0" toJunction="J7" end="60" vehsPerHour="62.63264769154188" departLane="free"/>
  <flow id="JF380604" begin="0" fromJunction="J3" toJunction="J0" end="60" vehsPerHour="366.5609116442887" departLane="free"/>
  <flow id="JF380605" begin="0" fromJunction="J3" toJunction="J4" end="60" vehsPerHour="271.0704124691239" departLane="free"/>
  <flow id="JF380606" begin="0" fromJunction="J3" toJunction="J5" end="60" vehsPerHour="141.9466197366437" departLane="free"/>
  <flow id="JF380607" begin="0" fromJunction="J3" toJunction="J6" end="60" vehsPerHour="463.7145630202695" departLane="free"/>
  <flow id="JF380608" begin="0" fromJunction="J4" toJunction="J0" end="60" vehsPerHour="20.218048702234704" departLane="free"/>
  <flow id="JF380609" begin="0" fromJunction="J4" toJunction="J3" end="60" vehsPerHour="173.751476507862" departLane="free"/>
  <flow id="JF380610" begin="0" fromJunction="J4" toJunction="J5" end="60" vehsPerHour="138.25843717818313" departLane="free"/>
  <flow id="JF380611" begin="0" fromJunction="J4" toJunction="J6" end="60" vehsPerHour="164.00066695699115" departLane="free"/>
  <flow id="JF380612" begin="0" fromJunction="J5" toJunction="J0" end="60" vehsPerHour="23.769639892020948" departLane="free"/>
  <flow id="JF380613" begin="0" fromJunction="J5" toJunction="J3" end="60" vehsPerHour="55.06972682202397" departLane="free"/>
  <flow id="JF380614" begin="0" fromJunction="J5" toJunction="J4" end="60" vehsPerHour="240.0433514447473" departLane="free"/>
  <flow id="JF380615" begin="0" fromJunction="J5" toJunction="J6" end="60" vehsPerHour="115.68830201407422" departLane="free"/>
  <flow id="JF380616" begin="0" fromJunction="J5" toJunction="J7" end="60" vehsPerHour="181.4445453906065" departLane="free"/>
  <flow id="JF380617" begin="0" fromJunction="J6" toJunction="J0" end="60" vehsPerHour="55.948663655954" departLane="free"/>
  <flow id="JF380618" begin="0" fromJunction="J6" toJunction="J3" end="60" vehsPerHour="143.58753243225084" departLane="free"/>
  <flow id="JF380619" begin="0" fromJunction="J6" toJunction="J4" end="60" vehsPerHour="159.8370397809346" departLane="free"/>
  <flow id="JF380620" begin="0" fromJunction="J6" toJunction="J5" end="60" vehsPerHour="189.15581027544698" departLane="free"/>
  <flow id="JF380621" begin="0" fromJunction="J6" toJunction="J7" end="60" vehsPerHour="172.89940083627295" departLane="free"/>
  <flow id="JF380622" begin="0" fromJunction="J7" toJunction="J3" end="60" vehsPerHour="236.83328892084592" departLane="free"/>
  <flow id="JF380623" begin="0" fromJunction="J7" toJunction="J4" end="60" vehsPerHour="13.291768362301934" departLane="free"/>
  <flow id="JF380624" begin="0" fromJunction="J7" toJunction="J5" end="60" vehsPerHour="19.97138741266791" departLane="free"/>
  <flow id="JF380625" begin="60" fromJunction="J0" toJunction="J4" end="120" vehsPerHour="257.22870717573466" departLane="free"/>
  <flow id="JF380626" begin="60" fromJunction="J0" toJunction="J5" end="120" vehsPerHour="422.1162201105646" departLane="free"/>
  <flow id="JF380627" begin="60" fromJunction="J0" toJunction="J6" end="120" vehsPerHour="418.50948756523786" departLane="free"/>
  <flow id="JF380628" begin="60" fromJunction="J0" toJunction="J7" end="120" vehsPerHour="95.18620516628991" departLane="free"/>
  <flow id="JF380629" begin="60" fromJunction="J3" toJunction="J0" end="120" vehsPerHour="63.03504573876547" departLane="free"/>
  <flow id="JF380630" begin="60" fromJunction="J3" toJunction="J5" end="120" vehsPerHour="533.031030579029" departLane="free"/>
  <flow id="JF380631" begin="60" fromJunction="J3" toJunction="J7" end="120" vehsPerHour="384.4833720436474" departLane="free"/>
  <flow id="JF380632" begin="60" fromJunction="J4" toJunction="J3" end="120" vehsPerHour="164.06137145108738" departLane="free"/>
  <flow id="JF380633" begin="60" fromJunction="J4" toJunction="J5" end="120" vehsPerHour="33.701795014432726" departLane="free"/>
  <flow id="JF380634" begin="60" fromJunction="J4" toJunction="J7" end="120" vehsPerHour="93.25245534905717" departLane="free"/>
  <flow id="JF380635" begin="60" fromJunction="J5" toJunction="J0" end="120" vehsPerHour="198.82389361616075" departLane="free"/>
  <flow id="JF380636" begin="60" fromJunction="J5" toJunction="J3" end="120" vehsPerHour="269.92205880902134" departLane="free"/>
  <flow id="JF380637" begin="60" fromJunction="J5" toJunction="J6" end="120" vehsPerHour="152.13195457601913" departLane="free"/>
  <flow id="JF380638" begin="60" fromJunction="J5" toJunction="J7" end="120" vehsPerHour="36.77791716156636" departLane="free"/>
  <flow id="JF380639" begin="60" fromJunction="J6" toJunction="J3" end="120" vehsPerHour="241.19177795718474" departLane="free"/>
  <flow id="JF380640" begin="60" fromJunction="J7" toJunction="J0" end="120" vehsPerHour="206.26793041056013" departLane="free"/>
  <flow id="JF380641" begin="60" fromJunction="J7" toJunction="J3" end="120" vehsPerHour="116.60298838015572" departLane="free"/>
  <flow id="JF380642" begin="60" fromJunction="J7" toJunction="J5" end="120" vehsPerHour="120.54103639354938" departLane="free"/>
  <flow id="JF380643" begin="60" fromJunction="J7" toJunction="J6" end="120" vehsPerHour="46.142310074509126" departLane="free"/>
  <flow id="JF380644" begin="120" fromJunction="J0" toJunction="J3" end="180" vehsPerHour="477.95015535498874" departLane="free"/>
  <flow id="JF380645" begin="120" fromJunction="J0" toJunction="J4" end="180" vehsPerHour="511.9205656730354" departLane="free"/>
  <flow id="JF380646" begin="120" fromJunction="J0" toJunction="J5" end="180" vehsPerHour="147.3984930501082" departLane="free"/>
  <flow id="JF380647" begin="120" fromJunction="J0" toJunction="J6" end="180" vehsPerHour="345.3046077571462" departLane="free"/>
  <flow id="JF380648" begin="120" fromJunction="J0" toJunction="J7" end="180" vehsPerHour="208.5505570567653" departLane="free"/>
  <flow id="JF380649" begin="120" fromJunction="J3" toJunction="J0" end="180" vehsPerHour="433.69887794586094" departLane="free"/>
  <flow id="JF380650" begin="120" fromJunction="J3" toJunction="J5" end="180" vehsPerHour="91.99654585956758" departLane="free"/>
  <flow id="JF380651" begin="120" fromJunction="J3" toJunction="J6" end="180" vehsPerHour="444.75373249391555" departLane="free"/>
  <flow id="JF380652" begin="120" fromJunction="J3" toJunction="J7" end="180" vehsPerHour="58.272741060152704" departLane="free"/>
  <flow id="JF380653" begin="120" fromJunction="J4" toJunction="J0" end="180" vehsPerHour="188.85319651416438" departLane="free"/>
  <flow id="JF380654" begin="120" fromJunction="J4" toJunction="J3" end="180" vehsPerHour="54.89472918933197" departLane="free"/>
  <flow id="JF380655" begin="120" fromJunction="J4" toJunction="J6" end="180" vehsPerHour="260.68776796773284" departLane="free"/>
  <flow id="JF380656" begin="120" fromJunction="J4" toJunction="J7" end="180" vehsPerHour="110.5193828285358" departLane="free"/>
  <flow id="JF380657" begin="120" fromJunction="J5" toJunction="J0" end="180" vehsPerHour="239.0628669166781" departLane="free"/>
  <flow id="JF380658" begin="120" fromJunction="J5" toJunction="J4" end="180" vehsPerHour="55.12242194295297" departLane="free"/>
  <flow id="JF380659" begin="120" fromJunction="J5" toJunction="J6" end="180" vehsPerHour="165.2162953206589" departLane="free"/>
  <flow id="JF380660" begin="120" fromJunction="J5" toJunction="J7" end="180" vehsPerHour="21.324878596483757" departLane="free"/>
  <flow id="JF380661" begin="120" fromJunction="J6" toJunction="J0" end="180" vehsPerHour="30.29098098914725" departLane="free"/>
  <flow id="JF380662" begin="120" fromJunction="J6" toJunction="J3" end="180" vehsPerHour="73.36971520760446" departLane="free"/>
  <flow id="JF380663" begin="120" fromJunction="J6" toJunction="J5" end="180" vehsPerHour="122.11890434290437" departLane="free"/>
  <flow id="JF380664" begin="120" fromJunction="J7" toJunction="J0" end="180" vehsPerHour="38.085195070276676" departLane="free"/>
  <flow id="JF380665" begin="120" fromJunction="J7" toJunction="J6" end="180" vehsPerHour="263.04236376265095" departLane="free"/>
  <flow id="JF380666" begin="180" fromJunction="J0" toJunction="J3" end="240" vehsPerHour="273.6489491031165" departLane="free"/>
  <flow id="JF380667" begin="180" fromJunction="J0" toJunction="J4" end="240" vehsPerHour="294.94697873106304" departLane="free"/>
  <flow id="JF380668" begin="180" fromJunction="J0" toJunction="J5" end="240" vehsPerHour="209.0193625797841" departLane="free"/>
  <flow id="JF380669" begin="180" fromJunction="J0" toJunction="J6" end="240" vehsPerHour="484.81180112967337" departLane="free"/>
  <flow id="JF380670" begin="180" fromJunction="J0" toJunction="J7" end="240" vehsPerHour="16.210311900870998" departLane="free"/>
  <flow id="JF380671" begin="180" fromJunction="J3" toJunction="J4" end="240" vehsPerHour="417.16198542856966" departLane="free"/>
  <flow id="JF380672" begin="180" fromJunction="J3" toJunction="J5" end="240" vehsPerHour="54.83420172250626" departLane="free"/>
  <flow id="JF380673" begin="180" fromJunction="J3" toJunction="J6" end="240" vehsPerHour="256.6737154296923" departLane="free"/>
  <flow id="JF380674" begin="180" fromJunction="J3" toJunction="J7" end="240" vehsPerHour="293.20164123042764" departLane="free"/>
  <flow id="JF380675" begin="180" fromJunction="J4" toJunction="J0" end="240" vehsPerHour="170.47079096072014" departLane="free"/>
  <flow id="JF380676" begin="180" fromJunction="J4" toJunction="J3" end="240" vehsPerHour="201.84262957965365" departLane="free"/>
  <flow id="JF380677" begin="180" fromJunction="J4" toJunction="J6" end="240" vehsPerHour="65.797853090909" departLane="free"/>
  <flow id="JF380678" begin="180" fromJunction="J4" toJunction="J7" end="240" vehsPerHour="9.82451196957352" departLane="free"/>
  <flow id="JF380679" begin="180" fromJunction="J5" toJunction="J0" end="240" vehsPerHour="130.44328497097942" departLane="free"/>
  <flow id="JF380680" begin="180" fromJunction="J5" toJunction="J4" end="240" vehsPerHour="132.611589964707" departLane="free"/>
  <flow id="JF380681" begin="180" fromJunction="J5" toJunction="J7" end="240" vehsPerHour="182.47846864217897" departLane="free"/>
  <flow id="JF380682" begin="180" fromJunction="J6" toJunction="J0" end="240" vehsPerHour="221.62672727880525" departLane="free"/>
  <flow id="JF380683" begin="180" fromJunction="J6" toJunction="J3" end="240" vehsPerHour="231.18742690362433" departLane="free"/>
  <flow id="JF380684" begin="180" fromJunction="J6" toJunction="J4" end="240" vehsPerHour="18.88661923827081" departLane="free"/>
  <flow id="JF380685" begin="180" fromJunction="J6" toJunction="J7" end="240" vehsPerHour="195.2889879251453" departLane="free"/>
  <flow id="JF380686" begin="180" fromJunction="J7" toJunction="J0" end="240" vehsPerHour="265.6130701505959" departLane="free"/>
  <flow id="JF380687" begin="180" fromJunction="J7" toJunction="J3" end="240" vehsPerHour="202.28178095196708" departLane="free"/>
  <flow id="JF380688" begin="240" fromJunction="J0" toJunction="J4" end="300" vehsPerHour="214.96304389003808" departLane="free"/>
  <flow id="JF380689" begin="240" fromJunction="J0" toJunction="J5" end="300" vehsPerHour="437.0503893986143" departLane="free"/>
  <flow id="JF380690" begin="240" fromJunction="J3" toJunction="J0" end="300" vehsPerHour="471.0179219150571" departLane="free"/>
  <flow id="JF380691" begin="240" fromJunction="J3" toJunction="J4" end="300" vehsPerHour="168.13051112548104" departLane="free"/>
  <flow id="JF380692" begin="240" fromJunction="J3" toJunction="J6" end="300" vehsPerHour="342.18386619929373" departLane="free"/>
  <flow id="JF380693" begin="240" fromJunction="J3" toJunction="J7" end="300" vehsPerHour="404.9219659606819" departLane="free"/>
  <flow id="JF380694" begin="240" fromJunction="J4" toJunction="J0" end="300" vehsPerHour="131.1538314284785" departLane="free"/>
  <flow id="JF380695" begin="240" fromJunction="J4" toJunction="J3" end="300" vehsPerHour="235.799815467846" departLane="free"/>
  <flow id="JF380696" begin="240" fromJunction="J4" toJunction="J7" end="300" vehsPerHour="9.870440666790564" departLane="free"/>
  <flow id="JF380697" begin="240" fromJunction="J5" toJunction="J0" end="300" vehsPerHour="48.71348579115535" departLane="free"/>
  <flow id="JF380698" begin="240" fromJunction="J5" toJunction="J3" end="300" vehsPerHour="4.633319261862552" departLane="free"/>
  <flow id="JF380699" begin="240" fromJunction="J5" toJunction="J4" end="300" vehsPerHour="182.82414467315965" departLane="free"/>
  <flow id="JF380700" begin="240" fromJunction="J5" toJunction="J6" end="300" vehsPerHour="193.2797815156241" departLane="free"/>
  <flow id="JF380701" begin="240" fromJunction="J6" toJunction="J0" end="300" vehsPerHour="107.00005733493965" departLane="free"/>
  <flow id="JF380702" begin="240" fromJunction="J6" toJunction="J3" end="300" vehsPerHour="18.24414558491822" departLane="free"/>
  <flow id="JF380703" begin="240" fromJunction="J6" toJunction="J4" end="300" vehsPerHour="178.95263145514966" departLane="free"/>
  <flow id="JF380704" begin="240" fromJunction="J6" toJunction="J5" end="300" vehsPerHour="264.2467081163163" departLane="free"/>
  <flow id="JF380705" begin="240" fromJunction="J6" toJunction="J7" end="300" vehsPerHour="231.16220194392702" departLane="free"/>
  <flow id="JF380706" begin="240" fromJunction="J7" toJunction="J0" end="300" vehsPerHour="273.81467246580155" departLane="free"/>
  <flow id="JF380707" begin="240" fromJunction="J7" toJunction="J4" end="300" vehsPerHour="97.26591982607603" departLane="free"/>
  <flow id="JF380708" begin="240" fromJunction="J7" toJunction="J5" end="300" vehsPerHour="122.81929912669713" departLane="free"/>
  <flow id="JF380709" begin="300" fromJunction="J0" toJunction="J3" end="360" vehsPerHour="172.45413052000714" departLane="free"/>
  <flow id="JF380710" begin="300" fromJunction="J0" toJunction="J4" end="360" vehsPerHour="32.75614545762917" departLane="free"/>
  <flow id="JF380711" begin="300" fromJunction="J0" toJunction="J5" end="360" vehsPerHour="431.129930611314" departLane="free"/>
  <flow id="JF380712" begin="300" fromJunction="J0" toJunction="J6" end="360" vehsPerHour="233.15419012391578" departLane="free"/>
  <flow id="JF380713" begin="300" fromJunction="J0" toJunction="J7" end="360" vehsPerHour="9.361317308811763" departLane="free"/>
  <flow id="JF380714" begin="300" fromJunction="J3" toJunction="J0" end="360" vehsPerHour="146.15304106293067" departLane="free"/>
  <flow id="JF380715" begin="300" fromJunction="J3" toJunction="J4" end="360" vehsPerHour="23.708782135843958" departLane="free"/>
  <flow id="JF380716" begin="300" fromJunction="J3" toJunction="J5" end="360" vehsPerHour="376.04164809038946" departLane="free"/>
  <flow id="JF380717" begin="300" fromJunction="J3" toJunction="J6" end="360" vehsPerHour="484.43442797545174" departLane="free"/>
  <flow id="JF380718" begin="300" fromJunction="J4" toJunction="J0" end="360" vehsPerHour="143.23803058818564" departLane="free"/>
  <flow id="JF380719" begin="300" fromJunction="J4" toJunction="J6" end="360" vehsPerHour="20.72722817430462" departLane="free"/>
  <flow id="JF380720" begin="300" fromJunction="J5" toJunction="J0" end="360" vehsPerHour="103.10855877094914" departLane="free"/>
  <flow id="JF380721" begin="300" fromJunction="J5" toJunction="J3" end="360" vehsPerHour="87.35560789532681" departLane="free"/>
  <flow id="JF380722" begin="300" fromJunction="J5" toJunction="J4" end="360" vehsPerHour="116.08391299291306" departLane="free"/>
  <flow id="JF380723" begin="300" fromJunction="J5" toJunction="J6" end="360" vehsPerHour="97.71490895606391" departLane="free"/>
  <flow id="JF380724" begin="300" fromJunction="J5" toJunction="J7" end="360" vehsPerHour="117.55440568765478" departLane="free"/>
  <flow id="JF380725" begin="300" fromJunction="J6" toJunction="J3" end="360" vehsPerHour="41.10865323854184" departLane="free"/>
  <flow id="JF380726" begin="300" fromJunction="J6" toJunction="J7" end="360" vehsPerHour="81.74176214395706" departLane="free"/>
  <flow id="JF380727" begin="300" fromJunction="J7" toJunction="J0" end="360" vehsPerHour="176.87513429370475" departLane="free"/>
  <flow id="JF380728" begin="300" fromJunction="J7" toJunction="J4" end="360" vehsPerHour="29.378344394045865" departLane="free"/>
  <flow id="JF380729" begin="300" fromJunction="J7" toJunction="J6" end="360" vehsPerHour="182.13803107074696" departLane="free"/>
  <flow id="JF380730" begin="360" fromJunction="J0" toJunction="J3" end="420" vehsPerHour="194.88196120509696" departLane="free"/>
  <flow id="JF380731" begin="360" fromJunction="J0" toJunction="J5" end="420" vehsPerHour="402.16635798815224" departLane="free"/>
  <flow id="JF380732" begin="360" fromJunction="J0" toJunction="J6" end="420" vehsPerHour="352.1208767883741" departLane="free"/>
  <flow id="JF380733" begin="360" fromJunction="J0" toJunction="J7" end="420" vehsPerHour="166.33592374861" departLane="free"/>
  <flow id="JF380734" begin="360" fromJunction="J3" toJunction="J0" end="420" vehsPerHour="233.74537328865185" departLane="free"/>
  <flow id="JF380735" begin="360" fromJunction="J3" toJunction="J4" end="420" vehsPerHour="156.96363157332004" departLane="free"/>
  <flow id="JF380736" begin="360" fromJunction="J3" toJunction="J5" end="420" vehsPerHour="334.4852934580886" departLane="free"/>
  <flow id="JF380737" begin="360" fromJunction="J3" toJunction="J7" end="420" vehsPerHour="251.12599768500309" departLane="free"/>
  <flow id="JF380738" begin="360" fromJunction="J4" toJunction="J0" end="420" vehsPerHour="110.83246945219719" departLane="free"/>
  <flow id="JF380739" begin="360" fromJunction="J4" toJunction="J3" end="420" vehsPerHour="87.46804039957784" departLane="free"/>
  <flow id="JF380740" begin="360" fromJunction="J4" toJunction="J5" end="420" vehsPerHour="10.25028427878794" departLane="free"/>
  <flow id="JF380741" begin="360" fromJunction="J4" toJunction="J7" end="420" vehsPerHour="134.95953013780726" departLane="free"/>
  <flow id="JF380742" begin="360" fromJunction="J5" toJunction="J0" end="420" vehsPerHour="98.07523122418323" departLane="free"/>
  <flow id="JF380743" begin="360" fromJunction="J5" toJunction="J3" end="420" vehsPerHour="88.99394434852576" departLane="free"/>
  <flow id="JF380744" begin="360" fromJunction="J5" toJunction="J4" end="420" vehsPerHour="11.244039110734025" departLane="free"/>
  <flow id="JF380745" begin="360" fromJunction="J5" toJunction="J7" end="420" vehsPerHour="231.61083298291524" departLane="free"/>
  <flow id="JF380746" begin="360" fromJunction="J6" toJunction="J0" end="420" vehsPerHour="245.39130514149372" departLane="free"/>
  <flow id="JF380747" begin="360" fromJunction="J6" toJunction="J3" end="420" vehsPerHour="53.01594609529056" departLane="free"/>
  <flow id="JF380748" begin="360" fromJunction="J6" toJunction="J4" end="420" vehsPerHour="4.293313833513749" departLane="free"/>
  <flow id="JF380749" begin="360" fromJunction="J6" toJunction="J5" end="420" vehsPerHour="30.32286403504857" departLane="free"/>
  <flow id="JF380750" begin="360" fromJunction="J7" toJunction="J0" end="420" vehsPerHour="95.57769808590629" departLane="free"/>
  <flow id="JF380751" begin="360" fromJunction="J7" toJunction="J5" end="420" vehsPerHour="111.9459055829144" departLane="free"/>
  <flow id="JF380752" begin="360" fromJunction="J7" toJunction="J6" end="420" vehsPerHour="214.88314947810312" departLane="free"/>
  <flow id="JF380753" begin="420" fromJunction="J0" toJunction="J3" end="480" vehsPerHour="30.351912768257403" departLane="free"/>
  <flow id="JF380754" begin="420" fromJunction="J0" toJunction="J4" end="480" vehsPerHour="127.66400418691296" departLane="free"/>
  <flow id="JF380755" begin="420" fromJunction="J0" toJunction="J5" end="480" vehsPerHour="133.61955235092478" departLane="free"/>
  <flow id="JF380756" begin="420" fromJunction="J0" toJunction="J6" end="480" vehsPerHour="526.1388194074483" departLane="free"/>
  <flow id="JF380757" begin="420" fromJunction="J3" toJunction="J0" end="480" vehsPerHour="193.6147716889598" departLane="free"/>
  <flow id="JF380758" begin="420" fromJunction="J3" toJunction="J4" end="480" vehsPerHour="339.45458825685193" departLane="free"/>
  <flow id="JF380759" begin="420" fromJunction="J3" toJunction="J6" end="480" vehsPerHour="160.64718880503787" departLane="free"/>
  <flow id="JF380760" begin="420" fromJunction="J3" toJunction="J7" end="480" vehsPerHour="121.95068243545236" departLane="free"/>
  <flow id="JF380761" begin="420" fromJunction="J4" toJunction="J0" end="480" vehsPerHour="131.45743721747567" departLane="free"/>
  <flow id="JF380762" begin="420" fromJunction="J4" toJunction="J3" end="480" vehsPerHour="239.30933905715398" departLane="free"/>
  <flow id="JF380763" begin="420" fromJunction="J4" toJunction="J5" end="480" vehsPerHour="163.58336144383614" departLane="free"/>
  <flow id="JF380764" begin="420" fromJunction="J4" toJunction="J6" end="480" vehsPerHour="91.64357201259428" departLane="free"/>
  <flow id="JF380765" begin="420" fromJunction="J4" toJunction="J7" end="480" vehsPerHour="184.46325512054278" departLane="free"/>
  <flow id="JF380766" begin="420" fromJunction="J5" toJunction="J3" end="480" vehsPerHour="253.2684184612387" departLane="free"/>
  <flow id="JF380767" begin="420" fromJunction="J5" toJunction="J4" end="480" vehsPerHour="131.14653783320125" departLane="free"/>
  <flow id="JF380768" begin="420" fromJunction="J5" toJunction="J6" end="480" vehsPerHour="88.73070450283029" departLane="free"/>
  <flow id="JF380769" begin="420" fromJunction="J5" toJunction="J7" end="480" vehsPerHour="11.91303819723379" departLane="free"/>
  <flow id="JF380770" begin="420" fromJunction="J6" toJunction="J0" end="480" vehsPerHour="230.51405017403164" departLane="free"/>
  <flow id="JF380771" begin="420" fromJunction="J6" toJunction="J3" end="480" vehsPerHour="20.695731416783378" departLane="free"/>
  <flow id="JF380772" begin="420" fromJunction="J6" toJunction="J4" end="480" vehsPerHour="274.725238237403" departLane="free"/>
  <flow id="JF380773" begin="420" fromJunction="J6" toJunction="J5" end="480" vehsPerHour="120.57667655861566" departLane="free"/>
  <flow id="JF380774" begin="420" fromJunction="J6" toJunction="J7" end="480" vehsPerHour="87.5096656263808" departLane="free"/>
  <flow id="JF380775" begin="420" fromJunction="J7" toJunction="J0" end="480" vehsPerHour="20.292464734787632" departLane="free"/>
  <flow id="JF380776" begin="420" fromJunction="J7" toJunction="J3" end="480" vehsPerHour="66.56862350360367" departLane="free"/>
  <flow id="JF380777" begin="420" fromJunction="J7" toJunction="J4" end="480" vehsPerHour="220.41261578346857" departLane="free"/>
  <flow id="JF380778" begin="480" fromJunction="J0" toJunction="J4" end="540" vehsPerHour="176.16082713495197" departLane="free"/>
  <flow id="JF380779" begin="480" fromJunction="J0" toJunction="J5" end="540" vehsPerHour="438.52811145394776" departLane="free"/>
  <flow id="JF380780" begin="480" fromJunction="J0" toJunction="J6" end="540" vehsPerHour="281.47505550032776" departLane="free"/>
  <flow id="JF380781" begin="480" fromJunction="J0" toJunction="J7" end="540" vehsPerHour="101.6119129366529" departLane="free"/>
  <flow id="JF380782" begin="480" fromJunction="J3" toJunction="J0" end="540" vehsPerHour="223.54012933096652" departLane="free"/>
  <flow id="JF380783" begin="480" fromJunction="J3" toJunction="J4" end="540" vehsPerHour="517.6481295848242" departLane="free"/>
  <flow id="JF380784" begin="480" fromJunction="J3" toJunction="J6" end="540" vehsPerHour="421.7232953014796" departLane="free"/>
  <flow id="JF380785" begin="480" fromJunction="J3" toJunction="J7" end="540" vehsPerHour="345.2780298776426" departLane="free"/>
  <flow id="JF380786" begin="480" fromJunction="J4" toJunction="J0" end="540" vehsPerHour="155.8403939641423" departLane="free"/>
  <flow id="JF380787" begin="480" fromJunction="J4" toJunction="J3" end="540" vehsPerHour="53.10802551157167" departLane="free"/>
  <flow id="JF380788" begin="480" fromJunction="J4" toJunction="J5" end="540" vehsPerHour="263.55680200091484" departLane="free"/>
  <flow id="JF380789" begin="480" fromJunction="J4" toJunction="J6" end="540" vehsPerHour="203.15594064026192" departLane="free"/>
  <flow id="JF380790" begin="480" fromJunction="J4" toJunction="J7" end="540" vehsPerHour="260.0107959188139" departLane="free"/>
  <flow id="JF380791" begin="480" fromJunction="J5" toJunction="J0" end="540" vehsPerHour="107.01847523859134" departLane="free"/>
  <flow id="JF380792" begin="480" fromJunction="J5" toJunction="J6" end="540" vehsPerHour="80.193775146374" departLane="free"/>
  <flow id="JF380793" begin="480" fromJunction="J5" toJunction="J7" end="540" vehsPerHour="261.728829044681" departLane="free"/>
  <flow id="JF380794" begin="480" fromJunction="J6" toJunction="J0" end="540" vehsPerHour="34.22892407366341" departLane="free"/>
  <flow id="JF380795" begin="480" fromJunction="J6" toJunction="J3" end="540" vehsPerHour="129.80648489120622" departLane="free"/>
  <flow id="JF380796" begin="480" fromJunction="J6" toJunction="J5" end="540" vehsPerHour="210.91043271042503" departLane="free"/>
  <flow id="JF380797" begin="480" fromJunction="J6" toJunction="J7" end="540" vehsPerHour="190.01219276517966" departLane="free"/>
  <flow id="JF380798" begin="480" fromJunction="J7" toJunction="J0" end="540" vehsPerHour="269.08716100516784" departLane="free"/>
  <flow id="JF380799" begin="480" fromJunction="J7" toJunction="J3" end="540" vehsPerHour="95.12705458614798" departLane="free"/>
  <flow id="JF380800" begin="480" fromJunction="J7" toJunction="J4" end="540" vehsPerHour="36.84700853427108" departLane="free"/>
  <flow id="JF380801" begin="480" fromJunction="J7" toJunction="J5" end="540" vehsPerHour="46.09682060177896" departLane="free"/>
  <flow id="JF380802" begin="480" fromJunction="J7" toJunction="J6" end="540" vehsPerHour="76.74582162245967" departLane="free"/>
  <flow id="JF380803" begin="540" fromJunction="J0" toJunction="J3" end="600" vehsPerHour="46.998954813401724" departLane="free"/>
  <flow id="JF380804" begin="540" fromJunction="J0" toJunction="J4" end="600" vehsPerHour="236.59456031729394" departLane="free"/>
  <flow id="JF380805" begin="540" fromJunction="J0" toJunction="J5" end="600" vehsPerHour="227.2788953442798" departLane="free"/>
  <flow id="JF380806" begin="540" fromJunction="J0" toJunction="J6" end="600" vehsPerHour="360.1851152617503" departLane="free"/>
  <flow id="JF380807" begin="540" fromJunction="J0" toJunction="J7" end="600" vehsPerHour="298.81837441246745" departLane="free"/>
  <flow id="JF380808" begin="540" fromJunction="J3" toJunction="J0" end="600" vehsPerHour="118.42090454909959" departLane="free"/>
  <flow id="JF380809" begin="540" fromJunction="J3" toJunction="J6" end="600" vehsPerHour="517.9573445554092" departLane="free"/>
  <flow id="JF380810" begin="540" fromJunction="J3" toJunction="J7" end="600" vehsPerHour="23.274995179793248" departLane="free"/>
  <flow id="JF380811" begin="540" fromJunction="J4" toJunction="J0" end="600" vehsPerHour="87.09065333346462" departLane="free"/>
  <flow id="JF380812" begin="540" fromJunction="J4" toJunction="J5" end="600" vehsPerHour="213.1983188913002" departLane="free"/>
  <flow id="JF380813" begin="540" fromJunction="J4" toJunction="J6" end="600" vehsPerHour="170.64222839795994" departLane="free"/>
  <flow id="JF380814" begin="540" fromJunction="J4" toJunction="J7" end="600" vehsPerHour="143.1124701182313" departLane="free"/>
  <flow id="JF380815" begin="540" fromJunction="J5" toJunction="J0" end="600" vehsPerHour="1.3070567823304637" departLane="free"/>
  <flow id="JF380816" begin="540" fromJunction="J5" toJunction="J3" end="600" vehsPerHour="220.96924400668513" departLane="free"/>
  <flow id="JF380817" begin="540" fromJunction="J5" toJunction="J7" end="600" vehsPerHour="257.953041965584" departLane="free"/>
  <flow id="JF380818" begin="540" fromJunction="J6" toJunction="J0" end="600" vehsPerHour="222.09769771728568" departLane="free"/>
  <flow id="JF380819" begin="540" fromJunction="J6" toJunction="J3" end="600" vehsPerHour="210.1842274147315" departLane="free"/>
  <flow id="JF380820" begin="540" fromJunction="J6" toJunction="J5" end="600" vehsPerHour="236.7624247239002" departLane="free"/>
  <flow id="JF380821" begin="540" fromJunction="J6" toJunction="J7" end="600" vehsPerHour="111.52098486058769" departLane="free"/>
  <flow id="JF380822" begin="540" fromJunction="J7" toJunction="J3" end="600" vehsPerHour="92.62572235672879" departLane="free"/>
  <flow id="JF380823" begin="540" fromJunction="J7" toJunction="J4" end="600" vehsPerHour="168.15463881124117" departLane="free"/>
  <flow id="JF380824" begin="540" fromJunction="J7" toJunction="J6" end="600" vehsPerHour="182.17699818333924" departLane="free"/>
  <flow id="JF380825" begin="600" fromJunction="J0" toJunction="J3" end="660" vehsPerHour="219.5355597395641" departLane="free"/>
  <flow id="JF380826" begin="600" fromJunction="J0" toJunction="J4" end="660" vehsPerHour="518.6549293916547" departLane="free"/>
  <flow id="JF380827" begin="600" fromJunction="J0" toJunction="J6" end="660" vehsPerHour="151.05283591662953" departLane="free"/>
  <flow id="JF380828" begin="600" fromJunction="J0" toJunction="J7" end="660" vehsPerHour="161.8575593847727" departLane="free"/>