<?xml version="1.0" encoding="UTF-8"?>
<routes xmlns:xsi="http://www.w3.org/2001/XMLSchema-instance" xsi:noNamespaceSchemaLocation="http://sumo.dlr.de/xsd/routes_file.xsd">
  <flow id="JF375270" begin="0" fromJunction="J0" toJunction="J3" end="60" vehsPerHour="428.99819184337883" departLane="free"/>
  <flow id="JF375271" begin="0" fromJunction="J0" toJunction="J5" end="60" vehsPerHour="165.13624165834912" departLane="free"/>
  <flow id="JF375272" begin="0" fromJunction="J3" toJunction="J7" end="60" vehsPerHour="360.04738023817225" departLane="free"/>
  <flow id="JF375273" begin="0" fromJunction="J5" toJunction="J0" end="60" vehsPerHour="131.39210527403569" departLane="free"/>
  <flow id="JF375274" begin="0" fromJunction="J5" toJunction="J3" end="60" vehsPerHour="14.452492594358118" departLane="free"/>
  <flow id="JF375275" begin="0" fromJunction="J5" toJunction="J4" end="60" vehsPerHour="32.417105529832234" departLane="free"/>
  <flow id="JF375276" begin="0" fromJunction="J5" toJunction="J6" end="60" vehsPerHour="58.61888602462681" departLane="free"/>
  <flow id="JF375277" begin="0" fromJunction="J5" toJunction="J7" end="60" vehsPerHour="90.58322819519834" departLane="free"/>
  <flow id="JF375278" begin="0" fromJunction="J6" toJunction="J0" end="60" vehsPerHour="91.3376021128849" departLane="free"/>
  <flow id="JF375279" begin="0" fromJunction="J6" toJunction="J3" end="60" vehsPerHour="11.812955443533872" departLane="free"/>
  <flow id="JF375280" begin="0" fromJunction="J6" toJunction="J4" end="60" vehsPerHour="73.27039654025401" departLane="free"/>
  <flow id="JF375281" begin="0" fromJunction="J6" toJunction="J7" end="60" vehsPerHour="59.794796831488235" departLane="free"/>
  <flow id="JF375282" begin="0" fromJunction="J7" toJunction="J0" end="60" vehsPerHour="189.25577731019206" departLane="free"/>
  <flow id="JF375283" begin="0" fromJunction="J7" toJunction="J4" end="60" vehsPerHour="65.38881206862257" departLane="free"/>
  <flow id="JF375284" begin="0" fromJunction="J7" toJunction="J5" end="60" vehsPerHour="59.75367673618352" departLane="free"/>
  <flow id="JF375285" begin="0" fromJunction="J7" toJunction="J6" end="60" vehsPerHour="80.33186118942804" departLane="free"/>
  <flow id="JF375286" begin="60" fromJunction="J0" toJunction="J5" end="120" vehsPerHour="13.167764852967753" departLane="free"/>
  <flow id="JF375287" begin="60" fromJunction="J3" toJunction="J0" end="120" vehsPerHour="475.2183208027066" departLane="free"/>
  <flow id="JF375288" begin="60" fromJunction="J3" toJunction="J6" end="120" vehsPerHour="283.57045474559254" departLane="free"/>
  <flow id="JF375289" begin="60" fromJunction="J4" toJunction="J0" end="120" vehsPerHour="100.93844756186401" departLane="free"/>
  <flow id="JF375290" begin="60" fromJunction="J4" toJunction="J3" end="120" vehsPerHour="187.2720431269051" departLane="free"/>
  <flow id="JF375291" begin="60" fromJunction="J4" toJunction="J5" end="120" vehsPerHour="100.22661423180375" departLane="free"/>
  <flow id="JF375292" begin="60" fromJunction="J4" toJunction="J7" end="120" vehsPerHour="265.9249356491445" departLane="free"/>
  <flow id="JF375293" begin="60" fromJunction="J5" toJunction="J0" end="120" vehsPerHour="123.00530929441769" departLane="free"/>
  <flow id="JF375294" begin="60" fromJunction="J5" toJunction="J3" end="120" vehsPerHour="238.08201632808223" departLane="free"/>
  <flow id="JF375295" begin="60" fromJunction="J5" toJunction="J4" end="120" vehsPerHour="88.84725768950726" departLane="free"/>
  <flow id="JF375296" begin="60" fromJunction="J5" toJunction="J6" end="120" vehsPerHour="266.1698236604152" departLane="free"/>
  <flow id="JF375297" begin="60" fromJunction="J5" toJunction="J7" end="120" vehsPerHour="152.91043691597432" departLane="free"/>
  <flow id="JF375298" begin="60" fromJunction="J6" toJunction="J0" end="120" vehsPerHour="257.26720238560574" departLane="free"/>
  <flow id="JF375299" begin="60" fromJunction="J6" toJunction="J3" end="120" vehsPerHour="107.33606383012064" departLane="free"/>
  <flow id="JF375300" begin="60" fromJunction="J6" toJunction="J4" end="120" vehsPerHour="78.97779092208464" departLane="free"/>
  <flow id="JF375301" begin="60" fromJunction="J6" toJunction="J5" end="120" vehsPerHour="17.583791840582563" departLane="free"/>
  <flow id="JF375302" begin="60" fromJunction="J7" toJunction="J3" end="120" vehsPerHour="28.140397974472705" departLane="free"/>
  <flow id="JF375303" begin="60" fromJunction="J7" toJunction="J4" end="120" vehsPerHour="115.11777655222569" departLane="free"/>
  <flow id="JF375304" begin="60" fromJunction="J7" toJunction="J6" end="120" vehsPerHour="187.6611989398124" departLane="free"/>
  <flow id="JF375305" begin="120" fromJunction="J0" toJunction="J3" end="180" vehsPerHour="528.0792740124496" departLane="free"/>
  <flow id="JF375306" begin="120" fromJunction="J0" toJunction="J4" end="180" vehsPerHour="103.52638354801476" departLane="free"/>
  <flow id="JF375307" begin="120" fromJunction="J0" toJunction="J5" end="180" vehsPerHour="280.0424948882431" departLane="free"/>
  <flow id="JF375308" begin="120" fromJunction="J0" toJunction="J6" end="180" vehsPerHour="264.1069559027621" departLane="free"/>
  <flow id="JF375309" begin="120" fromJunction="J0" toJunction="J7" end="180" vehsPerHour="327.533131664497" departLane="free"/>
  <flow id="JF375310" begin="120" fromJunction="J3" toJunction="J0" end="180" vehsPerHour="282.64832696411594" departLane="free"/>
  <flow id="JF375311" begin="120" fromJunction="J3" toJunction="J4" end="180" vehsPerHour="295.48068260337965" departLane="free"/>
  <flow id="JF375312" begin="120" fromJunction="J3" toJunction="J5" end="180" vehsPerHour="456.0359350306765" departLane="free"/>
  <flow id="JF375313" begin="120" fromJunction="J3" toJunction="J6" end="180" vehsPerHour="13.806891047769474" departLane="free"/>
  <flow id="JF375314" begin="120" fromJunction="J4" toJunction="J3" end="180" vehsPerHour="18.30110599352848" departLane="free"/>
  <flow id="JF375315" begin="120" fromJunction="J4" toJunction="J5" end="180" vehsPerHour="160.77913731350102" departLane="free"/>
  <flow id="JF375316" begin="120" fromJunction="J4" toJunction="J6" end="180" vehsPerHour="252.7333817965551" departLane="free"/>
  <flow id="JF375317" begin="120" fromJunction="J5" toJunction="J0" end="180" vehsPerHour="50.47395006343769" departLane="free"/>
  <flow id="JF375318" begin="120" fromJunction="J5" toJunction="J3" end="180" vehsPerHour="143.85979819395908" departLane="free"/>
  <flow id="JF375319" begin="120" fromJunction="J5" toJunction="J4" end="180" vehsPerHour="43.297708141762" departLane="free"/>
  <flow id="JF375320" begin="120" fromJunction="J5" toJunction="J6" end="180" vehsPerHour="150.2593950865568" departLane="free"/>
  <flow id="JF375321" begin="120" fromJunction="J5" toJunction="J7" end="180" vehsPerHour="186.85691296566526" departLane="free"/>
  <flow id="JF375322" begin="120" fromJunction="J6" toJunction="J0" end="180" vehsPerHour="182.99494279288245" departLane="free"/>
  <flow id="JF375323" begin="120" fromJunction="J6" toJunction="J3" end="180" vehsPerHour="232.69953667920566" departLane="free"/>
  <flow id="JF375324" begin="120" fromJunction="J6" toJunction="J5" end="180" vehsPerHour="32.51386969331103" departLane="free"/>
  <flow id="JF375325" begin="120" fromJunction="J6" toJunction="J7" end="180" vehsPerHour="144.70357781468599" departLane="free"/>
  <flow id="JF375326" begin="120" fromJunction="J7" toJunction="J4" end="180" vehsPerHour="90.22555702610674" departLane="free"/>
  <flow id="JF375327" begin="120" fromJunction="J7" toJunction="J5" end="180" vehsPerHour="47.96209768644649" departLane="free"/>
  <flow id="JF375328" begin="120" fromJunction="J7" toJunction="J6" end="180" vehsPerHour="89.50157428016546" departLane="free"/>
  <flow id="JF375329" begin="180" fromJunction="J0" toJunction="J3" end="240" vehsPerHour="141.77574918725983" departLane="free"/>
  <flow id="JF375330" begin="180" fromJunction="J0" toJunction="J4" end="240" vehsPerHour="81.05916232039002" departLane="free"/>
  <flow id="JF375331" begin="180" fromJunction="J0" toJunction="J6" end="240" vehsPerHour="519.6367997869312" departLane="free"/>
  <flow id="JF375332" begin="180" fromJunction="J0" toJunction="J7" end="240" vehsPerHour="142.58964164186492" departLane="free"/>
  <flow id="JF375333" begin="180" fromJunction="J3" toJunction="J0" end="240" vehsPerHour="41.206760402029275" departLane="free"/>
  <flow id="JF375334" begin="180" fromJunction="J3" toJunction="J4" end="240" vehsPerHour="347.2848190809702" departLane="free"/>
  <flow id="JF375335" begin="180" fromJunction="J3" toJunction="J5" end="240" vehsPerHour="193.3373861182908" departLane="free"/>
  <flow id="JF375336" begin="180" fromJunction="J3" toJunction="J6" end="240" vehsPerHour="471.58162195578393" departLane="free"/>
  <flow id="JF375337" begin="180" fromJunction="J4" toJunction="J0" end="240" vehsPerHour="99.81925785240718" departLane="free"/>
  <flow id="JF375338" begin="180" fromJunction="J4" toJunction="J3" end="240" vehsPerHour="161.7540760669807" departLane="free"/>
  <flow id="JF375339" begin="180" fromJunction="J4" toJunction="J7" end="240" vehsPerHour="147.36385394184177" departLane="free"/>
  <flow id="JF375340" begin="180" fromJunction="J5" toJunction="J0" end="240" vehsPerHour="60.90091156991522" departLane="free"/>
  <flow id="JF375341" begin="180" fromJunction="J5" toJunction="J6" end="240" vehsPerHour="257.08937449098295" departLane="free"/>
  <flow id="JF375342" begin="180" fromJunction="J5" toJunction="J7" end="240" vehsPerHour="167.69621492758205" departLane="free"/>
  <flow id="JF375343" begin="180" fromJunction="J6" toJunction="J0" end="240" vehsPerHour="95.48603173187252" departLane="free"/>
  <flow id="JF375344" begin="180" fromJunction="J6" toJunction="J3" end="240" vehsPerHour="243.2661171573579" departLane="free"/>
  <flow id="JF375345" begin="180" fromJunction="J6" toJunction="J4" end="240" vehsPerHour="95.20467427556373" departLane="free"/>
  <flow id="JF375346" begin="180" fromJunction="J6" toJunction="J5" end="240" vehsPerHour="67.36708182992975" departLane="free"/>
  <flow id="JF375347" begin="180" fromJunction="J6" toJunction="J7" end="240" vehsPerHour="272.74979432127174" departLane="free"/>
  <flow id="JF375348" begin="180" fromJunction="J7" toJunction="J0" end="240" vehsPerHour="26.172846493507983" departLane="free"/>
  <flow id="JF375349" begin="180" fromJunction="J7" toJunction="J3" end="240" vehsPerHour="77.6768832026158" departLane="free"/>
  <flow id="JF375350" begin="180" fromJunction="J7" toJunction="J4" end="240" vehsPerHour="51.03214436113839" departLane="free"/>
  <flow id="JF375351" begin="180" fromJunction="J7" toJunction="J5" end="240" vehsPerHour="72.15122299236023" departLane="free"/>
  <flow id="JF375352" begin="180" fromJunction="J7" toJunction="J6" end="240" vehsPerHour="92.64978095076255" departLane="free"/>
  <flow id="JF375353" begin="240" fromJunction="J0" toJunction="J3" end="300" vehsPerHour="170.7447889377896" departLane="free"/>
  <flow id="JF375354" begin="240" fromJunction="J0" toJunction="J4" end="300" vehsPerHour="192.13706428480324" departLane="free"/>
  <flow id="JF375355" begin="240" fromJunction="J0" toJunction="J5" end="300" vehsPerHour="248.9557867989028" departLane="free"/>
  <flow id="JF375356" begin="240" fromJunction="J0" toJunction="J7" end="300" vehsPerHour="429.60143551778094" departLane="free"/>
  <flow id="JF375357" begin="240" fromJunction="J3" toJunction="J0" end="300" vehsPerHour="501.2746847440515" departLane="free"/>
  <flow id="JF375358" begin="240" fromJunction="J3" toJunction="J7" end="300" vehsPerHour="191.9439433677168" departLane="free"/>
  <flow id="JF375359" begin="240" fromJunction="J4" toJunction="J0" end="300" vehsPerHour="151.7725835922157" departLane="free"/>
  <flow id="JF375360" begin="240" fromJunction="J4" toJunction="J6" end="300" vehsPerHour="137.6624890364735" departLane="free"/>
  <flow id="JF375361" begin="240" fromJunction="J4" toJunction="J7" end="300" vehsPerHour="236.51412785266487" departLane="free"/>
  <flow id="JF375362" begin="240" fromJunction="J5" toJunction="J3" end="300" vehsPerHour="136.67023435103445" departLane="free"/>
  <flow id="JF375363" begin="240" fromJunction="J5" toJunction="J4" end="300" vehsPerHour="99.4941899046241" departLane="free"/>
  <flow id="JF375364" begin="240" fromJunction="J5" toJunction="J6" end="300" vehsPerHour="213.89743926640696" departLane="free"/>
  <flow id="JF375365" begin="240" fromJunction="J5" toJunction="J7" end="300" vehsPerHour="265.0654140236962" departLane="free"/>
  <flow id="JF375366" begin="240" fromJunction="J6" toJunction="J4" end="300" vehsPerHour="210.8118168015769" departLane="free"/>
  <flow id="JF375367" begin="240" fromJunction="J6" toJunction="J5" end="300" vehsPerHour="93.94899876450037" departLane="free"/>
  <flow id="JF375368" begin="240" fromJunction="J6" toJunction="J7" end="300" vehsPerHour="41.24143248051158" departLane="free"/>
  <flow id="JF375369" begin="240" fromJunction="J7" toJunction="J3" end="300" vehsPerHour="158.58734647106584" departLane="free"/>
  <flow id="JF375370" begin="240" fromJunction="J7" toJunction="J4" end="300" vehsPerHour="154.9084172101784" departLane="free"/>
  <flow id="JF375371" begin="240" fromJunction="J7" toJunction="J5" end="300" vehsPerHour="265.5894796571677" departLane="free"/>
  <flow id="JF375372" begin="300" fromJunction="J0" toJunction="J3" end="360" vehsPerHour="97.46439298366181" departLane="free"/>
  <flow id="JF375373" begin="300" fromJunction="J0" toJunction="J6" end="360" vehsPerHour="490.775696768684" departLane="free"/>
  <flow id="JF375374" begin="300" fromJunction="J3" toJunction="J0" end="360" vehsPerHour="473.4888221005505" departLane="free"/>
  <flow id="JF375375" begin="300" fromJunction="J3" toJunction="J5" end="360" vehsPerHour="415.7889100676355" departLane="free"/>
  <flow id="JF375376" begin="300" fromJunction="J3" toJunction="J6" end="360" vehsPerHour="388.93246778909474" departLane="free"/>
  <flow id="JF375377" begin="300" fromJunction="J3" toJunction="J7" end="360" vehsPerHour="185.52683462158404" departLane="free"/>
  <flow id="JF375378" begin="300" fromJunction="J4" toJunction="J3" end="360" vehsPerHour="125.55265811024849" departLane="free"/>
  <flow id="JF375379" begin="300" fromJunction="J4" toJunction="J7" end="360" vehsPerHour="238.20157504420538" departLane="free"/>
  <flow id="JF375380" begin="300" fromJunction="J5" toJunction="J0" end="360" vehsPerHour="122.21345173533746" departLane="free"/>
  <flow id="JF375381" begin="300" fromJunction="J5" toJunction="J3" end="360" vehsPerHour="7.171919098253187" departLane="free"/>
  <flow id="JF375382" begin="300" fromJunction="J5" toJunction="J4" end="360" vehsPerHour="168.98540832591232" departLane="free"/>
  <flow id="JF375383" begin="300" fromJunction="J5" toJunction="J6" end="360" vehsPerHour="111.3158998975648" departLane="free"/>
  <flow id="JF375384" begin="300" fromJunction="J5" toJunction="J7" end="360" vehsPerHour="173.74537247578775" departLane="free"/>
  <flow id="JF375385" begin="300" fromJunction="J6" toJunction="J3" end="360" vehsPerHour="57.98279800987774" departLane="free"/>
  <flow id="JF375386" begin="300" fromJunction="J6" toJunction="J4" end="360" vehsPerHour="104.28371617527817" departLane="free"/>
  <flow id="JF375387" begin="300" fromJunction="J6" toJunction="J5" end="360" vehsPerHour="254.33112424907077" departLane="free"/>
  <flow id="JF375388" begin="300" fromJunction="J6" toJunction="J7" end="360" vehsPerHour="49.35780388691148" departLane="free"/>
  <flow id="JF375389" begin="300" fromJunction="J7" toJunction="J0" end="360" vehsPerHour="69.06245174743215" departLane="free"/>
  <flow id="JF375390" begin="300" fromJunction="J7" toJunction="J3" end="360" vehsPerHour="29.929759492269884" departLane="free"/>
  <flow id="JF375391" begin="300" fromJunction="J7" toJunction="J4" end="360" vehsPerHour="160.2302361077331" departLane="free"/>
  <flow id="JF375392" begin="300" fromJunction="J7" toJunction="J5" end="360" vehsPerHour="258.5128634856414" departLane="free"/>
  <flow id="JF375393" begin="360" fromJunction="J0" toJunction="J3" end="420" vehsPerHour="17.357569856937772" departLane="free"/>
  <flow id="JF375394" begin="360" fromJunction="J0" toJunction="J4" end="420" vehsPerHour="299.12544345584155" departLane="free"/>
  <flow id="JF375395" begin="360" fromJunction="J0" toJunction="J6" end="420" vehsPerHour="181.13825367647493" departLane="free"/>
  <flow id="JF375396" begin="360" fromJunction="J0" toJunction="J7" end="420" vehsPerHour="278.11660297976994" departLane="free"/>
  <flow id="JF375397" begin="360" fromJunction="J3" toJunction="J6" end="420" vehsPerHour="174.1265356842593" departLane="free"/>
  <flow id="JF375398" begin="360" fromJunction="J4" toJunction="J0" end="420" vehsPerHour="8.42458210943939" departLane="free"/>
  <flow id="JF375399" begin="360" fromJunction="J4" toJunction="J6" end="420" vehsPerHour="26.300700628875465" departLane="free"/>
  <flow id="JF375400" begin="360" fromJunction="J4" toJunction="J7" end="420" vehsPerHour="191.75155034179988" departLane="free"/>
  <flow id="JF375401" begin="360" fromJunction="J5" toJunction="J3" end="420" vehsPerHour="33.371582492408294" departLane="free"/>
  <flow id="JF375402" begin="360" fromJunction="J5" toJunction="J4" end="420" vehsPerHour="258.05858503472143" departLane="free"/>
  <flow id="JF375403" begin="360" fromJunction="J5" toJunction="J6" end="420" vehsPerHour="111.93717572545" departLane="free"/>
  <flow id="JF375404" begin="360" fromJunction="J5" toJunction="J7" end="420" vehsPerHour="59.414948481742265" departLane="free"/>
  <flow id="JF375405" begin="360" fromJunction="J6" toJunction="J3" end="420" vehsPerHour="220.9767058727793" departLane="free"/>
  <flow id="JF375406" begin="360" fromJunction="J6" toJunction="J4" end="420" vehsPerHour="229.80853651235782" departLane="free"/>
  <flow id="JF375407" begin="360" fromJunction="J6" toJunction="J7" end="420" vehsPerHour="224.98933049725332" departLane="free"/>
  <flow id="JF375408" begin="360" fromJunction="J7" toJunction="J0" end="420" vehsPerHour="157.4333074547715" departLane="free"/>
  <flow id="JF375409" begin="360" fromJunction="J7" toJunction="J4" end="420" vehsPerHour="150.75037329670698" departLane="free"/>
  <flow id="JF375410" begin="360" fromJunction="J7" toJunction="J5" end="420" vehsPerHour="3.7643717840317117" departLane="free"/>
  <flow id="JF375411" begin="420" fromJunction="J0" toJunction="J3" end="480" vehsPerHour="490.97710622102744" departLane="free"/>
  <flow id="JF375412" begin="420" fromJunction="J0" toJunction="J4" end="480" vehsPerHour="74.44313490366416" departLane="free"/>
  <flow id="JF375413" begin="420" fromJunction="J0" toJunction="J6" end="480" vehsPerHour="101.88256646298308" departLane="free"/>
  <flow id="JF375414" begin="420" fromJunction="J3" toJunction="J0" end="480" vehsPerHour="97.47485564245584" departLane="free"/>
  <flow id="JF375415" begin="420" fromJunction="J3" toJunction="J4" end="480" vehsPerHour="381.1588468246692" departLane="free"/>
  <flow id="JF375416" begin="420" fromJunction="J3" toJunction="J5" end="480" vehsPerHour="376.3128101336212" departLane="free"/>
  <flow id="JF375417" begin="420" fromJunction="J3" toJunction="J6" end="480" vehsPerHour="307.68713348583583" departLane="free"/>
  <flow id="JF375418" begin="420" fromJunction="J3" toJunction="J7" end="480" vehsPerHour="355.5826280573328" departLane="free"/>
  <flow id="JF375419" begin="420" fromJunction="J4" toJunction="J6" end="480" vehsPerHour="21.08145202479811" departLane="free"/>
  <flow id="JF375420" begin="420" fromJunction="J5" toJunction="J0" end="480" vehsPerHour="187.80010730017221" departLane="free"/>
  <flow id="JF375421" begin="420" fromJunction="J5" toJunction="J4" end="480" vehsPerHour="215.55420977997073" departLane="free"/>
  <flow id="JF375422" begin="420" fromJunction="J5" toJunction="J7" end="480" vehsPerHour="254.852771683048" departLane="free"/>
  <flow id="JF375423" begin="420" fromJunction="J6" toJunction="J0" end="480" vehsPerHour="152.97942023447115" departLane="free"/>
  <flow id="JF375424" begin="420" fromJunction="J6" toJunction="J3" end="480" vehsPerHour="155.8837349823637" departLane="free"/>
  <flow id="JF375425" begin="420" fromJunction="J6" toJunction="J4" end="480" vehsPerHour="47.87671697451731" departLane="free"/>
  <flow id="JF375426" begin="420" fromJunction="J6" toJunction="J7" end="480" vehsPerHour="137.9727157993913" departLane="free"/>
  <flow id="JF375427" begin="420" fromJunction="J7" toJunction="J0" end="480" vehsPerHour="39.51950866492662" departLane="free"/>
  <flow id="JF375428" begin="420" fromJunction="J7" toJunction="J3" end="480" vehsPerHour="156.71170413688085" departLane="free"/>
  <flow id="JF375429" begin="420" fromJunction="J7" toJunction="J5" end="480" vehsPerHour="203.96358690890565" departLane="free"/>
  <flow id="JF375430" begin="420" fromJunction="J7" toJunction="J6" end="480" vehsPerHour="120.73188587608773" departLane="free"/>
  <flow id="JF375431" begin="480" fromJunction="J0" toJunction="J3" end="540" vehsPerHour="336.391011300413" departLane="free"/>
  <flow id="JF375432" begin="480" fromJunction="J0" toJunction="J5" end="540" vehsPerHour="230.45021014211235" departLane="free"/>
  <flow id="JF375433" begin="480" fromJunction="J0" toJunction="J6" end="540" vehsPerHour="22.295471566449812" departLane="free"/>
  <flow id="JF375434" begin="480" fromJunction="J0" toJunction="J7" end="540" vehsPerHour="105.44402508774307" departLane="free"/>
  <flow id="JF375435" begin="480" fromJunction="J3" toJunction="J4" end="540" vehsPerHour="24.084668182712534" departLane="free"/>
  <flow id="JF375436" begin="480" fromJunction="J3" toJunction="J5" end="540" vehsPerHour="51.50523013951677" departLane="free"/>
  <flow id="JF375437" begin="480" fromJunction="J3" toJunction="J6" end="540" vehsPerHour="411.1861184540384" departLane="free"/>
  <flow id="JF375438" begin="480" fromJunction="J4" toJunction="J0" end="540" vehsPerHour="236.4295059359733" departLane="free"/>
  <flow id="JF375439" begin="480" fromJunction="J4" toJunction="J3" end="540" vehsPerHour="170.06614376756374" departLane="free"/>
  <flow id="JF375440" begin="480" fromJunction="J4" toJunction="J7" end="540" vehsPerHour="196.59393014025227" departLane="free"/>
  <flow id="JF375441" begin="480" fromJunction="J5" toJunction="J0" end="540" vehsPerHour="94.12231932416098" departLane="free"/>
  <flow id="JF375442" begin="480" fromJunction="J5" toJunction="J3" end="540" vehsPerHour="198.2151952907336" departLane="free"/>
  <flow id="JF375443" begin="480" fromJunction="J5" toJunction="J4" end="540" vehsPerHour="25.491643412650852" departLane="free"/>
  <flow id="JF375444" begin="480" fromJunction="J6" toJunction="J0" end="540" vehsPerHour="248.14408456746764" departLane="free"/>
  <flow id="JF375445" begin="480" fromJunction="J6" toJunction="J3" end="540" vehsPerHour="229.75189119438997" departLane="free"/>
  <flow id="JF375446" begin="480" fromJunction="J6" toJunction="J4" end="540" vehsPerHour="85.04941895141002" departLane="free"/>
  <flow id="JF375447" begin="480" fromJunction="J6" toJunction="J5" end="540" vehsPerHour="7.064560842833923" departLane="free"/>
  <flow id="JF375448" begin="480" fromJunction="J7" toJunction="J0" end="540" vehsPerHour="213.4759696084888" departLane="free"/>
  <flow id="JF375449" begin="480" fromJunction="J7" toJunction="J3" end="540" vehsPerHour="131.89180909009374" departLane="free"/>
  <flow id="JF375450" begin="480" fromJunction="J7" toJunction="J4" end="540" vehsPerHour="215.5342421341133" departLane="free"/>
  <flow id="JF375451" begin="480" fromJunction="J7" toJunction="J5" end="540" vehsPerHour="26.4709278865246" departLane="free"/>
  <flow id="JF375452" begin="540" fromJunction="J0" toJunction="J3" end="600" vehsPerHour="277.57182989248656" departLane="free"/>
  <flow id="JF375453" begin="540" fromJunction="J0" toJunction="J4" end="600" vehsPerHour="84.02958933050506" departLane="free"/>
  <flow id="JF375454" begin="540" fromJunction="J0" toJunction="J7" end="600" vehsPerHour="424.92635647142987" departLane="free"/>
  <flow id="JF375455" begin="540" fromJunction="J3" toJunction="J4" end="600" vehsPerHour="251.76725467667572" departLane="free"/>
  <flow id="JF375456" begin="540" fromJunction="J3" toJunction="J5" end="600" vehsPerHour="382.3591565494186" departLane="free"/>
  <flow id="JF375457" begin="540" fromJunction="J3" toJunction="J6" end="600" vehsPerHour="104.97346764293123" departLane="free"/>
  <flow id="JF375458" begin="540" fromJunction="J3" toJunction="J7" end="600" vehsPerHour="168.7899837338119" departLane="free"/>
  <flow id="JF375459" begin="540" fromJunction="J4" toJunction="J0" end="600" vehsPerHour="168.89162980008447" departLane="free"/>
  <flow id="JF375460" begin="540" fromJunction="J4" toJunction="J5" end="600" vehsPerHour="148.72803837886332" departLane="free"/>
  <flow id="JF375461" begin="540" fromJunction="J5" toJunction="J0" end="600" vehsPerHour="202.21909694057942" departLane="free"/>
  <flow id="JF375462" begin="540" fromJunction="J5" toJunction="J3" end="600" vehsPerHour="128.73065393920743" departLane="free"/>
  <flow id="JF375463" begin="540" fromJunction="J5" toJunction="J4" end="600" vehsPerHour="12.186858611655184" departLane="free"/>
  <flow id="JF375464" begin="540" fromJunction="J5" toJunction="J6" end="600" vehsPerHour="237.34365543517444" departLane="free"/>
  <flow id="JF375465" begin="540" fromJunction="J5" toJunction="J7" end="600" vehsPerHour="266.8415210626772" departLane="free"/>
  <flow id="JF375466" begin="540" fromJunction="J6" toJunction="J3" end="600" vehsPerHour="16.590030590997927" departLane="free"/>
  <flow id="JF375467" begin="540" fromJunction="J6" toJunction="J7" end="600" vehsPerHour="256.07191327205464" departLane="free"/>
  <flow id="JF375468" begin="540" fromJunction="J7" toJunction="J0" end="600" vehsPerHour="216.58787604161506" departLane="free"/>
  <flow id="JF375469" begin="540" fromJunction="J7" toJunction="J3" end="600" vehsPerHour="4.177045703620236" departLane="free"/>
  <flow id="JF375470" begin="540" fromJunction="J7" toJunction="J4" end="600" vehsPerHour="9.584340136330779" departLane="free"/>
  <flow id="JF375471" begin="540" fromJunction="J7" toJunction="J6" end="600" vehsPerHour="129.49930082020782" departLane="free"/>
  <flow id="JF375472" begin="600" fromJunction="J0" toJunction="J3" end="660" vehsPerHour="25.633320474288116" departLane="free"/>
  <flow id="JF375473" begin="600" fromJunction="J0" toJunction="J4" end="660" vehsPerHour="355.4115598127895" departLane="free"/>
  <flow id="JF375474" begin="600" fromJunction="J0" toJunction="J5" end="660" vehsPerHour="434.93222616228195" departLane="free"/>
  <flow id="JF375475" begin="600" fromJunction="J0" toJunction="J6" end="660" vehsPerHour="202.09756176402277" departLane="free"/>
  <flow id="JF375476" begin="600" fromJunction="J3" toJunction="J0" end="660" vehsPerHour="137.4216175651581" departLane="free"/>
  <flow id="JF375477" begin="600" fromJunction="J3" toJunction="J4" end="660" vehsPerHour="147.00726013991033" departLane="free"/>
  <flow id="JF375478" begin="600" fromJunction="J3" toJunction="J5" end="660" vehsPerHour="332.52966674443536" departLane="free"/>
  <flow id="JF375479" begin="600" fromJunction="J3" toJunction="J6" end="660" vehsPerHour="390.6871528997472" departLane="free"/>
  <flow id="JF375480" begin="600" fromJunction="J4" toJunction="J0" end="660" vehsPerHour="5.522031528536974" departLane="free"/>
  <flow id="JF375481" begin="600" fromJunction="J4" toJunction="J3" end="660" vehsPerHour="115.0387145659498" departLane="free"/>
  <flow id="JF375482" begin="600" fromJunction="J4" toJunction="J5" end="660" vehsPerHour="225.16671427603652" departLane="free"/>
  <flow id="JF375483" begin="600" fromJunction="J4" toJunction="J6" end="660" vehsPerHour="110.36138301851882" departLane="free"/>
  <flow id="JF375484" begin="600" fromJunction="J5" toJunction="J0" end="660" vehsPerHour="10.656188966028433" departLane="free"/>
  <flow id="JF375485" begin="600" fromJunction="J5" toJunction="J3" end="660" vehsPerHour="163.00017516567655" departLane="free"/>
  <flow id="JF375486" begin="600" fromJunction="J5" toJunction="J6" end="660" vehsPerHour="116.93482008208044" departLane="free"/>
  <flow id="JF375487" begin="600" fromJunction="J5" toJunction="J7" end="660" vehsPerHour="176.78667634418989" departLane="free"/>
  <flow id="JF375488" begin="600" fromJunction="J6" toJunction="J0" end="660" vehsPerHour="115.92392511454284" departLane="free"/>
  <flow id="JF375489" begin="600" fromJunction="J6" toJunction="J4" end="660" vehsPerHour="80.20342847472014" departLane="free"/>
  <flow id="JF375490" begin="600" fromJunction="J6" toJunction="J5" end="660" vehsPerHour="67.74092258224636" departLane="free"/>
  <flow id="JF375491" begin="600" fromJunction="J6" toJunction="J7" end="660" vehsPerHour="231.56421787447994" departLane="free"/>
  <flow id="JF375492" begin="600" fromJunction="J7" toJunction="J3" end="660" vehsPerHour="170.42643117626594" departLane="free"/>
  <flow id="JF375493" begin="600" fromJunction="J7" toJunction="J4" end="660" vehsPerHour="85.19053846637277" departLane="free"/>
  <flow id="JF375494" begin="600" fromJunction="J7" toJunction="J6" end="660" vehsPerHour="145.16311245602455" departLane="free"/>
  <flow id="JF375495" begin="660" fromJunction="J0" toJunction="J3" end="720" vehsPerHour="377.42123401954643" departLane="free"/>
  <flow id="JF375496" begin="660" fromJunction="J0" toJunction="J4" end="720" vehsPerHour="76.97440467226792" departLane="free"/>
  <flow id="JF375497" begin="660" fromJunction="J0" toJunction="J6" end="720" vehsPerHour="92.67402602639078" departLane="free"/>
  <flow id="JF375498" begin="660" fromJunction="J0" toJunction="J7" end="720" vehsPerHour="442.10840110716634" departLane="free"/>