<?xml version="1.0" encoding="UTF-8"?>
<routes xmlns:xsi="http://www.w3.org/2001/XMLSchema-instance" xsi:noNamespaceSchemaLocation="http://sumo.dlr.de/xsd/routes_file.xsd">
  <flow id="JF373504" begin="0" fromJunction="J0" toJunction="J4" end="60" vehsPerHour="253.65489398380262" departLane="free"/>
  <flow id="JF373505" begin="0" fromJunction="J0" toJunction="J5" end="60" vehsPerHour="528.0649549870673" departLane="free"/>
  <flow id="JF373506" begin="0" fromJunction="J0" toJunction="J7" end="60" vehsPerHour="496.379950806685" departLane="free"/>
  <flow id="JF373507" begin="0" fromJunction="J3" toJunction="J5" end="60" vehsPerHour="310.74566637935266" departLane="free"/>
  <flow id="JF373508" begin="0" fromJunction="J3" toJunction="J7" end="60" vehsPerHour="13.259177900765795" departLane="free"/>
  <flow id="JF373509" begin="0" fromJunction="J4" toJunction="J0" end="60" vehsPerHour="176.89710224947882" departLane="free"/>
  <flow id="JF373510" begin="0" fromJunction="J4" toJunction="J3" end="60" vehsPerHour="91.04903951890638" departLane="free"/>
  <flow id="JF373511" begin="0" fromJunction="J4" toJunction="J5" end="60" vehsPerHour="147.0016360119764" departLane="free"/>
  <flow id="JF373512" begin="0" fromJunction="J4" toJunction="J6" end="60" vehsPerHour="259.2519993633388" departLane="free"/>
  <flow id="JF373513" begin="0" fromJunction="J4" toJunction="J7" end="60" vehsPerHour="178.33197486084313" departLane="free"/>
  <flow id="JF373514" begin="0" fromJunction="J5" toJunction="J0" end="60" vehsPerHour="53.92874076440037" departLane="free"/>
  <flow id="JF373515" begin="0" fromJunction="J5" toJunction="J3" end="60" vehsPerHour="193.46236839827037" departLane="free"/>
  <flow id="JF373516" begin="0" fromJunction="J5" toJunction="J6" end="60" vehsPerHour="25.72262834554803" departLane="free"/>
  <flow id="JF373517" begin="0" fromJunction="J6" toJunction="J0" end="60" vehsPerHour="84.10946189348512" departLane="free"/>
  <flow id="JF373518" begin="0" fromJunction="J7" toJunction="J4" end="60" vehsPerHour="264.38708157992136" departLane="free"/>
  <flow id="JF373519" begin="0" fromJunction="J7" toJunction="J5" end="60" vehsPerHour="100.66191506388925" departLane="free"/>
  <flow id="JF373520" begin="0" fromJunction="J7" toJunction="J6" end="60" vehsPerHour="212.115996668222" departLane="free"/>
  <flow id="JF373521" begin="60" fromJunction="J0" toJunction="J3" end="120" vehsPerHour="317.8258486756847" departLane="free"/>
  <flow id="JF373522" begin="60" fromJunction="J0" toJunction="J4" end="120" vehsPerHour="189.90016094084314" departLane="free"/>
  <flow id="JF373523" begin="60" fromJunction="J0" toJunction="J5" end="120" vehsPerHour="346.90204598165815" departLane="free"/>
  <flow id="JF373524" begin="60" fromJunction="J0" toJunction="J6" end="120" vehsPerHour="186.40668413238214" departLane="free"/>
  <flow id="JF373525" begin="60" fromJunction="J3" toJunction="J0" end="120" vehsPerHour="393.21468012243815" departLane="free"/>
  <flow id="JF373526" begin="60" fromJunction="J3" toJunction="J4" end="120" vehsPerHour="119.06882558191538" departLane="free"/>
  <flow id="JF373527" begin="60" fromJunction="J4" toJunction="J0" end="120" vehsPerHour="228.20206685241553" departLane="free"/>
  <flow id="JF373528" begin="60" fromJunction="J4" toJunction="J3" end="120" vehsPerHour="81.0622194727097" departLane="free"/>
  <flow id="JF373529" begin="60" fromJunction="J4" toJunction="J5" end="120" vehsPerHour="105.90864357857157" departLane="free"/>
  <flow id="JF373530" begin="60" fromJunction="J5" toJunction="J0" end="120" vehsPerHour="140.02499563235327" departLane="free"/>
  <flow id="JF373531" begin="60" fromJunction="J5" toJunction="J3" end="120" vehsPerHour="206.31984940662656" departLane="free"/>
  <flow id="JF373532" begin="60" fromJunction="J5" toJunction="J4" end="120" vehsPerHour="117.3400080604253" departLane="free"/>
  <flow id="JF373533" begin="60" fromJunction="J5" toJunction="J6" end="120" vehsPerHour="133.76097903726674" departLane="free"/>
  <flow id="JF373534" begin="60" fromJunction="J5" toJunction="J7" end="120" vehsPerHour="103.96173410432802" departLane="free"/>
  <flow id="JF373535" begin="60" fromJunction="J6" toJunction="J4" end="120" vehsPerHour="270.62298996870476" departLane="free"/>
  <flow id="JF373536" begin="60" fromJunction="J6" toJunction="J5" end="120" vehsPerHour="85.80472689683846" departLane="free"/>
  <flow id="JF373537" begin="60" fromJunction="J7" toJunction="J3" end="120" vehsPerHour="9.217303434901833" departLane="free"/>
  <flow id="JF373538" begin="60" fromJunction="J7" toJunction="J6" end="120" vehsPerHour="270.62549318066976" departLane="free"/>
  <flow id="JF373539" begin="120" fromJunction="J0" toJunction="J3" end="180" vehsPerHour="386.6769630303655" departLane="free"/>
  <flow id="JF373540" begin="120" fromJunction="J0" toJunction="J4" end="180" vehsPerHour="370.8092287884808" departLane="free"/>
  <flow id="JF373541" begin="120" fromJunction="J0" toJunction="J5" end="180" vehsPerHour="111.04606595550725" departLane="free"/>
  <flow id="JF373542" begin="120" fromJunction="J0" toJunction="J7" end="180" vehsPerHour="146.14299388876094" departLane="free"/>
  <flow id="JF373543" begin="120" fromJunction="J3" toJunction="J0" end="180" vehsPerHour="278.748693677901" departLane="free"/>
  <flow id="JF373544" begin="120" fromJunction="J3" toJunction="J4" end="180" vehsPerHour="240.32324003137262" departLane="free"/>
  <flow id="JF373545" begin="120" fromJunction="J3" toJunction="J5" end="180" vehsPerHour="204.54224415439117" departLane="free"/>
  <flow id="JF373546" begin="120" fromJunction="J3" toJunction="J6" end="180" vehsPerHour="436.8105827767624" departLane="free"/>
  <flow id="JF373547" begin="120" fromJunction="J3" toJunction="J7" end="180" vehsPerHour="200.03804716169594" departLane="free"/>
  <flow id="JF373548" begin="120" fromJunction="J4" toJunction="J3" end="180" vehsPerHour="89.68608721996388" departLane="free"/>
  <flow id="JF373549" begin="120" fromJunction="J4" toJunction="J5" end="180" vehsPerHour="39.35794531630766" departLane="free"/>
  <flow id="JF373550" begin="120" fromJunction="J4" toJunction="J7" end="180" vehsPerHour="7.477090389124516" departLane="free"/>
  <flow id="JF373551" begin="120" fromJunction="J5" toJunction="J3" end="180" vehsPerHour="95.65394404311111" departLane="free"/>
  <flow id="JF373552" begin="120" fromJunction="J5" toJunction="J4" end="180" vehsPerHour="174.93968577068907" departLane="free"/>
  <flow id="JF373553" begin="120" fromJunction="J5" toJunction="J6" end="180" vehsPerHour="141.6484025641262" departLane="free"/>
  <flow id="JF373554" begin="120" fromJunction="J6" toJunction="J0" end="180" vehsPerHour="252.19417268498265" departLane="free"/>
  <flow id="JF373555" begin="120" fromJunction="J6" toJunction="J3" end="180" vehsPerHour="260.3510103777521" departLane="free"/>
  <flow id="JF373556" begin="120" fromJunction="J6" toJunction="J5" end="180" vehsPerHour="241.97498875646698" departLane="free"/>
  <flow id="JF373557" begin="120" fromJunction="J6" toJunction="J7" end="180" vehsPerHour="165.75091840978644" departLane="free"/>
  <flow id="JF373558" begin="120" fromJunction="J7" toJunction="J0" end="180" vehsPerHour="233.1379393382032" departLane="free"/>
  <flow id="JF373559" begin="120" fromJunction="J7" toJunction="J3" end="180" vehsPerHour="227.71776666502825" departLane="free"/>
  <flow id="JF373560" begin="120" fromJunction="J7" toJunction="J4" end="180" vehsPerHour="51.514231285487604" departLane="free"/>
  <flow id="JF373561" begin="180" fromJunction="J0" toJunction="J3" end="240" vehsPerHour="205.2800379964525" departLane="free"/>
  <flow id="JF373562" begin="180" fromJunction="J0" toJunction="J4" end="240" vehsPerHour="229.42110304237988" departLane="free"/>
  <flow id="JF373563" begin="180" fromJunction="J0" toJunction="J5" end="240" vehsPerHour="96.96691114824036" departLane="free"/>
  <flow id="JF373564" begin="180" fromJunction="J0" toJunction="J7" end="240" vehsPerHour="210.69291411835215" departLane="free"/>
  <flow id="JF373565" begin="180" fromJunction="J3" toJunction="J6" end="240" vehsPerHour="30.499898407477875" departLane="free"/>
  <flow id="JF373566" begin="180" fromJunction="J3" toJunction="J7" end="240" vehsPerHour="126.80388993811944" departLane="free"/>
  <flow id="JF373567" begin="180" fromJunction="J4" toJunction="J0" end="240" vehsPerHour="166.1893024693607" departLane="free"/>
  <flow id="JF373568" begin="180" fromJunction="J4" toJunction="J5" end="240" vehsPerHour="97.28933194650679" departLane="free"/>
  <flow id="JF373569" begin="180" fromJunction="J4" toJunction="J6" end="240" vehsPerHour="227.7437735637072" departLane="free"/>
  <flow id="JF373570" begin="180" fromJunction="J5" toJunction="J0" end="240" vehsPerHour="21.356889348605826" departLane="free"/>
  <flow id="JF373571" begin="180" fromJunction="J5" toJunction="J3" end="240" vehsPerHour="233.92422382056384" departLane="free"/>
  <flow id="JF373572" begin="180" fromJunction="J5" toJunction="J4" end="240" vehsPerHour="203.18077359247755" departLane="free"/>
  <flow id="JF373573" begin="180" fromJunction="J5" toJunction="J6" end="240" vehsPerHour="220.11168933974727" departLane="free"/>
  <flow id="JF373574" begin="180" fromJunction="J5" toJunction="J7" end="240" vehsPerHour="34.338628253372846" departLane="free"/>
  <flow id="JF373575" begin="180" fromJunction="J6" toJunction="J0" end="240" vehsPerHour="170.81900779911143" departLane="free"/>
  <flow id="JF373576" begin="180" fromJunction="J6" toJunction="J3" end="240" vehsPerHour="149.5407226006966" departLane="free"/>
  <flow id="JF373577" begin="180" fromJunction="J6" toJunction="J4" end="240" vehsPerHour="260.60669591064845" departLane="free"/>
  <flow id="JF373578" begin="180" fromJunction="J6" toJunction="J5" end="240" vehsPerHour="99.4854550014694" departLane="free"/>
  <flow id="JF373579" begin="180" fromJunction="J7" toJunction="J0" end="240" vehsPerHour="60.30243080040241" departLane="free"/>
  <flow id="JF373580" begin="180" fromJunction="J7" toJunction="J3" end="240" vehsPerHour="68.55534891796474" departLane="free"/>
  <flow id="JF373581" begin="180" fromJunction="J7" toJunction="J6" end="240" vehsPerHour="102.6488179048704" departLane="free"/>
  <flow id="JF373582" begin="240" fromJunction="J0" toJunction="J3" end="300" vehsPerHour="7.169782172473852" departLane="free"/>
  <flow id="JF373583" begin="240" fromJunction="J0" toJunction="J5" end="300" vehsPerHour="306.2545620674852" departLane="free"/>
  <flow id="JF373584" begin="240" fromJunction="J3" toJunction="J0" end="300" vehsPerHour="69.13486775601504" departLane="free"/>
  <flow id="JF373585" begin="240" fromJunction="J3" toJunction="J5" end="300" vehsPerHour="12.861710543411146" departLane="free"/>
  <flow id="JF373586" begin="240" fromJunction="J3" toJunction="J6" end="300" vehsPerHour="74.39526394724669" departLane="free"/>
  <flow id="JF373587" begin="240" fromJunction="J4" toJunction="J0" end="300" vehsPerHour="165.67122548115177" departLane="free"/>
  <flow id="JF373588" begin="240" fromJunction="J4" toJunction="J3" end="300" vehsPerHour="109.6254633309619" departLane="free"/>
  <flow id="JF373589" begin="240" fromJunction="J4" toJunction="J7" end="300" vehsPerHour="173.26649594449185" departLane="free"/>
  <flow id="JF373590" begin="240" fromJunction="J5" toJunction="J0" end="300" vehsPerHour="3.387431546687203" departLane="free"/>
  <flow id="JF373591" begin="240" fromJunction="J5" toJunction="J3" end="300" vehsPerHour="83.40905574503164" departLane="free"/>
  <flow id="JF373592" begin="240" fromJunction="J5" toJunction="J4" end="300" vehsPerHour="224.73361287625227" departLane="free"/>
  <flow id="JF373593" begin="240" fromJunction="J5" toJunction="J6" end="300" vehsPerHour="82.4599973011252" departLane="free"/>
  <flow id="JF373594" begin="240" fromJunction="J5" toJunction="J7" end="300" vehsPerHour="199.02212235653954" departLane="free"/>
  <flow id="JF373595" begin="240" fromJunction="J6" toJunction="J3" end="300" vehsPerHour="269.00307169132634" departLane="free"/>
  <flow id="JF373596" begin="240" fromJunction="J6" toJunction="J4" end="300" vehsPerHour="253.33789075475997" departLane="free"/>
  <flow id="JF373597" begin="240" fromJunction="J6" toJunction="J5" end="300" vehsPerHour="73.79133453524774" departLane="free"/>
  <flow id="JF373598" begin="240" fromJunction="J6" toJunction="J7" end="300" vehsPerHour="141.98963382119743" departLane="free"/>
  <flow id="JF373599" begin="240" fromJunction="J7" toJunction="J0" end="300" vehsPerHour="29.18547994107261" departLane="free"/>
  <flow id="JF373600" begin="240" fromJunction="J7" toJunction="J3" end="300" vehsPerHour="203.45283877342703" departLane="free"/>
  <flow id="JF373601" begin="240" fromJunction="J7" toJunction="J6" end="300" vehsPerHour="188.81911105439391" departLane="free"/>
  <flow id="JF373602" begin="300" fromJunction="J0" toJunction="J4" end="360" vehsPerHour="376.43760857376515" departLane="free"/>
  <flow id="JF373603" begin="300" fromJunction="J0" toJunction="J5" end="360" vehsPerHour="291.0630054766793" departLane="free"/>
  <flow id="JF373604" begin="300" fromJunction="J0" toJunction="J7" end="360" vehsPerHour="519.0957765903427" departLane="free"/>
  <flow id="JF373605" begin="300" fromJunction="J3" toJunction="J0" end="360" vehsPerHour="204.71793039494708" departLane="free"/>
  <flow id="JF373606" begin="300" fromJunction="J3" toJunction="J4" end="360" vehsPerHour="365.4297331434054" departLane="free"/>
  <flow id="JF373607" begin="300" fromJunction="J3" toJunction="J5" end="360" vehsPerHour="19.286843040984905" departLane="free"/>
  <flow id="JF373608" begin="300" fromJunction="J4" toJunction="J0" end="360" vehsPerHour="273.1087811591869" departLane="free"/>
  <flow id="JF373609" begin="300" fromJunction="J4" toJunction="J3" end="360" vehsPerHour="228.69901074334572" departLane="free"/>
  <flow id="JF373610" begin="300" fromJunction="J4" toJunction="J6" end="360" vehsPerHour="123.99382324021688" departLane="free"/>
  <flow id="JF373611" begin="300" fromJunction="J5" toJunction="J3" end="360" vehsPerHour="232.86572167411683" departLane="free"/>
  <flow id="JF373612" begin="300" fromJunction="J5" toJunction="J4" end="360" vehsPerHour="253.0206244900588" departLane="free"/>
  <flow id="JF373613" begin="300" fromJunction="J5" toJunction="J6" end="360" vehsPerHour="129.41903247753052" departLane="free"/>
  <flow id="JF373614" begin="300" fromJunction="J6" toJunction="J3" end="360" vehsPerHour="164.19182786192414" departLane="free"/>
  <flow id="JF373615" begin="300" fromJunction="J7" toJunction="J0" end="360" vehsPerHour="74.00428292325498" departLane="free"/>
  <flow id="JF373616" begin="300" fromJunction="J7" toJunction="J5" end="360" vehsPerHour="229.43134302061597" departLane="free"/>
  <flow id="JF373617" begin="300" fromJunction="J7" toJunction="J6" end="360" vehsPerHour="26.153709057921002" departLane="free"/>
  <flow id="JF373618" begin="360" fromJunction="J0" toJunction="J3" end="420" vehsPerHour="61.82713353402683" departLane="free"/>
  <flow id="JF373619" begin="360" fromJunction="J0" toJunction="J4" end="420" vehsPerHour="114.51874337158759" departLane="free"/>
  <flow id="JF373620" begin="360" fromJunction="J0" toJunction="J5" end="420" vehsPerHour="388.6722495051582" departLane="free"/>
  <flow id="JF373621" begin="360" fromJunction="J0" toJunction="J6" end="420" vehsPerHour="310.0102077865677" departLane="free"/>
  <flow id="JF373622" begin="360" fromJunction="J0" toJunction="J7" end="420" vehsPerHour="110.53496519233438" departLane="free"/>
  <flow id="JF373623" begin="360" fromJunction="J3" toJunction="J0" end="420" vehsPerHour="172.39598150881034" departLane="free"/>
  <flow id="JF373624" begin="360" fromJunction="J3" toJunction="J4" end="420" vehsPerHour="490.2422051634497" departLane="free"/>
  <flow id="JF373625" begin="360" fromJunction="J3" toJunction="J5" end="420" vehsPerHour="281.29539532548796" departLane="free"/>
  <flow id="JF373626" begin="360" fromJunction="J3" toJunction="J6" end="420" vehsPerHour="100.79876746622874" departLane="free"/>
  <flow id="JF373627" begin="360" fromJunction="J4" toJunction="J0" end="420" vehsPerHour="196.03668571419195" departLane="free"/>
  <flow id="JF373628" begin="360" fromJunction="J4" toJunction="J6" end="420" vehsPerHour="46.020583877540176" departLane="free"/>
  <flow id="JF373629" begin="360" fromJunction="J4" toJunction="J7" end="420" vehsPerHour="100.68647535010717" departLane="free"/>
  <flow id="JF373630" begin="360" fromJunction="J5" toJunction="J0" end="420" vehsPerHour="0.4908320281491212" departLane="free"/>
  <flow id="JF373631" begin="360" fromJunction="J5" toJunction="J6" end="420" vehsPerHour="122.1215705030388" departLane="free"/>
  <flow id="JF373632" begin="360" fromJunction="J5" toJunction="J7" end="420" vehsPerHour="137.49936122271052" departLane="free"/>
  <flow id="JF373633" begin="360" fromJunction="J6" toJunction="J0" end="420" vehsPerHour="209.7631371534483" departLane="free"/>
  <flow id="JF373634" begin="360" fromJunction="J6" toJunction="J3" end="420" vehsPerHour="255.13976869871038" departLane="free"/>
  <flow id="JF373635" begin="360" fromJunction="J6" toJunction="J4" end="420" vehsPerHour="233.81338067896513" departLane="free"/>
  <flow id="JF373636" begin="360" fromJunction="J6" toJunction="J7" end="420" vehsPerHour="257.10127254891574" departLane="free"/>
  <flow id="JF373637" begin="360" fromJunction="J7" toJunction="J0" end="420" vehsPerHour="258.18792094205" departLane="free"/>
  <flow id="JF373638" begin="360" fromJunction="J7" toJunction="J3" end="420" vehsPerHour="34.96794576630633" departLane="free"/>
  <flow id="JF373639" begin="360" fromJunction="J7" toJunction="J4" end="420" vehsPerHour="44.4645427446196" departLane="free"/>
  <flow id="JF373640" begin="360" fromJunction="J7" toJunction="J5" end="420" vehsPerHour="235.05685100676666" departLane="free"/>
  <flow id="JF373641" begin="420" fromJunction="J0" toJunction="J3" end="480" vehsPerHour="504.665333670136" departLane="free"/>
  <flow id="JF373642" begin="420" fromJunction="J0" toJunction="J4" end="480" vehsPerHour="438.32505052368265" departLane="free"/>
  <flow id="JF373643" begin="420" fromJunction="J0" toJunction="J5" end="480" vehsPerHour="177.45483616442255" departLane="free"/>
  <flow id="JF373644" begin="420" fromJunction="J0" toJunction="J6" end="480" vehsPerHour="433.04431750467137" departLane="free"/>
  <flow id="JF373645" begin="420" fromJunction="J3" toJunction="J0" end="480" vehsPerHour="0.8928758428130997" departLane="free"/>
  <flow id="JF373646" begin="420" fromJunction="J3" toJunction="J4" end="480" vehsPerHour="375.8178968258453" departLane="free"/>
  <flow id="JF373647" begin="420" fromJunction="J3" toJunction="J5" end="480" vehsPerHour="486.48172954521505" departLane="free"/>
  <flow id="JF373648" begin="420" fromJunction="J3" toJunction="J7" end="480" vehsPerHour="420.2804964682637" departLane="free"/>
  <flow id="JF373649" begin="420" fromJunction="J4" toJunction="J0" end="480" vehsPerHour="98.65218807748553" departLane="free"/>
  <flow id="JF373650" begin="420" fromJunction="J4" toJunction="J3" end="480" vehsPerHour="132.53109770890535" departLane="free"/>
  <flow id="JF373651" begin="420" fromJunction="J4" toJunction="J6" end="480" vehsPerHour="133.89423481453406" departLane="free"/>
  <flow id="JF373652" begin="420" fromJunction="J4" toJunction="J7" end="480" vehsPerHour="198.2683947031458" departLane="free"/>
  <flow id="JF373653" begin="420" fromJunction="J5" toJunction="J0" end="480" vehsPerHour="216.97621393325304" departLane="free"/>
  <flow id="JF373654" begin="420" fromJunction="J5" toJunction="J3" end="480" vehsPerHour="52.6984859261885" departLane="free"/>
  <flow id="JF373655" begin="420" fromJunction="J5" toJunction="J6" end="480" vehsPerHour="166.73364448084973" departLane="free"/>
  <flow id="JF373656" begin="420" fromJunction="J5" toJunction="J7" end="480" vehsPerHour="26.934946809206963" departLane="free"/>
  <flow id="JF373657" begin="420" fromJunction="J6" toJunction="J0" end="480" vehsPerHour="107.85698839328292" departLane="free"/>
  <flow id="JF373658" begin="420" fromJunction="J6" toJunction="J3" end="480" vehsPerHour="111.8291168012939" departLane="free"/>
  <flow id="JF373659" begin="420" fromJunction="J6" toJunction="J7" end="480" vehsPerHour="272.49532706192286" departLane="free"/>
  <flow id="JF373660" begin="420" fromJunction="J7" toJunction="J0" end="480" vehsPerHour="202.39691725457382" departLane="free"/>
  <flow id="JF373661" begin="420" fromJunction="J7" toJunction="J6" end="480" vehsPerHour="241.60115545002841" departLane="free"/>
  <flow id="JF373662" begin="480" fromJunction="J0" toJunction="J3" end="540" vehsPerHour="495.0522516890998" departLane="free"/>
  <flow id="JF373663" begin="480" fromJunction="J0" toJunction="J4" end="540" vehsPerHour="346.48867032462874" departLane="free"/>
  <flow id="JF373664" begin="480" fromJunction="J0" toJunction="J5" end="540" vehsPerHour="326.935170437786" departLane="free"/>
  <flow id="JF373665" begin="480" fromJunction="J0" toJunction="J6" end="540" vehsPerHour="330.95959309092876" departLane="free"/>
  <flow id="JF373666" begin="480" fromJunction="J0" toJunction="J7" end="540" vehsPerHour="523.0613743261993" departLane="free"/>
  <flow id="JF373667" begin="480" fromJunction="J3" toJunction="J0" end="540" vehsPerHour="33.385451842457655" departLane="free"/>
  <flow id="JF373668" begin="480" fromJunction="J3" toJunction="J4" end="540" vehsPerHour="192.04862776338405" departLane="free"/>
  <flow id="JF373669" begin="480" fromJunction="J3" toJunction="J5" end="540" vehsPerHour="309.11243342220297" departLane="free"/>
  <flow id="JF373670" begin="480" fromJunction="J3" toJunction="J6" end="540" vehsPerHour="188.99990818905928" departLane="free"/>
  <flow id="JF373671" begin="480" fromJunction="J3" toJunction="J7" end="540" vehsPerHour="296.1068768061311" departLane="free"/>
  <flow id="JF373672" begin="480" fromJunction="J4" toJunction="J0" end="540" vehsPerHour="70.55801307848054" departLane="free"/>
  <flow id="JF373673" begin="480" fromJunction="J4" toJunction="J3" end="540" vehsPerHour="238.47749324251205" departLane="free"/>
  <flow id="JF373674" begin="480" fromJunction="J4" toJunction="J5" end="540" vehsPerHour="192.93817055835254" departLane="free"/>
  <flow id="JF373675" begin="480" fromJunction="J4" toJunction="J6" end="540" vehsPerHour="268.75333792486214" departLane="free"/>
  <flow id="JF373676" begin="480" fromJunction="J4" toJunction="J7" end="540" vehsPerHour="10.35282470631389" departLane="free"/>
  <flow id="JF373677" begin="480" fromJunction="J5" toJunction="J0" end="540" vehsPerHour="233.0129378617106" departLane="free"/>
  <flow id="JF373678" begin="480" fromJunction="J5" toJunction="J3" end="540" vehsPerHour="165.0808161261369" departLane="free"/>
  <flow id="JF373679" begin="480" fromJunction="J5" toJunction="J4" end="540" vehsPerHour="40.20105111783134" departLane="free"/>
  <flow id="JF373680" begin="480" fromJunction="J5" toJunction="J7" end="540" vehsPerHour="45.28849509903482" departLane="free"/>
  <flow id="JF373681" begin="480" fromJunction="J6" toJunction="J0" end="540" vehsPerHour="0.3905506605231295" departLane="free"/>
  <flow id="JF373682" begin="480" fromJunction="J6" toJunction="J4" end="540" vehsPerHour="52.0496570965773" departLane="free"/>
  <flow id="JF373683" begin="480" fromJunction="J6" toJunction="J5" end="540" vehsPerHour="47.402708461237836" departLane="free"/>
  <flow id="JF373684" begin="480" fromJunction="J6" toJunction="J7" end="540" vehsPerHour="215.0024234706863" departLane="free"/>
  <flow id="JF373685" begin="480" fromJunction="J7" toJunction="J0" end="540" vehsPerHour="272.77131223232914" departLane="free"/>
  <flow id="JF373686" begin="480" fromJunction="J7" toJunction="J3" end="540" vehsPerHour="204.62055441642346" departLane="free"/>
  <flow id="JF373687" begin="480" fromJunction="J7" toJunction="J4" end="540" vehsPerHour="100.16546898219741" departLane="free"/>
  <flow id="JF373688" begin="480" fromJunction="J7" toJunction="J5" end="540" vehsPerHour="231.62312667425516" departLane="free"/>
  <flow id="JF373689" begin="480" fromJunction="J7" toJunction="J6" end="540" vehsPerHour="165.67964392071315" departLane="free"/>
  <flow id="JF373690" begin="540" fromJunction="J0" toJunction="J3" end="600" vehsPerHour="82.48279565208213" departLane="free"/>
  <flow id="JF373691" begin="540" fromJunction="J0" toJunction="J5" end="600" vehsPerHour="484.8330617783937" departLane="free"/>
  <flow id="JF373692" begin="540" fromJunction="J0" toJunction="J6" end="600" vehsPerHour="494.30237135432577" departLane="free"/>
  <flow id="JF373693" begin="540" fromJunction="J3" toJunction="J0" end="600" vehsPerHour="178.06304686170657" departLane="free"/>
  <flow id="JF373694" begin="540" fromJunction="J3" toJunction="J5" end="600" vehsPerHour="520.4599348534593" departLane="free"/>
  <flow id="JF373695" begin="540" fromJunction="J3" toJunction="J7" end="600" vehsPerHour="307.69242124114515" departLane="free"/>
  <flow id="JF373696" begin="540" fromJunction="J4" toJunction="J3" end="600" vehsPerHour="118.0401738374148" departLane="free"/>
  <flow id="JF373697" begin="540" fromJunction="J5" toJunction="J4" end="600" vehsPerHour="66.8185975468526" departLane="free"/>
  <flow id="JF373698" begin="540" fromJunction="J5" toJunction="J7" end="600" vehsPerHour="239.23574333859372" departLane="free"/>
  <flow id="JF373699" begin="540" fromJunction="J6" toJunction="J0" end="600" vehsPerHour="174.34785341523755" departLane="free"/>
  <flow id="JF373700" begin="540" fromJunction="J6" toJunction="J3" end="600" vehsPerHour="234.13811702174738" departLane="free"/>
  <flow id="JF373701" begin="540" fromJunction="J6" toJunction="J4" end="600" vehsPerHour="272.48638775641683" departLane="free"/>
  <flow id="JF373702" begin="540" fromJunction="J6" toJunction="J7" end="600" vehsPerHour="162.2859019562732" departLane="free"/>
  <flow id="JF373703" begin="540" fromJunction="J7" toJunction="J0" end="600" vehsPerHour="210.22478466401023" departLane="free"/>
  <flow id="JF373704" begin="540" fromJunction="J7" toJunction="J3" end="600" vehsPerHour="19.991655498516163" departLane="free"/>
  <flow id="JF373705" begin="540" fromJunction="J7" toJunction="J4" end="600" vehsPerHour="201.87930034860463" departLane="free"/>
  <flow id="JF373706" begin="540" fromJunction="J7" toJunction="J6" end="600" vehsPerHour="48.572806817860695" departLane="free"/>
  <flow id="JF373707" begin="600" fromJunction="J0" toJunction="J3" end="660" vehsPerHour="428.6757790504878" departLane="free"/>
  <flow id="JF373708" begin="600" fromJunction="J0" toJunction="J5" end="660" vehsPerHour="280.80777755203155" departLane="free"/>
  <flow id="JF373709" begin="600" fromJunction="J0" toJunction="J6" end="660" vehsPerHour="6.399791447943975" departLane="free"/>
  <flow id="JF373710" begin="600" fromJunction="J0" toJunction="J7" end="660" vehsPerHour="16.248969929502696" departLane="free"/>
  <flow id="JF373711" begin="600" fromJunction="J3" toJunction="J0" end="660" vehsPerHour="214.79914477576204" departLane="free"/>
  <flow id="JF373712" begin="600" fromJunction="J3" toJunction="J4" end="660" vehsPerHour="183.50197015022212" departLane="free"/>
  <flow id="JF373713" begin="600" fromJunction="J3" toJunction="J5" end="660" vehsPerHour="56.05743101049488" departLane="free"/>
  <flow id="JF373714" begin="600" fromJunction="J3" toJunction="J7" end="660" vehsPerHour="400.45373371912615" departLane="free"/>
  <flow id="JF373715" begin="600" fromJunction="J4" toJunction="J3" end="660" vehsPerHour="143.16774828002494" departLane="free"/>
  <flow id="JF373716" begin="600" fromJunction="J4" toJunction="J5" end="660" vehsPerHour="203.39741919364081" departLane="free"/>
  <flow id="JF373717" begin="600" fromJunction="J4" toJunction="J6" end="660" vehsPerHour="213.3485536237942" departLane="free"/>
  <flow id="JF373718" begin="600" fromJunction="J4" toJunction="J7" end="660" vehsPerHour="8.685194738105988" departLane="free"/>
  <flow id="JF373719" begin="600" fromJunction="J5" toJunction="J0" end="660" vehsPerHour="132.35068672801796" departLane="free"/>
  <flow id="JF373720" begin="600" fromJunction="J5" toJunction="J3" end="660" vehsPerHour="17.263842715956073" departLane="free"/>
  <flow id="JF373721" begin="600" fromJunction="J5" toJunction="J4" end="660" vehsPerHour="246.6073205633042" departLane="free"/>
  <flow id="JF373722" begin="600" fromJunction="J5" toJunction="J7" end="660" vehsPerHour="220.6765643474473" departLane="free"/>
  <flow id="JF373723" begin="600" fromJunction="J6" toJunction="J3" end="660" vehsPerHour="208.25476617849708" departLane="free"/>
  <flow id="JF373724" begin="600" fromJunction="J6" toJunction="J4" end="660" vehsPerHour="166.10510121129352" departLane="free"/>
  <flow id="JF373725" begin="600" fromJunction="J6" toJunction="J5" end="660" vehsPerHour="78.14222436845736" departLane="free"/>
  <flow id="JF373726" begin="600" fromJunction="J7" toJunction="J0" end="660" vehsPerHour="2.9603671814283024" departLane="free"/>
  <flow id="JF373727" begin="600" fromJunction="J7" toJunction="J3" end="660" vehsPerHour="50.13918098971021" departLane="free"/>
  <flow id="JF373728" begin="600" fromJunction="J7" toJunction="J5" end="660" vehsPerHour="222.43445184710785" departLane="free"/>
  <flow id="JF373729" begin="600" fromJunction="J7" toJunction="J6" end="660" vehsPerHour="271.03222851470684" departLane="free"/>
  <flow id="JF373730" begin="660" fromJunction="J0" toJunction="J7" end="720" vehsPerHour="285.05415267384336" departLane="free"/>
  <flow id="JF373731" begin="660" fromJunction="J3" toJunction="J0" end="720" vehsPerHour="450.2576862588655" departLane="free"/>
  <flow id="JF373732" begin="660" fromJunction="J3" toJunction="J4" end="720" vehsPerHour="129.77621205789723" departLane="free"/>