<?xml version="1.0" encoding="UTF-8"?>
<routes xmlns:xsi="http://www.w3.org/2001/XMLSchema-instance" xsi:noNamespaceSchemaLocation="http://sumo.dlr.de/xsd/routes_file.xsd">
  <flow id="JF378827" begin="0" fromJunction="J0" toJunction="J3" end="60" vehsPerHour="30.895184426185867" departLane="free"/>
  <flow id="JF378828" begin="0" fromJunction="J0" toJunction="J6" end="60" vehsPerHour="193.13625138952025" departLane="free"/>
  <flow id="JF378829" begin="0" fromJunction="J3" toJunction="J0" end="60" vehsPerHour="378.5372930323881" departLane="free"/>
  <flow id="JF378830" begin="0" fromJunction="J3" toJunction="J5" end="60" vehsPerHour="170.42182127305801" departLane="free"/>
  <flow id="JF378831" begin="0" fromJunction="J3" toJunction="J6" end="60" vehsPerHour="270.7096227253272" departLane="free"/>
  <flow id="JF378832" begin="0" fromJunction="J3" toJunction="J7" end="60" vehsPerHour="422.8494168296939" departLane="free"/>
  <flow id="JF378833" begin="0" fromJunction="J4" toJunction="J0" end="60" vehsPerHour="150.59743666169516" departLane="free"/>
  <flow id="JF378834" begin="0" fromJunction="J4" toJunction="J6" end="60" vehsPerHour="5.355389349256218" departLane="free"/>
  <flow id="JF378835" begin="0" fromJunction="J4" toJunction="J7" end="60" vehsPerHour="164.97231523389812" departLane="free"/>
  <flow id="JF378836" begin="0" fromJunction="J5" toJunction="J0" end="60" vehsPerHour="121.14922587736714" departLane="free"/>
  <flow id="JF378837" begin="0" fromJunction="J5" toJunction="J3" end="60" vehsPerHour="166.0085890287917" departLane="free"/>
  <flow id="JF378838" begin="0" fromJunction="J5" toJunction="J4" end="60" vehsPerHour="67.72260488429865" departLane="free"/>
  <flow id="JF378839" begin="0" fromJunction="J5" toJunction="J6" end="60" vehsPerHour="182.43238288662377" departLane="free"/>
  <flow id="JF378840" begin="0" fromJunction="J5" toJunction="J7" end="60" vehsPerHour="231.48479504010996" departLane="free"/>
  <flow id="JF378841" begin="0" fromJunction="J6" toJunction="J0" end="60" vehsPerHour="4.43598515833219" departLane="free"/>
  <flow id="JF378842" begin="0" fromJunction="J6" toJunction="J4" end="60" vehsPerHour="242.01490648851527" departLane="free"/>
  <flow id="JF378843" begin="0" fromJunction="J6" toJunction="J7" end="60" vehsPerHour="177.7552803875383" departLane="free"/>
  <flow id="JF378844" begin="0" fromJunction="J7" toJunction="J3" end="60" vehsPerHour="262.97135705093564" departLane="free"/>
  <flow id="JF378845" begin="0" fromJunction="J7" toJunction="J4" end="60" vehsPerHour="70.52611393664203" departLane="free"/>
  <flow id="JF378846" begin="0" fromJunction="J7" toJunction="J5" end="60" vehsPerHour="115.61789969528778" departLane="free"/>
  <flow id="JF378847" begin="0" fromJunction="J7" toJunction="J6" end="60" vehsPerHour="198.91530069512345" departLane="free"/>
  <flow id="JF378848" begin="60" fromJunction="J0" toJunction="J5" end="120" vehsPerHour="65.98594299989799" departLane="free"/>
  <flow id="JF378849" begin="60" fromJunction="J0" toJunction="J6" end="120" vehsPerHour="332.1910559880372" departLane="free"/>
  <flow id="JF378850" begin="60" fromJunction="J0" toJunction="J7" end="120" vehsPerHour="6.463920059392234" departLane="free"/>
  <flow id="JF378851" begin="60" fromJunction="J3" toJunction="J0" end="120" vehsPerHour="23.709873477357306" departLane="free"/>
  <flow id="JF378852" begin="60" fromJunction="J3" toJunction="J4" end="120" vehsPerHour="224.6575536322897" departLane="free"/>
  <flow id="JF378853" begin="60" fromJunction="J3" toJunction="J5" end="120" vehsPerHour="409.6218223310555" departLane="free"/>
  <flow id="JF378854" begin="60" fromJunction="J3" toJunction="J7" end="120" vehsPerHour="393.45676303276986" departLane="free"/>
  <flow id="JF378855" begin="60" fromJunction="J4" toJunction="J5" end="120" vehsPerHour="132.01874482297114" departLane="free"/>
  <flow id="JF378856" begin="60" fromJunction="J4" toJunction="J6" end="120" vehsPerHour="12.129723231580451" departLane="free"/>
  <flow id="JF378857" begin="60" fromJunction="J5" toJunction="J3" end="120" vehsPerHour="97.66237442650454" departLane="free"/>
  <flow id="JF378858" begin="60" fromJunction="J5" toJunction="J4" end="120" vehsPerHour="200.59612626956635" departLane="free"/>
  <flow id="JF378859" begin="60" fromJunction="J5" toJunction="J6" end="120" vehsPerHour="267.6187541515007" departLane="free"/>
  <flow id="JF378860" begin="60" fromJunction="J5" toJunction="J7" end="120" vehsPerHour="51.58827060777458" departLane="free"/>
  <flow id="JF378861" begin="60" fromJunction="J6" toJunction="J3" end="120" vehsPerHour="30.596941464944422" departLane="free"/>
  <flow id="JF378862" begin="60" fromJunction="J6" toJunction="J4" end="120" vehsPerHour="78.27619023497576" departLane="free"/>
  <flow id="JF378863" begin="60" fromJunction="J6" toJunction="J5" end="120" vehsPerHour="164.83849961164893" departLane="free"/>
  <flow id="JF378864" begin="60" fromJunction="J7" toJunction="J0" end="120" vehsPerHour="264.5524718212222" departLane="free"/>
  <flow id="JF378865" begin="60" fromJunction="J7" toJunction="J3" end="120" vehsPerHour="52.109154946755886" departLane="free"/>
  <flow id="JF378866" begin="60" fromJunction="J7" toJunction="J6" end="120" vehsPerHour="225.1653174844308" departLane="free"/>
  <flow id="JF378867" begin="120" fromJunction="J0" toJunction="J3" end="180" vehsPerHour="357.3319725934139" departLane="free"/>
  <flow id="JF378868" begin="120" fromJunction="J0" toJunction="J4" end="180" vehsPerHour="201.86261338640506" departLane="free"/>
  <flow id="JF378869" begin="120" fromJunction="J0" toJunction="J6" end="180" vehsPerHour="356.2729306731482" departLane="free"/>
  <flow id="JF378870" begin="120" fromJunction="J0" toJunction="J7" end="180" vehsPerHour="276.5655922419448" departLane="free"/>
  <flow id="JF378871" begin="120" fromJunction="J3" toJunction="J0" end="180" vehsPerHour="161.22611897348932" departLane="free"/>
  <flow id="JF378872" begin="120" fromJunction="J3" toJunction="J5" end="180" vehsPerHour="210.92704472456043" departLane="free"/>
  <flow id="JF378873" begin="120" fromJunction="J3" toJunction="J6" end="180" vehsPerHour="54.38274613781433" departLane="free"/>
  <flow id="JF378874" begin="120" fromJunction="J3" toJunction="J7" end="180" vehsPerHour="175.46515896025082" departLane="free"/>
  <flow id="JF378875" begin="120" fromJunction="J4" toJunction="J0" end="180" vehsPerHour="101.1742792383567" departLane="free"/>
  <flow id="JF378876" begin="120" fromJunction="J4" toJunction="J3" end="180" vehsPerHour="216.23894411547244" departLane="free"/>
  <flow id="JF378877" begin="120" fromJunction="J4" toJunction="J5" end="180" vehsPerHour="235.34906329960683" departLane="free"/>
  <flow id="JF378878" begin="120" fromJunction="J4" toJunction="J6" end="180" vehsPerHour="141.12594444261475" departLane="free"/>
  <flow id="JF378879" begin="120" fromJunction="J4" toJunction="J7" end="180" vehsPerHour="207.37806257242838" departLane="free"/>
  <flow id="JF378880" begin="120" fromJunction="J5" toJunction="J0" end="180" vehsPerHour="17.155757974957755" departLane="free"/>
  <flow id="JF378881" begin="120" fromJunction="J5" toJunction="J4" end="180" vehsPerHour="97.2175710270648" departLane="free"/>
  <flow id="JF378882" begin="120" fromJunction="J5" toJunction="J6" end="180" vehsPerHour="191.3191308763496" departLane="free"/>
  <flow id="JF378883" begin="120" fromJunction="J5" toJunction="J7" end="180" vehsPerHour="47.11669803596931" departLane="free"/>
  <flow id="JF378884" begin="120" fromJunction="J6" toJunction="J7" end="180" vehsPerHour="104.47013894272425" departLane="free"/>
  <flow id="JF378885" begin="120" fromJunction="J7" toJunction="J0" end="180" vehsPerHour="101.26717883771626" departLane="free"/>
  <flow id="JF378886" begin="120" fromJunction="J7" toJunction="J4" end="180" vehsPerHour="234.31611422448424" departLane="free"/>
  <flow id="JF378887" begin="180" fromJunction="J0" toJunction="J3" end="240" vehsPerHour="125.74070973111135" departLane="free"/>
  <flow id="JF378888" begin="180" fromJunction="J0" toJunction="J4" end="240" vehsPerHour="544.1200585238904" departLane="free"/>
  <flow id="JF378889" begin="180" fromJunction="J0" toJunction="J5" end="240" vehsPerHour="67.37293773317535" departLane="free"/>
  <flow id="JF378890" begin="180" fromJunction="J0" toJunction="J7" end="240" vehsPerHour="33.42239050826598" departLane="free"/>
  <flow id="JF378891" begin="180" fromJunction="J3" toJunction="J0" end="240" vehsPerHour="539.0293138473345" departLane="free"/>
  <flow id="JF378892" begin="180" fromJunction="J3" toJunction="J5" end="240" vehsPerHour="487.7781847288768" departLane="free"/>
  <flow id="JF378893" begin="180" fromJunction="J3" toJunction="J6" end="240" vehsPerHour="203.61593141024392" departLane="free"/>
  <flow id="JF378894" begin="180" fromJunction="J3" toJunction="J7" end="240" vehsPerHour="331.2075399922717" departLane="free"/>
  <flow id="JF378895" begin="180" fromJunction="J4" toJunction="J0" end="240" vehsPerHour="220.84332193141904" departLane="free"/>
  <flow id="JF378896" begin="180" fromJunction="J4" toJunction="J3" end="240" vehsPerHour="54.7508699138933" departLane="free"/>
  <flow id="JF378897" begin="180" fromJunction="J4" toJunction="J5" end="240" vehsPerHour="148.10817058554747" departLane="free"/>
  <flow id="JF378898" begin="180" fromJunction="J4" toJunction="J6" end="240" vehsPerHour="69.6478433130941" departLane="free"/>
  <flow id="JF378899" begin="180" fromJunction="J4" toJunction="J7" end="240" vehsPerHour="228.2892032831062" departLane="free"/>
  <flow id="JF378900" begin="180" fromJunction="J5" toJunction="J0" end="240" vehsPerHour="81.5556697473971" departLane="free"/>
  <flow id="JF378901" begin="180" fromJunction="J5" toJunction="J3" end="240" vehsPerHour="128.45574300101762" departLane="free"/>
  <flow id="JF378902" begin="180" fromJunction="J5" toJunction="J4" end="240" vehsPerHour="56.35910930785633" departLane="free"/>
  <flow id="JF378903" begin="180" fromJunction="J5" toJunction="J7" end="240" vehsPerHour="103.0849796007411" departLane="free"/>
  <flow id="JF378904" begin="180" fromJunction="J6" toJunction="J3" end="240" vehsPerHour="186.60293933956893" departLane="free"/>
  <flow id="JF378905" begin="180" fromJunction="J6" toJunction="J4" end="240" vehsPerHour="158.05546521044081" departLane="free"/>
  <flow id="JF378906" begin="180" fromJunction="J6" toJunction="J7" end="240" vehsPerHour="152.09968871924585" departLane="free"/>
  <flow id="JF378907" begin="180" fromJunction="J7" toJunction="J3" end="240" vehsPerHour="168.7030540903422" departLane="free"/>
  <flow id="JF378908" begin="180" fromJunction="J7" toJunction="J4" end="240" vehsPerHour="95.67761473548602" departLane="free"/>
  <flow id="JF378909" begin="240" fromJunction="J0" toJunction="J3" end="300" vehsPerHour="102.67505838827735" departLane="free"/>
  <flow id="JF378910" begin="240" fromJunction="J0" toJunction="J4" end="300" vehsPerHour="383.6247452966792" departLane="free"/>
  <flow id="JF378911" begin="240" fromJunction="J0" toJunction="J6" end="300" vehsPerHour="263.6389544790045" departLane="free"/>
  <flow id="JF378912" begin="240" fromJunction="J0" toJunction="J7" end="300" vehsPerHour="281.48056616217434" departLane="free"/>
  <flow id="JF378913" begin="240" fromJunction="J3" toJunction="J0" end="300" vehsPerHour="308.029794027982" departLane="free"/>
  <flow id="JF378914" begin="240" fromJunction="J3" toJunction="J4" end="300" vehsPerHour="349.80989955566486" departLane="free"/>
  <flow id="JF378915" begin="240" fromJunction="J3" toJunction="J6" end="300" vehsPerHour="372.4772504590756" departLane="free"/>
  <flow id="JF378916" begin="240" fromJunction="J3" toJunction="J7" end="300" vehsPerHour="28.500396983522318" departLane="free"/>
  <flow id="JF378917" begin="240" fromJunction="J4" toJunction="J3" end="300" vehsPerHour="250.1822621003639" departLane="free"/>
  <flow id="JF378918" begin="240" fromJunction="J4" toJunction="J5" end="300" vehsPerHour="15.315155924253785" departLane="free"/>
  <flow id="JF378919" begin="240" fromJunction="J4" toJunction="J6" end="300" vehsPerHour="158.56197346938572" departLane="free"/>
  <flow id="JF378920" begin="240" fromJunction="J4" toJunction="J7" end="300" vehsPerHour="142.39345478224342" departLane="free"/>
  <flow id="JF378921" begin="240" fromJunction="J5" toJunction="J0" end="300" vehsPerHour="156.52584304103667" departLane="free"/>
  <flow id="JF378922" begin="240" fromJunction="J5" toJunction="J3" end="300" vehsPerHour="98.48102571564631" departLane="free"/>
  <flow id="JF378923" begin="240" fromJunction="J5" toJunction="J6" end="300" vehsPerHour="198.24695124270434" departLane="free"/>
  <flow id="JF378924" begin="240" fromJunction="J5" toJunction="J7" end="300" vehsPerHour="149.51133172184913" departLane="free"/>
  <flow id="JF378925" begin="240" fromJunction="J6" toJunction="J0" end="300" vehsPerHour="108.702879887377" departLane="free"/>
  <flow id="JF378926" begin="240" fromJunction="J6" toJunction="J3" end="300" vehsPerHour="9.469047736701187" departLane="free"/>
  <flow id="JF378927" begin="240" fromJunction="J6" toJunction="J4" end="300" vehsPerHour="32.71931504196729" departLane="free"/>
  <flow id="JF378928" begin="240" fromJunction="J6" toJunction="J5" end="300" vehsPerHour="78.7447597771946" departLane="free"/>
  <flow id="JF378929" begin="240" fromJunction="J6" toJunction="J7" end="300" vehsPerHour="7.251560022834755" departLane="free"/>
  <flow id="JF378930" begin="240" fromJunction="J7" toJunction="J0" end="300" vehsPerHour="182.20188530445023" departLane="free"/>
  <flow id="JF378931" begin="240" fromJunction="J7" toJunction="J4" end="300" vehsPerHour="54.924721056578605" departLane="free"/>
  <flow id="JF378932" begin="240" fromJunction="J7" toJunction="J5" end="300" vehsPerHour="20.358553352656763" departLane="free"/>
  <flow id="JF378933" begin="300" fromJunction="J0" toJunction="J4" end="360" vehsPerHour="311.5997843138442" departLane="free"/>
  <flow id="JF378934" begin="300" fromJunction="J0" toJunction="J5" end="360" vehsPerHour="57.199683908203795" departLane="free"/>
  <flow id="JF378935" begin="300" fromJunction="J0" toJunction="J7" end="360" vehsPerHour="415.64145308370206" departLane="free"/>
  <flow id="JF378936" begin="300" fromJunction="J3" toJunction="J0" end="360" vehsPerHour="328.17677157824426" departLane="free"/>
  <flow id="JF378937" begin="300" fromJunction="J3" toJunction="J4" end="360" vehsPerHour="168.4267633399773" departLane="free"/>
  <flow id="JF378938" begin="300" fromJunction="J3" toJunction="J5" end="360" vehsPerHour="187.56962842010998" departLane="free"/>
  <flow id="JF378939" begin="300" fromJunction="J3" toJunction="J7" end="360" vehsPerHour="21.057609499930262" departLane="free"/>
  <flow id="JF378940" begin="300" fromJunction="J4" toJunction="J0" end="360" vehsPerHour="269.4261513865288" departLane="free"/>
  <flow id="JF378941" begin="300" fromJunction="J4" toJunction="J3" end="360" vehsPerHour="208.06576288571083" departLane="free"/>
  <flow id="JF378942" begin="300" fromJunction="J4" toJunction="J5" end="360" vehsPerHour="29.212213149489465" departLane="free"/>
  <flow id="JF378943" begin="300" fromJunction="J5" toJunction="J0" end="360" vehsPerHour="87.03596082725375" departLane="free"/>
  <flow id="JF378944" begin="300" fromJunction="J5" toJunction="J3" end="360" vehsPerHour="111.91419805131218" departLane="free"/>
  <flow id="JF378945" begin="300" fromJunction="J5" toJunction="J4" end="360" vehsPerHour="2.831760103235404" departLane="free"/>
  <flow id="JF378946" begin="300" fromJunction="J5" toJunction="J6" end="360" vehsPerHour="103.60133386997666" departLane="free"/>
  <flow id="JF378947" begin="300" fromJunction="J6" toJunction="J3" end="360" vehsPerHour="208.70863869572668" departLane="free"/>
  <flow id="JF378948" begin="300" fromJunction="J6" toJunction="J4" end="360" vehsPerHour="81.9444793920958" departLane="free"/>
  <flow id="JF378949" begin="300" fromJunction="J7" toJunction="J0" end="360" vehsPerHour="84.36564488696762" departLane="free"/>
  <flow id="JF378950" begin="300" fromJunction="J7" toJunction="J4" end="360" vehsPerHour="273.5003743902597" departLane="free"/>
  <flow id="JF378951" begin="300" fromJunction="J7" toJunction="J5" end="360" vehsPerHour="58.29188078882707" departLane="free"/>
  <flow id="JF378952" begin="300" fromJunction="J7" toJunction="J6" end="360" vehsPerHour="193.1699680963473" departLane="free"/>
  <flow id="JF378953" begin="360" fromJunction="J0" toJunction="J3" end="420" vehsPerHour="1.630237279876439" departLane="free"/>
  <flow id="JF378954" begin="360" fromJunction="J0" toJunction="J4" end="420" vehsPerHour="376.59781343660643" departLane="free"/>
  <flow id="JF378955" begin="360" fromJunction="J0" toJunction="J5" end="420" vehsPerHour="449.3557983926394" departLane="free"/>
  <flow id="JF378956" begin="360" fromJunction="J0" toJunction="J6" end="420" vehsPerHour="65.42564028465169" departLane="free"/>
  <flow id="JF378957" begin="360" fromJunction="J3" toJunction="J4" end="420" vehsPerHour="94.44941104230476" departLane="free"/>
  <flow id="JF378958" begin="360" fromJunction="J3" toJunction="J6" end="420" vehsPerHour="7.852626268203915" departLane="free"/>
  <flow id="JF378959" begin="360" fromJunction="J3" toJunction="J7" end="420" vehsPerHour="11.830271916689213" departLane="free"/>
  <flow id="JF378960" begin="360" fromJunction="J4" toJunction="J0" end="420" vehsPerHour="41.3461075134249" departLane="free"/>
  <flow id="JF378961" begin="360" fromJunction="J5" toJunction="J3" end="420" vehsPerHour="74.97190584504524" departLane="free"/>
  <flow id="JF378962" begin="360" fromJunction="J5" toJunction="J4" end="420" vehsPerHour="108.18814278275403" departLane="free"/>
  <flow id="JF378963" begin="360" fromJunction="J5" toJunction="J6" end="420" vehsPerHour="124.11085402520237" departLane="free"/>
  <flow id="JF378964" begin="360" fromJunction="J6" toJunction="J3" end="420" vehsPerHour="94.00246246890846" departLane="free"/>
  <flow id="JF378965" begin="360" fromJunction="J6" toJunction="J4" end="420" vehsPerHour="151.66595630403256" departLane="free"/>
  <flow id="JF378966" begin="360" fromJunction="J6" toJunction="J5" end="420" vehsPerHour="258.3554523115106" departLane="free"/>
  <flow id="JF378967" begin="360" fromJunction="J6" toJunction="J7" end="420" vehsPerHour="17.52607180032884" departLane="free"/>
  <flow id="JF378968" begin="360" fromJunction="J7" toJunction="J0" end="420" vehsPerHour="85.09489171881387" departLane="free"/>
  <flow id="JF378969" begin="360" fromJunction="J7" toJunction="J3" end="420" vehsPerHour="243.5956487666686" departLane="free"/>
  <flow id="JF378970" begin="360" fromJunction="J7" toJunction="J4" end="420" vehsPerHour="69.6042307367134" departLane="free"/>
  <flow id="JF378971" begin="360" fromJunction="J7" toJunction="J5" end="420" vehsPerHour="241.08855421793984" departLane="free"/>
  <flow id="JF378972" begin="360" fromJunction="J7" toJunction="J6" end="420" vehsPerHour="9.041920313200299" departLane="free"/>
  <flow id="JF378973" begin="420" fromJunction="J0" toJunction="J3" end="480" vehsPerHour="329.1519821917028" departLane="free"/>
  <flow id="JF378974" begin="420" fromJunction="J0" toJunction="J4" end="480" vehsPerHour="469.81178868666865" departLane="free"/>
  <flow id="JF378975" begin="420" fromJunction="J0" toJunction="J5" end="480" vehsPerHour="433.54466479378465" departLane="free"/>
  <flow id="JF378976" begin="420" fromJunction="J0" toJunction="J6" end="480" vehsPerHour="547.1432346221605" departLane="free"/>
  <flow id="JF378977" begin="420" fromJunction="J0" toJunction="J7" end="480" vehsPerHour="369.82985431215366" departLane="free"/>
  <flow id="JF378978" begin="420" fromJunction="J3" toJunction="J0" end="480" vehsPerHour="197.56890487185635" departLane="free"/>
  <flow id="JF378979" begin="420" fromJunction="J3" toJunction="J4" end="480" vehsPerHour="183.71177797096223" departLane="free"/>
  <flow id="JF378980" begin="420" fromJunction="J3" toJunction="J5" end="480" vehsPerHour="297.2505830603487" departLane="free"/>
  <flow id="JF378981" begin="420" fromJunction="J3" toJunction="J7" end="480" vehsPerHour="372.1584755399096" departLane="free"/>
  <flow id="JF378982" begin="420" fromJunction="J4" toJunction="J3" end="480" vehsPerHour="154.5660997913469" departLane="free"/>
  <flow id="JF378983" begin="420" fromJunction="J4" toJunction="J6" end="480" vehsPerHour="146.32005287045672" departLane="free"/>
  <flow id="JF378984" begin="420" fromJunction="J4" toJunction="J7" end="480" vehsPerHour="70.25553463088217" departLane="free"/>
  <flow id="JF378985" begin="420" fromJunction="J5" toJunction="J0" end="480" vehsPerHour="274.4097842241776" departLane="free"/>
  <flow id="JF378986" begin="420" fromJunction="J5" toJunction="J3" end="480" vehsPerHour="105.42560506857997" departLane="free"/>
  <flow id="JF378987" begin="420" fromJunction="J5" toJunction="J7" end="480" vehsPerHour="33.12661342130091" departLane="free"/>
  <flow id="JF378988" begin="420" fromJunction="J6" toJunction="J0" end="480" vehsPerHour="144.01249029446726" departLane="free"/>
  <flow id="JF378989" begin="420" fromJunction="J6" toJunction="J3" end="480" vehsPerHour="122.18193631186645" departLane="free"/>
  <flow id="JF378990" begin="420" fromJunction="J6" toJunction="J5" end="480" vehsPerHour="186.9544485361281" departLane="free"/>
  <flow id="JF378991" begin="420" fromJunction="J6" toJunction="J7" end="480" vehsPerHour="83.5947961485317" departLane="free"/>
  <flow id="JF378992" begin="420" fromJunction="J7" toJunction="J0" end="480" vehsPerHour="226.41247170255355" departLane="free"/>
  <flow id="JF378993" begin="420" fromJunction="J7" toJunction="J3" end="480" vehsPerHour="251.13957879068556" departLane="free"/>
  <flow id="JF378994" begin="420" fromJunction="J7" toJunction="J4" end="480" vehsPerHour="54.72932372168859" departLane="free"/>
  <flow id="JF378995" begin="420" fromJunction="J7" toJunction="J6" end="480" vehsPerHour="97.01312476708556" departLane="free"/>
  <flow id="JF378996" begin="480" fromJunction="J0" toJunction="J3" end="540" vehsPerHour="71.68202646026224" departLane="free"/>
  <flow id="JF378997" begin="480" fromJunction="J3" toJunction="J0" end="540" vehsPerHour="42.21877157600078" departLane="free"/>
  <flow id="JF378998" begin="480" fromJunction="J3" toJunction="J4" end="540" vehsPerHour="132.23559662990718" departLane="free"/>
  <flow id="JF378999" begin="480" fromJunction="J3" toJunction="J5" end="540" vehsPerHour="213.6039931067741" departLane="free"/>
  <flow id="JF379000" begin="480" fromJunction="J3" toJunction="J7" end="540" vehsPerHour="136.78814187807592" departLane="free"/>
  <flow id="JF379001" begin="480" fromJunction="J4" toJunction="J0" end="540" vehsPerHour="160.13406482388163" departLane="free"/>
  <flow id="JF379002" begin="480" fromJunction="J4" toJunction="J3" end="540" vehsPerHour="220.06655919903673" departLane="free"/>
  <flow id="JF379003" begin="480" fromJunction="J4" toJunction="J6" end="540" vehsPerHour="81.23876276697588" departLane="free"/>
  <flow id="JF379004" begin="480" fromJunction="J4" toJunction="J7" end="540" vehsPerHour="57.76774538080587" departLane="free"/>
  <flow id="JF379005" begin="480" fromJunction="J5" toJunction="J0" end="540" vehsPerHour="3.9360457326729374" departLane="free"/>
  <flow id="JF379006" begin="480" fromJunction="J5" toJunction="J3" end="540" vehsPerHour="241.26954686946516" departLane="free"/>
  <flow id="JF379007" begin="480" fromJunction="J5" toJunction="J4" end="540" vehsPerHour="270.83015468305535" departLane="free"/>
  <flow id="JF379008" begin="480" fromJunction="J5" toJunction="J6" end="540" vehsPerHour="213.49386797332818" departLane="free"/>
  <flow id="JF379009" begin="480" fromJunction="J5" toJunction="J7" end="540" vehsPerHour="100.50283984103454" departLane="free"/>
  <flow id="JF379010" begin="480" fromJunction="J6" toJunction="J0" end="540" vehsPerHour="207.1787919731056" departLane="free"/>
  <flow id="JF379011" begin="480" fromJunction="J6" toJunction="J3" end="540" vehsPerHour="206.31796176401983" departLane="free"/>
  <flow id="JF379012" begin="480" fromJunction="J6" toJunction="J4" end="540" vehsPerHour="228.5307284920498" departLane="free"/>
  <flow id="JF379013" begin="480" fromJunction="J6" toJunction="J5" end="540" vehsPerHour="223.67343665353172" departLane="free"/>
  <flow id="JF379014" begin="480" fromJunction="J7" toJunction="J0" end="540" vehsPerHour="236.74676497652445" departLane="free"/>
  <flow id="JF379015" begin="480" fromJunction="J7" toJunction="J3" end="540" vehsPerHour="273.5646103357029" departLane="free"/>
  <flow id="JF379016" begin="480" fromJunction="J7" toJunction="J4" end="540" vehsPerHour="180.79759592281323" departLane="free"/>
  <flow id="JF379017" begin="480" fromJunction="J7" toJunction="J5" end="540" vehsPerHour="127.6506402923938" departLane="free"/>
  <flow id="JF379018" begin="480" fromJunction="J7" toJunction="J6" end="540" vehsPerHour="53.5001804624233" departLane="free"/>
  <flow id="JF379019" begin="540" fromJunction="J0" toJunction="J3" end="600" vehsPerHour="464.62372000086276" departLane="free"/>
  <flow id="JF379020" begin="540" fromJunction="J0" toJunction="J4" end="600" vehsPerHour="224.5147840981552" departLane="free"/>
  <flow id="JF379021" begin="540" fromJunction="J0" toJunction="J5" end="600" vehsPerHour="223.8043901212379" departLane="free"/>
  <flow id="JF379022" begin="540" fromJunction="J0" toJunction="J7" end="600" vehsPerHour="4.307434307731585" departLane="free"/>
  <flow id="JF379023" begin="540" fromJunction="J3" toJunction="J0" end="600" vehsPerHour="387.1046517403957" departLane="free"/>
  <flow id="JF379024" begin="540" fromJunction="J3" toJunction="J5" end="600" vehsPerHour="261.0932272447098" departLane="free"/>
  <flow id="JF379025" begin="540" fromJunction="J3" toJunction="J6" end="600" vehsPerHour="246.22321499524014" departLane="free"/>
  <flow id="JF379026" begin="540" fromJunction="J3" toJunction="J7" end="600" vehsPerHour="26.990478331130934" departLane="free"/>
  <flow id="JF379027" begin="540" fromJunction="J4" toJunction="J3" end="600" vehsPerHour="267.6196236241558" departLane="free"/>
  <flow id="JF379028" begin="540" fromJunction="J4" toJunction="J5" end="600" vehsPerHour="195.13888394535317" departLane="free"/>
  <flow id="JF379029" begin="540" fromJunction="J4" toJunction="J6" end="600" vehsPerHour="97.16448634503425" departLane="free"/>
  <flow id="JF379030" begin="540" fromJunction="J5" toJunction="J0" end="600" vehsPerHour="23.365702285204087" departLane="free"/>
  <flow id="JF379031" begin="540" fromJunction="J5" toJunction="J3" end="600" vehsPerHour="2.5349790187491537" departLane="free"/>
  <flow id="JF379032" begin="540" fromJunction="J5" toJunction="J6" end="600" vehsPerHour="82.625153603634" departLane="free"/>
  <flow id="JF379033" begin="540" fromJunction="J5" toJunction="J7" end="600" vehsPerHour="91.53558103583744" departLane="free"/>
  <flow id="JF379034" begin="540" fromJunction="J6" toJunction="J0" end="600" vehsPerHour="165.94293568468697" departLane="free"/>
  <flow id="JF379035" begin="540" fromJunction="J6" toJunction="J3" end="600" vehsPerHour="215.5306574378407" departLane="free"/>
  <flow id="JF379036" begin="540" fromJunction="J6" toJunction="J4" end="600" vehsPerHour="31.252664641491776" departLane="free"/>
  <flow id="JF379037" begin="540" fromJunction="J6" toJunction="J5" end="600" vehsPerHour="65.88612549812768" departLane="free"/>
  <flow id="JF379038" begin="540" fromJunction="J6" toJunction="J7" end="600" vehsPerHour="249.48355940214242" departLane="free"/>
  <flow id="JF379039" begin="540" fromJunction="J7" toJunction="J0" end="600" vehsPerHour="214.6109176148052" departLane="free"/>
  <flow id="JF379040" begin="540" fromJunction="J7" toJunction="J3" end="600" vehsPerHour="90.78887055692178" departLane="free"/>
  <flow id="JF379041" begin="540" fromJunction="J7" toJunction="J4" end="600" vehsPerHour="20.94428683027725" departLane="free"/>
  <flow id="JF379042" begin="600" fromJunction="J0" toJunction="J3" end="660" vehsPerHour="536.6081621345689" departLane="free"/>
  <flow id="JF379043" begin="600" fromJunction="J0" toJunction="J4" end="660" vehsPerHour="195.06877540801798" departLane="free"/>
  <flow id="JF379044" begin="600" fromJunction="J0" toJunction="J5" end="660" vehsPerHour="132.1407899325662" departLane="free"/>
  <flow id="JF379045" begin="600" fromJunction="J0" toJunction="J7" end="660" vehsPerHour="23.672783073964926" departLane="free"/>
  <flow id="JF379046" begin="600" fromJunction="J3" toJunction="J0" end="660" vehsPerHour="229.79197015784075" departLane="free"/>
  <flow id="JF379047" begin="600" fromJunction="J3" toJunction="J4" end="660" vehsPerHour="109.71865792333986" departLane="free"/>
  <flow id="JF379048" begin="600" fromJunction="J3" toJunction="J5" end="660" vehsPerHour="378.60635386208895" departLane="free"/>
  <flow id="JF379049" begin="600" fromJunction="J3" toJunction="J7" end="660" vehsPerHour="369.23330128648985" departLane="free"/>
  <flow id="JF379050" begin="600" fromJunction="J4" toJunction="J0" end="660" vehsPerHour="9.22224726879363" departLane="free"/>
  <flow id="JF379051" begin="600" fromJunction="J4" toJunction="J3" end="660" vehsPerHour="120.8835630909899" departLane="free"/>
  <flow id="JF379052" begin="600" fromJunction="J4" toJunction="J6" end="660" vehsPerHour="247.9709811342549" departLane="free"/>
  <flow id="JF379053" begin="600" fromJunction="J5" toJunction="J3" end="660" vehsPerHour="24.984852157679903" departLane="free"/>
  <flow id="JF379054" begin="600" fromJunction="J5" toJunction="J7" end="660" vehsPerHour="232.35727723436386" departLane="free"/>
  <flow id="JF379055" begin="600" fromJunction="J6" toJunction="J3" end="660" vehsPerHour="144.2613973524144" departLane="free"/>