<?xml version="1.0" encoding="UTF-8"?>
<routes xmlns:xsi="http://www.w3.org/2001/XMLSchema-instance" xsi:noNamespaceSchemaLocation="http://sumo.dlr.de/xsd/routes_file.xsd">
  <flow id="JF377027" begin="0" fromJunction="J0" toJunction="J3" end="60" vehsPerHour="380.1826688920613" departLane="free"/>
  <flow id="JF377028" begin="0" fromJunction="J0" toJunction="J5" end="60" vehsPerHour="58.6152342648834" departLane="free"/>
  <flow id="JF377029" begin="0" fromJunction="J3" toJunction="J0" end="60" vehsPerHour="453.4635526063147" departLane="free"/>
  <flow id="JF377030" begin="0" fromJunction="J3" toJunction="J4" end="60" vehsPerHour="218.56361754785175" departLane="free"/>
  <flow id="JF377031" begin="0" fromJunction="J3" toJunction="J5" end="60" vehsPerHour="123.27668831728334" departLane="free"/>
  <flow id="JF377032" begin="0" fromJunction="J3" toJunction="J6" end="60" vehsPerHour="320.0222231210582" departLane="free"/>
  <flow id="JF377033" begin="0" fromJunction="J3" toJunction="J7" end="60" vehsPerHour="440.89488578429507" departLane="free"/>
  <flow id="JF377034" begin="0" fromJunction="J4" toJunction="J0" end="60" vehsPerHour="147.68777418327144" departLane="free"/>
  <flow id="JF377035" begin="0" fromJunction="J4" toJunction="J5" end="60" vehsPerHour="243.1648825383415" departLane="free"/>
  <flow id="JF377036" begin="0" fromJunction="J5" toJunction="J0" end="60" vehsPerHour="247.92907454427285" departLane="free"/>
  <flow id="JF377037" begin="0" fromJunction="J5" toJunction="J3" end="60" vehsPerHour="227.39955823903335" departLane="free"/>
  <flow id="JF377038" begin="0" fromJunction="J5" toJunction="J4" end="60" vehsPerHour="210.16078081222855" departLane="free"/>
  <flow id="JF377039" begin="0" fromJunction="J5" toJunction="J6" end="60" vehsPerHour="264.39068894418926" departLane="free"/>
  <flow id="JF377040" begin="0" fromJunction="J6" toJunction="J7" end="60" vehsPerHour="265.5118820604394" departLane="free"/>
  <flow id="JF377041" begin="0" fromJunction="J7" toJunction="J4" end="60" vehsPerHour="8.457672143803322" departLane="free"/>
  <flow id="JF377042" begin="0" fromJunction="J7" toJunction="J5" end="60" vehsPerHour="229.4493647134931" departLane="free"/>
  <flow id="JF377043" begin="0" fromJunction="J7" toJunction="J6" end="60" vehsPerHour="217.16107219739695" departLane="free"/>
  <flow id="JF377044" begin="60" fromJunction="J0" toJunction="J3" end="120" vehsPerHour="166.82822264883785" departLane="free"/>
  <flow id="JF377045" begin="60" fromJunction="J0" toJunction="J4" end="120" vehsPerHour="169.42500211185967" departLane="free"/>
  <flow id="JF377046" begin="60" fromJunction="J0" toJunction="J5" end="120" vehsPerHour="106.93266058398679" departLane="free"/>
  <flow id="JF377047" begin="60" fromJunction="J0" toJunction="J6" end="120" vehsPerHour="305.91133147057286" departLane="free"/>
  <flow id="JF377048" begin="60" fromJunction="J3" toJunction="J4" end="120" vehsPerHour="339.24809058476484" departLane="free"/>
  <flow id="JF377049" begin="60" fromJunction="J3" toJunction="J5" end="120" vehsPerHour="522.9438194114416" departLane="free"/>
  <flow id="JF377050" begin="60" fromJunction="J3" toJunction="J6" end="120" vehsPerHour="114.64952109123298" departLane="free"/>
  <flow id="JF377051" begin="60" fromJunction="J4" toJunction="J0" end="120" vehsPerHour="32.22177370876093" departLane="free"/>
  <flow id="JF377052" begin="60" fromJunction="J4" toJunction="J3" end="120" vehsPerHour="192.1910328949002" departLane="free"/>
  <flow id="JF377053" begin="60" fromJunction="J4" toJunction="J5" end="120" vehsPerHour="146.17228188316892" departLane="free"/>
  <flow id="JF377054" begin="60" fromJunction="J4" toJunction="J6" end="120" vehsPerHour="254.1366065153608" departLane="free"/>
  <flow id="JF377055" begin="60" fromJunction="J4" toJunction="J7" end="120" vehsPerHour="133.21645687436867" departLane="free"/>
  <flow id="JF377056" begin="60" fromJunction="J5" toJunction="J0" end="120" vehsPerHour="93.89817029062415" departLane="free"/>
  <flow id="JF377057" begin="60" fromJunction="J5" toJunction="J6" end="120" vehsPerHour="13.593788509144355" departLane="free"/>
  <flow id="JF377058" begin="60" fromJunction="J5" toJunction="J7" end="120" vehsPerHour="50.365849729631236" departLane="free"/>
  <flow id="JF377059" begin="60" fromJunction="J6" toJunction="J0" end="120" vehsPerHour="59.01126126429518" departLane="free"/>
  <flow id="JF377060" begin="60" fromJunction="J6" toJunction="J3" end="120" vehsPerHour="250.9572280963087" departLane="free"/>
  <flow id="JF377061" begin="60" fromJunction="J6" toJunction="J4" end="120" vehsPerHour="161.2926951283111" departLane="free"/>
  <flow id="JF377062" begin="60" fromJunction="J6" toJunction="J5" end="120" vehsPerHour="216.16508015542016" departLane="free"/>
  <flow id="JF377063" begin="60" fromJunction="J6" toJunction="J7" end="120" vehsPerHour="88.45581021903011" departLane="free"/>
  <flow id="JF377064" begin="60" fromJunction="J7" toJunction="J4" end="120" vehsPerHour="258.6575071051412" departLane="free"/>
  <flow id="JF377065" begin="120" fromJunction="J0" toJunction="J3" end="180" vehsPerHour="533.0667042639916" departLane="free"/>
  <flow id="JF377066" begin="120" fromJunction="J0" toJunction="J7" end="180" vehsPerHour="477.161790661519" departLane="free"/>
  <flow id="JF377067" begin="120" fromJunction="J3" toJunction="J4" end="180" vehsPerHour="301.327057712338" departLane="free"/>
  <flow id="JF377068" begin="120" fromJunction="J3" toJunction="J5" end="180" vehsPerHour="257.63871712304507" departLane="free"/>
  <flow id="JF377069" begin="120" fromJunction="J3" toJunction="J6" end="180" vehsPerHour="426.79642788974235" departLane="free"/>
  <flow id="JF377070" begin="120" fromJunction="J3" toJunction="J7" end="180" vehsPerHour="525.9685303662595" departLane="free"/>
  <flow id="JF377071" begin="120" fromJunction="J4" toJunction="J0" end="180" vehsPerHour="68.60421827960445" departLane="free"/>
  <flow id="JF377072" begin="120" fromJunction="J4" toJunction="J3" end="180" vehsPerHour="204.40067335273824" departLane="free"/>
  <flow id="JF377073" begin="120" fromJunction="J4" toJunction="J5" end="180" vehsPerHour="181.02711351422016" departLane="free"/>
  <flow id="JF377074" begin="120" fromJunction="J4" toJunction="J6" end="180" vehsPerHour="41.23233893855674" departLane="free"/>
  <flow id="JF377075" begin="120" fromJunction="J4" toJunction="J7" end="180" vehsPerHour="211.38913320973455" departLane="free"/>
  <flow id="JF377076" begin="120" fromJunction="J5" toJunction="J0" end="180" vehsPerHour="72.62478396406031" departLane="free"/>
  <flow id="JF377077" begin="120" fromJunction="J5" toJunction="J3" end="180" vehsPerHour="211.0079179688009" departLane="free"/>
  <flow id="JF377078" begin="120" fromJunction="J5" toJunction="J7" end="180" vehsPerHour="270.8501579581549" departLane="free"/>
  <flow id="JF377079" begin="120" fromJunction="J6" toJunction="J4" end="180" vehsPerHour="249.80926306550137" departLane="free"/>
  <flow id="JF377080" begin="120" fromJunction="J6" toJunction="J7" end="180" vehsPerHour="122.71293366850286" departLane="free"/>
  <flow id="JF377081" begin="120" fromJunction="J7" toJunction="J0" end="180" vehsPerHour="135.34142793501144" departLane="free"/>
  <flow id="JF377082" begin="120" fromJunction="J7" toJunction="J3" end="180" vehsPerHour="2.216736515957275" departLane="free"/>
  <flow id="JF377083" begin="120" fromJunction="J7" toJunction="J4" end="180" vehsPerHour="272.1109714741529" departLane="free"/>
  <flow id="JF377084" begin="120" fromJunction="J7" toJunction="J5" end="180" vehsPerHour="81.25513462993909" departLane="free"/>
  <flow id="JF377085" begin="120" fromJunction="J7" toJunction="J6" end="180" vehsPerHour="92.40883532565371" departLane="free"/>
  <flow id="JF377086" begin="180" fromJunction="J0" toJunction="J3" end="240" vehsPerHour="74.11964135864763" departLane="free"/>
  <flow id="JF377087" begin="180" fromJunction="J0" toJunction="J4" end="240" vehsPerHour="457.80566622512015" departLane="free"/>
  <flow id="JF377088" begin="180" fromJunction="J0" toJunction="J5" end="240" vehsPerHour="540.3267336272825" departLane="free"/>
  <flow id="JF377089" begin="180" fromJunction="J0" toJunction="J6" end="240" vehsPerHour="14.660249212336018" departLane="free"/>
  <flow id="JF377090" begin="180" fromJunction="J0" toJunction="J7" end="240" vehsPerHour="100.92419594200324" departLane="free"/>
  <flow id="JF377091" begin="180" fromJunction="J3" toJunction="J0" end="240" vehsPerHour="9.440359449938349" departLane="free"/>
  <flow id="JF377092" begin="180" fromJunction="J3" toJunction="J4" end="240" vehsPerHour="161.69300110311178" departLane="free"/>
  <flow id="JF377093" begin="180" fromJunction="J3" toJunction="J5" end="240" vehsPerHour="180.5092021763377" departLane="free"/>
  <flow id="JF377094" begin="180" fromJunction="J3" toJunction="J6" end="240" vehsPerHour="126.8099671481152" departLane="free"/>
  <flow id="JF377095" begin="180" fromJunction="J4" toJunction="J0" end="240" vehsPerHour="234.61960175030907" departLane="free"/>
  <flow id="JF377096" begin="180" fromJunction="J4" toJunction="J3" end="240" vehsPerHour="250.61809469560674" departLane="free"/>
  <flow id="JF377097" begin="180" fromJunction="J4" toJunction="J5" end="240" vehsPerHour="36.99816128092677" departLane="free"/>
  <flow id="JF377098" begin="180" fromJunction="J4" toJunction="J6" end="240" vehsPerHour="134.50530686544624" departLane="free"/>
  <flow id="JF377099" begin="180" fromJunction="J5" toJunction="J0" end="240" vehsPerHour="221.3828842343678" departLane="free"/>
  <flow id="JF377100" begin="180" fromJunction="J5" toJunction="J3" end="240" vehsPerHour="12.56934724440237" departLane="free"/>
  <flow id="JF377101" begin="180" fromJunction="J5" toJunction="J4" end="240" vehsPerHour="74.06793930877913" departLane="free"/>
  <flow id="JF377102" begin="180" fromJunction="J5" toJunction="J6" end="240" vehsPerHour="257.94384309765866" departLane="free"/>
  <flow id="JF377103" begin="180" fromJunction="J5" toJunction="J7" end="240" vehsPerHour="11.095709971519456" departLane="free"/>
  <flow id="JF377104" begin="180" fromJunction="J6" toJunction="J4" end="240" vehsPerHour="254.6507196441734" departLane="free"/>
  <flow id="JF377105" begin="180" fromJunction="J6" toJunction="J5" end="240" vehsPerHour="29.539741990729492" departLane="free"/>
  <flow id="JF377106" begin="180" fromJunction="J6" toJunction="J7" end="240" vehsPerHour="30.329478263734128" departLane="free"/>
  <flow id="JF377107" begin="180" fromJunction="J7" toJunction="J0" end="240" vehsPerHour="228.10449152109922" departLane="free"/>
  <flow id="JF377108" begin="180" fromJunction="J7" toJunction="J3" end="240" vehsPerHour="185.1486743880576" departLane="free"/>
  <flow id="JF377109" begin="180" fromJunction="J7" toJunction="J4" end="240" vehsPerHour="78.54527793943593" departLane="free"/>
  <flow id="JF377110" begin="180" fromJunction="J7" toJunction="J6" end="240" vehsPerHour="34.36162575328517" departLane="free"/>
  <flow id="JF377111" begin="240" fromJunction="J0" toJunction="J3" end="300" vehsPerHour="67.1036374987591" departLane="free"/>
  <flow id="JF377112" begin="240" fromJunction="J0" toJunction="J5" end="300" vehsPerHour="311.58137908873874" departLane="free"/>
  <flow id="JF377113" begin="240" fromJunction="J0" toJunction="J7" end="300" vehsPerHour="208.35335433445442" departLane="free"/>
  <flow id="JF377114" begin="240" fromJunction="J3" toJunction="J0" end="300" vehsPerHour="245.47444481320727" departLane="free"/>
  <flow id="JF377115" begin="240" fromJunction="J3" toJunction="J4" end="300" vehsPerHour="335.7197579660926" departLane="free"/>
  <flow id="JF377116" begin="240" fromJunction="J3" toJunction="J5" end="300" vehsPerHour="16.8180953230872" departLane="free"/>
  <flow id="JF377117" begin="240" fromJunction="J3" toJunction="J6" end="300" vehsPerHour="279.0552312719665" departLane="free"/>
  <flow id="JF377118" begin="240" fromJunction="J4" toJunction="J0" end="300" vehsPerHour="225.49874553439616" departLane="free"/>
  <flow id="JF377119" begin="240" fromJunction="J4" toJunction="J5" end="300" vehsPerHour="178.78197223570945" departLane="free"/>
  <flow id="JF377120" begin="240" fromJunction="J4" toJunction="J6" end="300" vehsPerHour="6.694269732806424" departLane="free"/>
  <flow id="JF377121" begin="240" fromJunction="J4" toJunction="J7" end="300" vehsPerHour="155.64431946648037" departLane="free"/>
  <flow id="JF377122" begin="240" fromJunction="J5" toJunction="J0" end="300" vehsPerHour="28.53604072124456" departLane="free"/>
  <flow id="JF377123" begin="240" fromJunction="J5" toJunction="J3" end="300" vehsPerHour="47.0207240502892" departLane="free"/>
  <flow id="JF377124" begin="240" fromJunction="J5" toJunction="J6" end="300" vehsPerHour="32.139444410069466" departLane="free"/>
  <flow id="JF377125" begin="240" fromJunction="J6" toJunction="J4" end="300" vehsPerHour="203.8703122806714" departLane="free"/>
  <flow id="JF377126" begin="240" fromJunction="J7" toJunction="J3" end="300" vehsPerHour="79.97280040313355" departLane="free"/>
  <flow id="JF377127" begin="240" fromJunction="J7" toJunction="J4" end="300" vehsPerHour="144.88629599819" departLane="free"/>
  <flow id="JF377128" begin="300" fromJunction="J0" toJunction="J3" end="360" vehsPerHour="23.556476914478907" departLane="free"/>
  <flow id="JF377129" begin="300" fromJunction="J0" toJunction="J4" end="360" vehsPerHour="335.57817911853635" departLane="free"/>
  <flow id="JF377130" begin="300" fromJunction="J0" toJunction="J5" end="360" vehsPerHour="162.99447670949027" departLane="free"/>
  <flow id="JF377131" begin="300" fromJunction="J0" toJunction="J6" end="360" vehsPerHour="435.05663757877875" departLane="free"/>
  <flow id="JF377132" begin="300" fromJunction="J0" toJunction="J7" end="360" vehsPerHour="51.53307488207435" departLane="free"/>
  <flow id="JF377133" begin="300" fromJunction="J3" toJunction="J0" end="360" vehsPerHour="122.38916319861856" departLane="free"/>
  <flow id="JF377134" begin="300" fromJunction="J3" toJunction="J6" end="360" vehsPerHour="132.39235890448956" departLane="free"/>
  <flow id="JF377135" begin="300" fromJunction="J3" toJunction="J7" end="360" vehsPerHour="258.2480468280527" departLane="free"/>
  <flow id="JF377136" begin="300" fromJunction="J4" toJunction="J3" end="360" vehsPerHour="197.70127580104202" departLane="free"/>
  <flow id="JF377137" begin="300" fromJunction="J4" toJunction="J5" end="360" vehsPerHour="260.4214846642349" departLane="free"/>
  <flow id="JF377138" begin="300" fromJunction="J4" toJunction="J6" end="360" vehsPerHour="5.418461078740951" departLane="free"/>
  <flow id="JF377139" begin="300" fromJunction="J4" toJunction="J7" end="360" vehsPerHour="137.70829523532012" departLane="free"/>
  <flow id="JF377140" begin="300" fromJunction="J5" toJunction="J3" end="360" vehsPerHour="154.9031918083879" departLane="free"/>
  <flow id="JF377141" begin="300" fromJunction="J5" toJunction="J4" end="360" vehsPerHour="130.03241474482144" departLane="free"/>
  <flow id="JF377142" begin="300" fromJunction="J5" toJunction="J6" end="360" vehsPerHour="36.82001861094815" departLane="free"/>
  <flow id="JF377143" begin="300" fromJunction="J6" toJunction="J4" end="360" vehsPerHour="102.67286583005087" departLane="free"/>
  <flow id="JF377144" begin="300" fromJunction="J6" toJunction="J5" end="360" vehsPerHour="88.38897735298278" departLane="free"/>
  <flow id="JF377145" begin="300" fromJunction="J6" toJunction="J7" end="360" vehsPerHour="260.45990828632887" departLane="free"/>
  <flow id="JF377146" begin="300" fromJunction="J7" toJunction="J0" end="360" vehsPerHour="263.7025738512297" departLane="free"/>
  <flow id="JF377147" begin="300" fromJunction="J7" toJunction="J3" end="360" vehsPerHour="46.0826445000804" departLane="free"/>
  <flow id="JF377148" begin="300" fromJunction="J7" toJunction="J5" end="360" vehsPerHour="181.5169181780893" departLane="free"/>
  <flow id="JF377149" begin="300" fromJunction="J7" toJunction="J6" end="360" vehsPerHour="220.16556496413537" departLane="free"/>
  <flow id="JF377150" begin="360" fromJunction="J0" toJunction="J3" end="420" vehsPerHour="465.22370069141743" departLane="free"/>
  <flow id="JF377151" begin="360" fromJunction="J0" toJunction="J4" end="420" vehsPerHour="471.4629076957368" departLane="free"/>
  <flow id="JF377152" begin="360" fromJunction="J0" toJunction="J5" end="420" vehsPerHour="6.814185107997321" departLane="free"/>
  <flow id="JF377153" begin="360" fromJunction="J0" toJunction="J6" end="420" vehsPerHour="154.0108504709067" departLane="free"/>
  <flow id="JF377154" begin="360" fromJunction="J0" toJunction="J7" end="420" vehsPerHour="11.249785410296104" departLane="free"/>
  <flow id="JF377155" begin="360" fromJunction="J3" toJunction="J0" end="420" vehsPerHour="398.5421490034445" departLane="free"/>
  <flow id="JF377156" begin="360" fromJunction="J3" toJunction="J4" end="420" vehsPerHour="126.58534965374807" departLane="free"/>
  <flow id="JF377157" begin="360" fromJunction="J3" toJunction="J5" end="420" vehsPerHour="283.1958450457518" departLane="free"/>
  <flow id="JF377158" begin="360" fromJunction="J3" toJunction="J6" end="420" vehsPerHour="430.4258201563105" departLane="free"/>
  <flow id="JF377159" begin="360" fromJunction="J3" toJunction="J7" end="420" vehsPerHour="494.0064314997115" departLane="free"/>
  <flow id="JF377160" begin="360" fromJunction="J4" toJunction="J3" end="420" vehsPerHour="107.11165044078426" departLane="free"/>
  <flow id="JF377161" begin="360" fromJunction="J4" toJunction="J5" end="420" vehsPerHour="225.11797149480003" departLane="free"/>
  <flow id="JF377162" begin="360" fromJunction="J4" toJunction="J6" end="420" vehsPerHour="0.3007792299311635" departLane="free"/>
  <flow id="JF377163" begin="360" fromJunction="J4" toJunction="J7" end="420" vehsPerHour="43.87194062231301" departLane="free"/>
  <flow id="JF377164" begin="360" fromJunction="J5" toJunction="J3" end="420" vehsPerHour="248.3479108608043" departLane="free"/>
  <flow id="JF377165" begin="360" fromJunction="J5" toJunction="J4" end="420" vehsPerHour="86.1251138601424" departLane="free"/>
  <flow id="JF377166" begin="360" fromJunction="J5" toJunction="J6" end="420" vehsPerHour="112.79446736630736" departLane="free"/>
  <flow id="JF377167" begin="360" fromJunction="J6" toJunction="J0" end="420" vehsPerHour="4.3271247542483575" departLane="free"/>
  <flow id="JF377168" begin="360" fromJunction="J6" toJunction="J4" end="420" vehsPerHour="236.78183436709108" departLane="free"/>
  <flow id="JF377169" begin="360" fromJunction="J6" toJunction="J5" end="420" vehsPerHour="125.48174952554334" departLane="free"/>
  <flow id="JF377170" begin="360" fromJunction="J7" toJunction="J0" end="420" vehsPerHour="174.53386934896167" departLane="free"/>
  <flow id="JF377171" begin="360" fromJunction="J7" toJunction="J5" end="420" vehsPerHour="21.11020671911133" departLane="free"/>
  <flow id="JF377172" begin="360" fromJunction="J7" toJunction="J6" end="420" vehsPerHour="53.07455931727545" departLane="free"/>
  <flow id="JF377173" begin="420" fromJunction="J0" toJunction="J3" end="480" vehsPerHour="36.09135117426305" departLane="free"/>
  <flow id="JF377174" begin="420" fromJunction="J0" toJunction="J4" end="480" vehsPerHour="322.97342642787225" departLane="free"/>
  <flow id="JF377175" begin="420" fromJunction="J0" toJunction="J5" end="480" vehsPerHour="81.11253313611817" departLane="free"/>
  <flow id="JF377176" begin="420" fromJunction="J0" toJunction="J6" end="480" vehsPerHour="226.79125997729605" departLane="free"/>
  <flow id="JF377177" begin="420" fromJunction="J0" toJunction="J7" end="480" vehsPerHour="537.9526521854181" departLane="free"/>
  <flow id="JF377178" begin="420" fromJunction="J3" toJunction="J0" end="480" vehsPerHour="207.86467824189717" departLane="free"/>
  <flow id="JF377179" begin="420" fromJunction="J3" toJunction="J4" end="480" vehsPerHour="265.87555621418704" departLane="free"/>
  <flow id="JF377180" begin="420" fromJunction="J3" toJunction="J6" end="480" vehsPerHour="33.78749989815336" departLane="free"/>
  <flow id="JF377181" begin="420" fromJunction="J4" toJunction="J3" end="480" vehsPerHour="134.37932491553764" departLane="free"/>
  <flow id="JF377182" begin="420" fromJunction="J5" toJunction="J0" end="480" vehsPerHour="157.92897502474744" departLane="free"/>
  <flow id="JF377183" begin="420" fromJunction="J5" toJunction="J3" end="480" vehsPerHour="202.47878905569115" departLane="free"/>
  <flow id="JF377184" begin="420" fromJunction="J5" toJunction="J4" end="480" vehsPerHour="40.28280795006104" departLane="free"/>
  <flow id="JF377185" begin="420" fromJunction="J5" toJunction="J6" end="480" vehsPerHour="220.63870584870168" departLane="free"/>
  <flow id="JF377186" begin="420" fromJunction="J5" toJunction="J7" end="480" vehsPerHour="219.8717879553319" departLane="free"/>
  <flow id="JF377187" begin="420" fromJunction="J6" toJunction="J0" end="480" vehsPerHour="237.26616312001588" departLane="free"/>
  <flow id="JF377188" begin="420" fromJunction="J6" toJunction="J3" end="480" vehsPerHour="196.85466661023068" departLane="free"/>
  <flow id="JF377189" begin="420" fromJunction="J6" toJunction="J4" end="480" vehsPerHour="72.58583305646864" departLane="free"/>
  <flow id="JF377190" begin="420" fromJunction="J6" toJunction="J5" end="480" vehsPerHour="58.16916368737351" departLane="free"/>
  <flow id="JF377191" begin="420" fromJunction="J6" toJunction="J7" end="480" vehsPerHour="54.30429076640988" departLane="free"/>
  <flow id="JF377192" begin="420" fromJunction="J7" toJunction="J5" end="480" vehsPerHour="59.29956209110827" departLane="free"/>
  <flow id="JF377193" begin="480" fromJunction="J0" toJunction="J3" end="540" vehsPerHour="358.693498258223" departLane="free"/>
  <flow id="JF377194" begin="480" fromJunction="J0" toJunction="J4" end="540" vehsPerHour="469.51520846669126" departLane="free"/>
  <flow id="JF377195" begin="480" fromJunction="J0" toJunction="J5" end="540" vehsPerHour="446.33856348928595" departLane="free"/>
  <flow id="JF377196" begin="480" fromJunction="J0" toJunction="J6" end="540" vehsPerHour="434.71158363894097" departLane="free"/>
  <flow id="JF377197" begin="480" fromJunction="J0" toJunction="J7" end="540" vehsPerHour="259.2926711312261" departLane="free"/>
  <flow id="JF377198" begin="480" fromJunction="J3" toJunction="J0" end="540" vehsPerHour="266.96949743821256" departLane="free"/>
  <flow id="JF377199" begin="480" fromJunction="J3" toJunction="J4" end="540" vehsPerHour="225.9617349419362" departLane="free"/>
  <flow id="JF377200" begin="480" fromJunction="J3" toJunction="J6" end="540" vehsPerHour="267.3466334026439" departLane="free"/>
  <flow id="JF377201" begin="480" fromJunction="J4" toJunction="J3" end="540" vehsPerHour="99.29084479072144" departLane="free"/>
  <flow id="JF377202" begin="480" fromJunction="J4" toJunction="J5" end="540" vehsPerHour="221.26122152599524" departLane="free"/>
  <flow id="JF377203" begin="480" fromJunction="J4" toJunction="J6" end="540" vehsPerHour="219.47634757343602" departLane="free"/>
  <flow id="JF377204" begin="480" fromJunction="J4" toJunction="J7" end="540" vehsPerHour="140.65648059945843" departLane="free"/>
  <flow id="JF377205" begin="480" fromJunction="J5" toJunction="J3" end="540" vehsPerHour="173.7523229551659" departLane="free"/>
  <flow id="JF377206" begin="480" fromJunction="J5" toJunction="J4" end="540" vehsPerHour="238.3109920610468" departLane="free"/>
  <flow id="JF377207" begin="480" fromJunction="J5" toJunction="J6" end="540" vehsPerHour="257.6346111843215" departLane="free"/>
  <flow id="JF377208" begin="480" fromJunction="J5" toJunction="J7" end="540" vehsPerHour="97.92571498522722" departLane="free"/>
  <flow id="JF377209" begin="480" fromJunction="J6" toJunction="J0" end="540" vehsPerHour="105.04985809461813" departLane="free"/>
  <flow id="JF377210" begin="480" fromJunction="J6" toJunction="J3" end="540" vehsPerHour="99.56238461310275" departLane="free"/>
  <flow id="JF377211" begin="480" fromJunction="J6" toJunction="J7" end="540" vehsPerHour="185.94246527042333" departLane="free"/>
  <flow id="JF377212" begin="480" fromJunction="J7" toJunction="J3" end="540" vehsPerHour="12.29315729459415" departLane="free"/>
  <flow id="JF377213" begin="480" fromJunction="J7" toJunction="J4" end="540" vehsPerHour="244.46506930197287" departLane="free"/>
  <flow id="JF377214" begin="480" fromJunction="J7" toJunction="J5" end="540" vehsPerHour="242.50194658368437" departLane="free"/>
  <flow id="JF377215" begin="480" fromJunction="J7" toJunction="J6" end="540" vehsPerHour="116.74150768888272" departLane="free"/>
  <flow id="JF377216" begin="540" fromJunction="J0" toJunction="J5" end="600" vehsPerHour="430.0088838960604" departLane="free"/>
  <flow id="JF377217" begin="540" fromJunction="J0" toJunction="J7" end="600" vehsPerHour="81.0904104703208" departLane="free"/>
  <flow id="JF377218" begin="540" fromJunction="J3" toJunction="J5" end="600" vehsPerHour="103.73845129089112" departLane="free"/>
  <flow id="JF377219" begin="540" fromJunction="J3" toJunction="J6" end="600" vehsPerHour="257.29606854223056" departLane="free"/>
  <flow id="JF377220" begin="540" fromJunction="J3" toJunction="J7" end="600" vehsPerHour="162.82260994551135" departLane="free"/>
  <flow id="JF377221" begin="540" fromJunction="J4" toJunction="J0" end="600" vehsPerHour="118.26392808525486" departLane="free"/>
  <flow id="JF377222" begin="540" fromJunction="J4" toJunction="J3" end="600" vehsPerHour="42.36831226692814" departLane="free"/>
  <flow id="JF377223" begin="540" fromJunction="J4" toJunction="J5" end="600" vehsPerHour="195.74995670228384" departLane="free"/>
  <flow id="JF377224" begin="540" fromJunction="J4" toJunction="J6" end="600" vehsPerHour="87.47044741063426" departLane="free"/>
  <flow id="JF377225" begin="540" fromJunction="J4" toJunction="J7" end="600" vehsPerHour="189.18957922639638" departLane="free"/>
  <flow id="JF377226" begin="540" fromJunction="J5" toJunction="J0" end="600" vehsPerHour="71.23258395937577" departLane="free"/>
  <flow id="JF377227" begin="540" fromJunction="J5" toJunction="J4" end="600" vehsPerHour="270.7441615628501" departLane="free"/>
  <flow id="JF377228" begin="540" fromJunction="J5" toJunction="J6" end="600" vehsPerHour="12.419223320614112" departLane="free"/>
  <flow id="JF377229" begin="540" fromJunction="J6" toJunction="J0" end="600" vehsPerHour="31.74580025555286" departLane="free"/>
  <flow id="JF377230" begin="540" fromJunction="J6" toJunction="J4" end="600" vehsPerHour="14.697026015525312" departLane="free"/>
  <flow id="JF377231" begin="540" fromJunction="J6" toJunction="J5" end="600" vehsPerHour="269.61116022154965" departLane="free"/>
  <flow id="JF377232" begin="540" fromJunction="J6" toJunction="J7" end="600" vehsPerHour="211.33389736574802" departLane="free"/>
  <flow id="JF377233" begin="540" fromJunction="J7" toJunction="J0" end="600" vehsPerHour="189.11975295309702" departLane="free"/>
  <flow id="JF377234" begin="540" fromJunction="J7" toJunction="J4" end="600" vehsPerHour="9.576933352608261" departLane="free"/>
  <flow id="JF377235" begin="540" fromJunction="J7" toJunction="J5" end="600" vehsPerHour="215.4927131231026" departLane="free"/>
  <flow id="JF377236" begin="600" fromJunction="J0" toJunction="J3" end="660" vehsPerHour="22.888017186547657" departLane="free"/>
  <flow id="JF377237" begin="600" fromJunction="J0" toJunction="J4" end="660" vehsPerHour="308.81960780125723" departLane="free"/>
  <flow id="JF377238" begin="600" fromJunction="J0" toJunction="J5" end="660" vehsPerHour="250.08710276000576" departLane="free"/>
  <flow id="JF377239" begin="600" fromJunction="J0" toJunction="J6" end="660" vehsPerHour="247.83892933114333" departLane="free"/>
  <flow id="JF377240" begin="600" fromJunction="J0" toJunction="J7" end="660" vehsPerHour="312.72924829763974" departLane="free"/>
  <flow id="JF377241" begin="600" fromJunction="J3" toJunction="J0" end="660" vehsPerHour="100.66584703408361" departLane="free"/>
  <flow id="JF377242" begin="600" fromJunction="J3" toJunction="J5" end="660" vehsPerHour="332.4729567248155" departLane="free"/>
  <flow id="JF377243" begin="600" fromJunction="J3" toJunction="J7" end="660" vehsPerHour="444.44205861178824" departLane="free"/>
  <flow id="JF377244" begin="600" fromJunction="J4" toJunction="J0" end="660" vehsPerHour="12.479183627939115" departLane="free"/>
  <flow id="JF377245" begin="600" fromJunction="J4" toJunction="J3" end="660" vehsPerHour="132.97424091965507" departLane="free"/>
  <flow id="JF377246" begin="600" fromJunction="J4" toJunction="J6" end="660" vehsPerHour="102.95018028554703" departLane="free"/>
  <flow id="JF377247" begin="600" fromJunction="J4" toJunction="J7" end="660" vehsPerHour="98.38069447345583" departLane="free"/>
  <flow id="JF377248" begin="600" fromJunction="J5" toJunction="J3" end="660" vehsPerHour="167.71573637657482" departLane="free"/>
  <flow id="JF377249" begin="600" fromJunction="J5" toJunction="J4" end="660" vehsPerHour="112.00526918414916" departLane="free"/>
  <flow id="JF377250" begin="600" fromJunction="J5" toJunction="J6" end="660" vehsPerHour="34.027634229740436" departLane="free"/>
  <flow id="JF377251" begin="600" fromJunction="J5" toJunction="J7" end="660" vehsPerHour="186.3174067676072" departLane="free"/>
  <flow id="JF377252" begin="600" fromJunction="J6" toJunction="J0" end="660" vehsPerHour="158.91518428802613" departLane="free"/>
  <flow id="JF377253" begin="600" fromJunction="J6" toJunction="J3" end="660" vehsPerHour="54.56904845156656" departLane="free"/>
  <flow id="JF377254" begin="600" fromJunction="J6" toJunction="J4" end="660" vehsPerHour="92.39693970292676" departLane="free"/>
  <flow id="JF377255" begin="600" fromJunction="J6" toJunction="J5" end="660" vehsPerHour="133.76609682304127" departLane="free"/>