<?xml version="1.0" encoding="UTF-8"?>
<routes xmlns:xsi="http://www.w3.org/2001/XMLSchema-instance" xsi:noNamespaceSchemaLocation="http://sumo.dlr.de/xsd/routes_file.xsd">
  <flow id="JF0" begin="0" fromJunction="J0" toJunction="J3" end="60" vehsPerHour="116.06478167381441" departLane="free"/>
  <flow id="JF1" begin="0" fromJunction="J3" toJunction="J0" end="60" vehsPerHour="82.74504422526049" departLane="free"/>
  <flow id="JF2" begin="0" fromJunction="J0" toJunction="J4" end="60" vehsPerHour="109.53731605080604" departLane="free"/>
  <flow id="JF3" begin="0" fromJunction="J0" toJunction="J7" end="60" vehsPerHour="81.84315636281558" departLane="free"/>
  <flow id="JF4" begin="0" fromJunction="J0" toJunction="J5" end="60" vehsPerHour="35.93861104334882" departLane="free"/>
  <flow id="JF5" begin="0" fromJunction="J0" toJunction="J6" end="60" vehsPerHour="21.882674788694853" departLane="free"/>
  <flow id="JF6" begin="0" fromJunction="J3" toJunction="J4" end="60" vehsPerHour="54.50956576126874" departLane="free"/>
  <flow id="JF7" begin="0" fromJunction="J3" toJunction="J7" end="60" vehsPerHour="11.052915672004294" departLane="free"/>
  <flow id="JF8" begin="0" fromJunction="J3" toJunction="J5" end="60" vehsPerHour="4.1989735587368004" departLane="free"/>
  <flow id="JF9" begin="0" fromJunction="J3" toJunction="J6" end="60" vehsPerHour="48.76878103341904" departLane="free"/>
  <flow id="JF10" begin="0" fromJunction="J4" toJunction="J7" end="60" vehsPerHour="6.439394061251986" departLane="free"/>
  <flow id="JF11" begin="0" fromJunction="J4" toJunction="J5" end="60" vehsPerHour="62.52134419244756" departLane="free"/>
  <flow id="JF12" begin="0" fromJunction="J4" toJunction="J6" end="60" vehsPerHour="2.9187357900752153" departLane="free"/>
  <flow id="JF13" begin="0" fromJunction="J7" toJunction="J4" end="60" vehsPerHour="17.99982733940897" departLane="free"/>
  <flow id="JF14" begin="0" fromJunction="J7" toJunction="J5" end="60" vehsPerHour="59.133998840780464" departLane="free"/>
  <flow id="JF15" begin="0" fromJunction="J7" toJunction="J6" end="60" vehsPerHour="5.487044618480042" departLane="free"/>
  <flow id="JF16" begin="0" fromJunction="J5" toJunction="J4" end="60" vehsPerHour="59.231181986970846" departLane="free"/>
  <flow id="JF17" begin="0" fromJunction="J5" toJunction="J7" end="60" vehsPerHour="6.179795697937565" departLane="free"/>
  <flow id="JF18" begin="0" fromJunction="J5" toJunction="J6" end="60" vehsPerHour="57.28969908170587" departLane="free"/>
  <flow id="JF19" begin="0" fromJunction="J6" toJunction="J4" end="60" vehsPerHour="48.822502541723495" departLane="free"/>
  <flow id="JF20" begin="0" fromJunction="J6" toJunction="J7" end="60" vehsPerHour="37.72372988994688" departLane="free"/>
  <flow id="JF21" begin="0" fromJunction="J6" toJunction="J5" end="60" vehsPerHour="24.984117665341806" departLane="free"/>
  <flow id="JF22" begin="0" fromJunction="J4" toJunction="J0" end="60" vehsPerHour="56.02483295242045" departLane="free"/>
  <flow id="JF23" begin="0" fromJunction="J4" toJunction="J3" end="60" vehsPerHour="63.734173011413965" departLane="free"/>
  <flow id="JF24" begin="0" fromJunction="J7" toJunction="J0" end="60" vehsPerHour="4.873338830629175" departLane="free"/>
  <flow id="JF25" begin="0" fromJunction="J7" toJunction="J3" end="60" vehsPerHour="7.859144271763086" departLane="free"/>
  <flow id="JF26" begin="0" fromJunction="J5" toJunction="J0" end="60" vehsPerHour="10.895189426776799" departLane="free"/>
  <flow id="JF27" begin="0" fromJunction="J5" toJunction="J3" end="60" vehsPerHour="17.97786322053465" departLane="free"/>
  <flow id="JF28" begin="0" fromJunction="J6" toJunction="J0" end="60" vehsPerHour="61.544716151662534" departLane="free"/>
  <flow id="JF29" begin="0" fromJunction="J6" toJunction="J3" end="60" vehsPerHour="38.02031636366732" departLane="free"/>
  <flow id="JF30" begin="60" fromJunction="J0" toJunction="J3" end="120" vehsPerHour="5.535808195724451" departLane="free"/>
  <flow id="JF31" begin="60" fromJunction="J3" toJunction="J0" end="120" vehsPerHour="9.503564803241634" departLane="free"/>
  <flow id="JF32" begin="60" fromJunction="J0" toJunction="J4" end="120" vehsPerHour="12.065072230528205" departLane="free"/>
  <flow id="JF33" begin="60" fromJunction="J0" toJunction="J7" end="120" vehsPerHour="6.856823755308025" departLane="free"/>
  <flow id="JF34" begin="60" fromJunction="J0" toJunction="J5" end="120" vehsPerHour="38.20478248532047" departLane="free"/>
  <flow id="JF35" begin="60" fromJunction="J0" toJunction="J6" end="120" vehsPerHour="5.123418094780237" departLane="free"/>
  <flow id="JF36" begin="60" fromJunction="J3" toJunction="J4" end="120" vehsPerHour="1.9876226766236968" departLane="free"/>
  <flow id="JF37" begin="60" fromJunction="J3" toJunction="J7" end="120" vehsPerHour="17.888624416628982" departLane="free"/>
  <flow id="JF38" begin="60" fromJunction="J3" toJunction="J5" end="120" vehsPerHour="42.30816002892849" departLane="free"/>
  <flow id="JF39" begin="60" fromJunction="J3" toJunction="J6" end="120" vehsPerHour="9.510930709501402" departLane="free"/>
  <flow id="JF40" begin="120" fromJunction="J0" toJunction="J3" end="180" vehsPerHour="58.068443956459284" departLane="free"/>
  <flow id="JF41" begin="120" fromJunction="J3" toJunction="J0" end="180" vehsPerHour="21.319201084840625" departLane="free"/>
  <flow id="JF42" begin="120" fromJunction="J0" toJunction="J4" end="180" vehsPerHour="13.173313333077664" departLane="free"/>
  <flow id="JF43" begin="120" fromJunction="J0" toJunction="J7" end="180" vehsPerHour="93.47252704247363" departLane="free"/>
  <flow id="JF44" begin="120" fromJunction="J0" toJunction="J5" end="180" vehsPerHour="96.5439304492411" departLane="free"/>
  <flow id="JF45" begin="120" fromJunction="J0" toJunction="J6" end="180" vehsPerHour="86.52992775995024" departLane="free"/>
  <flow id="JF46" begin="120" fromJunction="J3" toJunction="J4" end="180" vehsPerHour="111.52994871296214" departLane="free"/>
  <flow id="JF47" begin="120" fromJunction="J3" toJunction="J7" end="180" vehsPerHour="119.330114403786" departLane="free"/>
  <flow id="JF48" begin="120" fromJunction="J3" toJunction="J5" end="180" vehsPerHour="65.3743021136793" departLane="free"/>
  <flow id="JF49" begin="120" fromJunction="J3" toJunction="J6" end="180" vehsPerHour="128.90900187849672" departLane="free"/>
  <flow id="JF50" begin="120" fromJunction="J4" toJunction="J7" end="180" vehsPerHour="30.72510878598736" departLane="free"/>
  <flow id="JF51" begin="120" fromJunction="J4" toJunction="J5" end="180" vehsPerHour="58.086376319435416" departLane="free"/>
  <flow id="JF52" begin="120" fromJunction="J4" toJunction="J6" end="180" vehsPerHour="3.082820940798685" departLane="free"/>
  <flow id="JF53" begin="120" fromJunction="J7" toJunction="J4" end="180" vehsPerHour="4.438287550468015" departLane="free"/>
  <flow id="JF54" begin="120" fromJunction="J7" toJunction="J5" end="180" vehsPerHour="8.659976762918452" departLane="free"/>
  <flow id="JF55" begin="120" fromJunction="J7" toJunction="J6" end="180" vehsPerHour="46.08073626576023" departLane="free"/>
  <flow id="JF56" begin="120" fromJunction="J5" toJunction="J4" end="180" vehsPerHour="53.53277485725825" departLane="free"/>
  <flow id="JF57" begin="120" fromJunction="J5" toJunction="J7" end="180" vehsPerHour="38.78355159137785" departLane="free"/>
  <flow id="JF58" begin="120" fromJunction="J5" toJunction="J6" end="180" vehsPerHour="3.991796286898302" departLane="free"/>
  <flow id="JF59" begin="120" fromJunction="J6" toJunction="J4" end="180" vehsPerHour="19.912779962900988" departLane="free"/>
  <flow id="JF60" begin="120" fromJunction="J6" toJunction="J7" end="180" vehsPerHour="25.222674197414094" departLane="free"/>
  <flow id="JF61" begin="120" fromJunction="J6" toJunction="J5" end="180" vehsPerHour="21.658685487360124" departLane="free"/>
  <flow id="JF62" begin="120" fromJunction="J4" toJunction="J0" end="180" vehsPerHour="51.359396237451755" departLane="free"/>
  <flow id="JF63" begin="120" fromJunction="J4" toJunction="J3" end="180" vehsPerHour="54.01082359093708" departLane="free"/>
  <flow id="JF64" begin="120" fromJunction="J7" toJunction="J0" end="180" vehsPerHour="10.13928326408672" departLane="free"/>
  <flow id="JF65" begin="120" fromJunction="J7" toJunction="J3" end="180" vehsPerHour="54.96063055284766" departLane="free"/>
  <flow id="JF66" begin="120" fromJunction="J5" toJunction="J0" end="180" vehsPerHour="0.5610516222311606" departLane="free"/>
  <flow id="JF67" begin="120" fromJunction="J5" toJunction="J3" end="180" vehsPerHour="10.79167068324828" departLane="free"/>
  <flow id="JF68" begin="120" fromJunction="J6" toJunction="J0" end="180" vehsPerHour="22.641186618673537" departLane="free"/>
  <flow id="JF69" begin="120" fromJunction="J6" toJunction="J3" end="180" vehsPerHour="48.92149169013875" departLane="free"/>
  <flow id="JF70" begin="180" fromJunction="J0" toJunction="J3" end="240" vehsPerHour="72.7207188368988" departLane="free"/>
  <flow id="JF71" begin="180" fromJunction="J3" toJunction="J0" end="240" vehsPerHour="88.53255296352741" departLane="free"/>
  <flow id="JF72" begin="180" fromJunction="J0" toJunction="J4" end="240" vehsPerHour="64.59654793937456" departLane="free"/>
  <flow id="JF73" begin="180" fromJunction="J0" toJunction="J7" end="240" vehsPerHour="34.53410479582525" departLane="free"/>
  <flow id="JF74" begin="180" fromJunction="J0" toJunction="J5" end="240" vehsPerHour="6.863158245916641" departLane="free"/>
  <flow id="JF75" begin="180" fromJunction="J0" toJunction="J6" end="240" vehsPerHour="108.90797302509833" departLane="free"/>
  <flow id="JF76" begin="180" fromJunction="J3" toJunction="J4" end="240" vehsPerHour="28.648232487577303" departLane="free"/>
  <flow id="JF77" begin="180" fromJunction="J3" toJunction="J7" end="240" vehsPerHour="108.47735287982336" departLane="free"/>
  <flow id="JF78" begin="180" fromJunction="J3" toJunction="J5" end="240" vehsPerHour="34.94133677669274" departLane="free"/>
  <flow id="JF79" begin="180" fromJunction="J3" toJunction="J6" end="240" vehsPerHour="25.707087844548525" departLane="free"/>
  <flow id="JF80" begin="240" fromJunction="J0" toJunction="J3" end="300" vehsPerHour="35.091426253128965" departLane="free"/>
  <flow id="JF81" begin="240" fromJunction="J3" toJunction="J0" end="300" vehsPerHour="122.37830934053999" departLane="free"/>
  <flow id="JF82" begin="240" fromJunction="J0" toJunction="J4" end="300" vehsPerHour="24.12326413174737" departLane="free"/>
  <flow id="JF83" begin="240" fromJunction="J0" toJunction="J7" end="300" vehsPerHour="115.07046063547497" departLane="free"/>
  <flow id="JF84" begin="240" fromJunction="J0" toJunction="J5" end="300" vehsPerHour="68.62292041960478" departLane="free"/>
  <flow id="JF85" begin="240" fromJunction="J0" toJunction="J6" end="300" vehsPerHour="27.874786918397962" departLane="free"/>
  <flow id="JF86" begin="240" fromJunction="J3" toJunction="J4" end="300" vehsPerHour="45.41986870445042" departLane="free"/>
  <flow id="JF87" begin="240" fromJunction="J3" toJunction="J7" end="300" vehsPerHour="92.37168635643044" departLane="free"/>
  <flow id="JF88" begin="240" fromJunction="J3" toJunction="J5" end="300" vehsPerHour="76.29121021146807" departLane="free"/>
  <flow id="JF89" begin="240" fromJunction="J3" toJunction="J6" end="300" vehsPerHour="77.43454512399576" departLane="free"/>
  <flow id="JF90" begin="240" fromJunction="J4" toJunction="J7" end="300" vehsPerHour="52.46122782010507" departLane="free"/>
  <flow id="JF91" begin="240" fromJunction="J4" toJunction="J5" end="300" vehsPerHour="27.39396297134589" departLane="free"/>
  <flow id="JF92" begin="240" fromJunction="J4" toJunction="J6" end="300" vehsPerHour="18.46065874382665" departLane="free"/>
  <flow id="JF93" begin="240" fromJunction="J7" toJunction="J4" end="300" vehsPerHour="4.938397482062043" departLane="free"/>
  <flow id="JF94" begin="240" fromJunction="J7" toJunction="J5" end="300" vehsPerHour="5.762049671687867" departLane="free"/>
  <flow id="JF95" begin="240" fromJunction="J7" toJunction="J6" end="300" vehsPerHour="27.223290575023107" departLane="free"/>
  <flow id="JF96" begin="240" fromJunction="J5" toJunction="J4" end="300" vehsPerHour="31.794326045628154" departLane="free"/>
  <flow id="JF97" begin="240" fromJunction="J5" toJunction="J7" end="300" vehsPerHour="66.43213988599392" departLane="free"/>
  <flow id="JF98" begin="240" fromJunction="J5" toJunction="J6" end="300" vehsPerHour="39.98297127961835" departLane="free"/>
  <flow id="JF99" begin="240" fromJunction="J6" toJunction="J4" end="300" vehsPerHour="8.378880098259362" departLane="free"/>
  <flow id="JF100" begin="240" fromJunction="J6" toJunction="J7" end="300" vehsPerHour="32.14927551655709" departLane="free"/>
  <flow id="JF101" begin="240" fromJunction="J6" toJunction="J5" end="300" vehsPerHour="19.668410714928036" departLane="free"/>
  <flow id="JF102" begin="240" fromJunction="J4" toJunction="J0" end="300" vehsPerHour="57.61203125947969" departLane="free"/>
  <flow id="JF103" begin="240" fromJunction="J4" toJunction="J3" end="300" vehsPerHour="21.328274592221934" departLane="free"/>
  <flow id="JF104" begin="240" fromJunction="J7" toJunction="J0" end="300" vehsPerHour="45.998322362331066" departLane="free"/>
  <flow id="JF105" begin="240" fromJunction="J7" toJunction="J3" end="300" vehsPerHour="40.74475731859913" departLane="free"/>
  <flow id="JF106" begin="240" fromJunction="J5" toJunction="J0" end="300" vehsPerHour="41.73633981273457" departLane="free"/>
  <flow id="JF107" begin="240" fromJunction="J5" toJunction="J3" end="300" vehsPerHour="54.84261207942649" departLane="free"/>
  <flow id="JF108" begin="240" fromJunction="J6" toJunction="J0" end="300" vehsPerHour="21.799898781003208" departLane="free"/>
  <flow id="JF109" begin="240" fromJunction="J6" toJunction="J3" end="300" vehsPerHour="67.46125324440882" departLane="free"/>
  <flow id="JF110" begin="300" fromJunction="J0" toJunction="J3" end="360" vehsPerHour="114.48049848745306" departLane="free"/>
  <flow id="JF111" begin="300" fromJunction="J3" toJunction="J0" end="360" vehsPerHour="114.65357199981374" departLane="free"/>
  <flow id="JF112" begin="300" fromJunction="J0" toJunction="J4" end="360" vehsPerHour="36.7429295199142" departLane="free"/>
  <flow id="JF113" begin="300" fromJunction="J0" toJunction="J7" end="360" vehsPerHour="107.46899940715979" departLane="free"/>
  <flow id="JF114" begin="300" fromJunction="J0" toJunction="J5" end="360" vehsPerHour="127.03929906943941" departLane="free"/>
  <flow id="JF115" begin="300" fromJunction="J0" toJunction="J6" end="360" vehsPerHour="127.87347424422303" departLane="free"/>
  <flow id="JF116" begin="300" fromJunction="J3" toJunction="J4" end="360" vehsPerHour="60.26636350835453" departLane="free"/>
  <flow id="JF117" begin="300" fromJunction="J3" toJunction="J7" end="360" vehsPerHour="101.96774418547486" departLane="free"/>
  <flow id="JF118" begin="300" fromJunction="J3" toJunction="J5" end="360" vehsPerHour="43.0721729072244" departLane="free"/>
  <flow id="JF119" begin="300" fromJunction="J3" toJunction="J6" end="360" vehsPerHour="132.6328418530278" departLane="free"/>
  <flow id="JF120" begin="360" fromJunction="J0" toJunction="J3" end="420" vehsPerHour="42.689397825949776" departLane="free"/>
  <flow id="JF121" begin="360" fromJunction="J3" toJunction="J0" end="420" vehsPerHour="79.17149134893623" departLane="free"/>
  <flow id="JF122" begin="360" fromJunction="J0" toJunction="J4" end="420" vehsPerHour="135.91359516619508" departLane="free"/>
  <flow id="JF123" begin="360" fromJunction="J0" toJunction="J7" end="420" vehsPerHour="119.32908952226784" departLane="free"/>
  <flow id="JF124" begin="360" fromJunction="J0" toJunction="J5" end="420" vehsPerHour="7.9716940044485645" departLane="free"/>
  <flow id="JF125" begin="360" fromJunction="J0" toJunction="J6" end="420" vehsPerHour="115.53827803465192" departLane="free"/>
  <flow id="JF126" begin="360" fromJunction="J3" toJunction="J4" end="420" vehsPerHour="128.63392323966974" departLane="free"/>
  <flow id="JF127" begin="360" fromJunction="J3" toJunction="J7" end="420" vehsPerHour="15.302324836371392" departLane="free"/>
  <flow id="JF128" begin="360" fromJunction="J3" toJunction="J5" end="420" vehsPerHour="136.57843312622975" departLane="free"/>
  <flow id="JF129" begin="360" fromJunction="J3" toJunction="J6" end="420" vehsPerHour="85.62620231341042" departLane="free"/>
  <flow id="JF130" begin="360" fromJunction="J4" toJunction="J7" end="420" vehsPerHour="31.704297587518234" departLane="free"/>
  <flow id="JF131" begin="360" fromJunction="J4" toJunction="J5" end="420" vehsPerHour="36.745963487976965" departLane="free"/>
  <flow id="JF132" begin="360" fromJunction="J4" toJunction="J6" end="420" vehsPerHour="67.52861561538393" departLane="free"/>
  <flow id="JF133" begin="360" fromJunction="J7" toJunction="J4" end="420" vehsPerHour="34.60565245681828" departLane="free"/>
  <flow id="JF134" begin="360" fromJunction="J7" toJunction="J5" end="420" vehsPerHour="33.471971278696216" departLane="free"/>
  <flow id="JF135" begin="360" fromJunction="J7" toJunction="J6" end="420" vehsPerHour="31.407575215768187" departLane="free"/>
  <flow id="JF136" begin="360" fromJunction="J5" toJunction="J4" end="420" vehsPerHour="60.44284188485713" departLane="free"/>
  <flow id="JF137" begin="360" fromJunction="J5" toJunction="J7" end="420" vehsPerHour="16.86236109072853" departLane="free"/>
  <flow id="JF138" begin="360" fromJunction="J5" toJunction="J6" end="420" vehsPerHour="17.66627564252317" departLane="free"/>
  <flow id="JF139" begin="360" fromJunction="J6" toJunction="J4" end="420" vehsPerHour="31.049365034478512" departLane="free"/>
  <flow id="JF140" begin="360" fromJunction="J6" toJunction="J7" end="420" vehsPerHour="54.5136200325335" departLane="free"/>
  <flow id="JF141" begin="360" fromJunction="J6" toJunction="J5" end="420" vehsPerHour="15.889825578686485" departLane="free"/>
  <flow id="JF142" begin="360" fromJunction="J4" toJunction="J0" end="420" vehsPerHour="56.35283900501389" departLane="free"/>
  <flow id="JF143" begin="360" fromJunction="J4" toJunction="J3" end="420" vehsPerHour="41.52668241950221" departLane="free"/>
  <flow id="JF144" begin="360" fromJunction="J7" toJunction="J0" end="420" vehsPerHour="13.470819245376907" departLane="free"/>
  <flow id="JF145" begin="360" fromJunction="J7" toJunction="J3" end="420" vehsPerHour="18.750556174056726" departLane="free"/>
  <flow id="JF146" begin="360" fromJunction="J5" toJunction="J0" end="420" vehsPerHour="61.437271556427575" departLane="free"/>
  <flow id="JF147" begin="360" fromJunction="J5" toJunction="J3" end="420" vehsPerHour="42.90865611153187" departLane="free"/>
  <flow id="JF148" begin="360" fromJunction="J6" toJunction="J0" end="420" vehsPerHour="12.997359911978862" departLane="free"/>
  <flow id="JF149" begin="360" fromJunction="J6" toJunction="J3" end="420" vehsPerHour="50.0743668498747" departLane="free"/>
  <flow id="JF150" begin="420" fromJunction="J0" toJunction="J3" end="480" vehsPerHour="11.47334151235526" departLane="free"/>
  <flow id="JF151" begin="420" fromJunction="J3" toJunction="J0" end="480" vehsPerHour="62.86269189035861" departLane="free"/>
  <flow id="JF152" begin="420" fromJunction="J0" toJunction="J4" end="480" vehsPerHour="35.99371608434022" departLane="free"/>
  <flow id="JF153" begin="420" fromJunction="J0" toJunction="J7" end="480" vehsPerHour="106.39315009329059" departLane="free"/>
  <flow id="JF154" begin="420" fromJunction="J0" toJunction="J5" end="480" vehsPerHour="119.46798974756871" departLane="free"/>
  <flow id="JF155" begin="420" fromJunction="J0" toJunction="J6" end="480" vehsPerHour="115.70261951653153" departLane="free"/>
  <flow id="JF156" begin="420" fromJunction="J3" toJunction="J4" end="480" vehsPerHour="100.21714988519068" departLane="free"/>
  <flow id="JF157" begin="420" fromJunction="J3" toJunction="J7" end="480" vehsPerHour="52.24856328985638" departLane="free"/>
  <flow id="JF158" begin="420" fromJunction="J3" toJunction="J5" end="480" vehsPerHour="113.65838251596844" departLane="free"/>
  <flow id="JF159" begin="420" fromJunction="J3" toJunction="J6" end="480" vehsPerHour="115.53806131740488" departLane="free"/>
  <flow id="JF160" begin="420" fromJunction="J4" toJunction="J7" end="480" vehsPerHour="13.75213306854801" departLane="free"/>
  <flow id="JF161" begin="420" fromJunction="J4" toJunction="J5" end="480" vehsPerHour="41.60434694771113" departLane="free"/>
  <flow id="JF162" begin="420" fromJunction="J4" toJunction="J6" end="480" vehsPerHour="4.500565979497255" departLane="free"/>
  <flow id="JF163" begin="420" fromJunction="J7" toJunction="J4" end="480" vehsPerHour="66.66427192277013" departLane="free"/>
  <flow id="JF164" begin="420" fromJunction="J7" toJunction="J5" end="480" vehsPerHour="0.8666951487028184" departLane="free"/>
  <flow id="JF165" begin="420" fromJunction="J7" toJunction="J6" end="480" vehsPerHour="25.912329931864107" departLane="free"/>
  <flow id="JF166" begin="420" fromJunction="J5" toJunction="J4" end="480" vehsPerHour="46.150922896514565" departLane="free"/>
  <flow id="JF167" begin="420" fromJunction="J5" toJunction="J7" end="480" vehsPerHour="19.218241356557428" departLane="free"/>
  <flow id="JF168" begin="420" fromJunction="J5" toJunction="J6" end="480" vehsPerHour="66.09940598842867" departLane="free"/>
  <flow id="JF169" begin="420" fromJunction="J6" toJunction="J4" end="480" vehsPerHour="2.7090242510309204" departLane="free"/>
  <flow id="JF170" begin="420" fromJunction="J6" toJunction="J7" end="480" vehsPerHour="17.63108870629008" departLane="free"/>
  <flow id="JF171" begin="420" fromJunction="J6" toJunction="J5" end="480" vehsPerHour="7.871370084900007" departLane="free"/>
  <flow id="JF172" begin="420" fromJunction="J4" toJunction="J0" end="480" vehsPerHour="56.21969059279247" departLane="free"/>
  <flow id="JF173" begin="420" fromJunction="J4" toJunction="J3" end="480" vehsPerHour="62.7995304222421" departLane="free"/>
  <flow id="JF174" begin="420" fromJunction="J7" toJunction="J0" end="480" vehsPerHour="37.829229386288226" departLane="free"/>
  <flow id="JF175" begin="420" fromJunction="J7" toJunction="J3" end="480" vehsPerHour="64.96218771105889" departLane="free"/>
  <flow id="JF176" begin="420" fromJunction="J5" toJunction="J0" end="480" vehsPerHour="22.329126431871853" departLane="free"/>
  <flow id="JF177" begin="420" fromJunction="J5" toJunction="J3" end="480" vehsPerHour="10.333406152965713" departLane="free"/>
  <flow id="JF178" begin="420" fromJunction="J6" toJunction="J0" end="480" vehsPerHour="67.51291031474105" departLane="free"/>
  <flow id="JF179" begin="420" fromJunction="J6" toJunction="J3" end="480" vehsPerHour="33.16420750530736" departLane="free"/>
  <flow id="JF180" begin="480" fromJunction="J0" toJunction="J3" end="540" vehsPerHour="40.990598666673364" departLane="free"/>
  <flow id="JF181" begin="480" fromJunction="J3" toJunction="J0" end="540" vehsPerHour="43.87031710202783" departLane="free"/>
  <flow id="JF182" begin="480" fromJunction="J0" toJunction="J4" end="540" vehsPerHour="113.8228403985889" departLane="free"/>
  <flow id="JF183" begin="480" fromJunction="J0" toJunction="J7" end="540" vehsPerHour="60.607118765440795" departLane="free"/>
  <flow id="JF184" begin="480" fromJunction="J0" toJunction="J5" end="540" vehsPerHour="8.307511051253366" departLane="free"/>
  <flow id="JF185" begin="480" fromJunction="J0" toJunction="J6" end="540" vehsPerHour="121.28280603700605" departLane="free"/>
  <flow id="JF186" begin="480" fromJunction="J3" toJunction="J4" end="540" vehsPerHour="89.05771647455464" departLane="free"/>
  <flow id="JF187" begin="480" fromJunction="J3" toJunction="J7" end="540" vehsPerHour="133.46680751947545" departLane="free"/>
  <flow id="JF188" begin="480" fromJunction="J3" toJunction="J5" end="540" vehsPerHour="134.18883223359038" departLane="free"/>
  <flow id="JF189" begin="480" fromJunction="J3" toJunction="J6" end="540" vehsPerHour="24.86084323959098" departLane="free"/>
  <flow id="JF190" begin="540" fromJunction="J0" toJunction="J3" end="600" vehsPerHour="36.855692037530545" departLane="free"/>
  <flow id="JF191" begin="540" fromJunction="J3" toJunction="J0" end="600" vehsPerHour="92.62742656621379" departLane="free"/>
  <flow id="JF192" begin="540" fromJunction="J0" toJunction="J4" end="600" vehsPerHour="105.9746759554684" departLane="free"/>
  <flow id="JF193" begin="540" fromJunction="J0" toJunction="J7" end="600" vehsPerHour="5.411947255092025" departLane="free"/>
  <flow id="JF194" begin="540" fromJunction="J0" toJunction="J5" end="600" vehsPerHour="49.16992995868308" departLane="free"/>
  <flow id="JF195" begin="540" fromJunction="J0" toJunction="J6" end="600" vehsPerHour="15.741405337912616" departLane="free"/>
  <flow id="JF196" begin="540" fromJunction="J3" toJunction="J4" end="600" vehsPerHour="18.41263996713969" departLane="free"/>
  <flow id="JF197" begin="540" fromJunction="J3" toJunction="J7" end="600" vehsPerHour="37.671190541971214" departLane="free"/>
  <flow id="JF198" begin="540" fromJunction="J3" toJunction="J5" end="600" vehsPerHour="8.823942886453223" departLane="free"/>
  <flow id="JF199" begin="540" fromJunction="J3" toJunction="J6" end="600" vehsPerHour="118.89277818529048" departLane="free"/>
  <flow id="JF200" begin="540" fromJunction="J4" toJunction="J7" end="600" vehsPerHour="67.74051557681089" departLane="free"/>
  <flow id="JF201" begin="540" fromJunction="J4" toJunction="J5" end="600" vehsPerHour="14.148562839227543" departLane="free"/>
  <flow id="JF202" begin="540" fromJunction="J4" toJunction="J6" end="600" vehsPerHour="48.97708008804495" departLane="free"/>
  <flow id="JF203" begin="540" fromJunction="J7" toJunction="J4" end="600" vehsPerHour="53.51608397013814" departLane="free"/>
  <flow id="JF204" begin="540" fromJunction="J7" toJunction="J5" end="600" vehsPerHour="62.908196358011594" departLane="free"/>
  <flow id="JF205" begin="540" fromJunction="J7" toJunction="J6" end="600" vehsPerHour="49.071123909520225" departLane="free"/>
  <flow id="JF206" begin="540" fromJunction="J5" toJunction="J4" end="600" vehsPerHour="63.25456118988673" departLane="free"/>
  <flow id="JF207" begin="540" fromJunction="J5" toJunction="J7" end="600" vehsPerHour="4.85832816879268" departLane="free"/>
  <flow id="JF208" begin="540" fromJunction="J5" toJunction="J6" end="600" vehsPerHour="57.39959795705071" departLane="free"/>
  <flow id="JF209" begin="540" fromJunction="J6" toJunction="J4" end="600" vehsPerHour="18.409412895755775" departLane="free"/>
  <flow id="JF210" begin="540" fromJunction="J6" toJunction="J7" end="600" vehsPerHour="20.678030501889786" departLane="free"/>
  <flow id="JF211" begin="540" fromJunction="J6" toJunction="J5" end="600" vehsPerHour="11.17219076416115" departLane="free"/>
  <flow id="JF212" begin="540" fromJunction="J4" toJunction="J0" end="600" vehsPerHour="38.99663750693113" departLane="free"/>
  <flow id="JF213" begin="540" fromJunction="J4" toJunction="J3" end="600" vehsPerHour="28.14493892846538" departLane="free"/>
  <flow id="JF214" begin="540" fromJunction="J7" toJunction="J0" end="600" vehsPerHour="61.94154147215607" departLane="free"/>
  <flow id="JF215" begin="540" fromJunction="J7" toJunction="J3" end="600" vehsPerHour="26.984651919875123" departLane="free"/>
  <flow id="JF216" begin="540" fromJunction="J5" toJunction="J0" end="600" vehsPerHour="22.756306958487517" departLane="free"/>
  <flow id="JF217" begin="540" fromJunction="J5" toJunction="J3" end="600" vehsPerHour="47.60080596517969" departLane="free"/>
  <flow id="JF218" begin="540" fromJunction="J6" toJunction="J0" end="600" vehsPerHour="52.83834097816612" departLane="free"/>
  <flow id="JF219" begin="540" fromJunction="J6" toJunction="J3" end="600" vehsPerHour="60.52632205996281" departLane="free"/>
  <flow id="JF220" begin="600" fromJunction="J0" toJunction="J3" end="660" vehsPerHour="22.490087099139846" departLane="free"/>
  <flow id="JF221" begin="600" fromJunction="J3" toJunction="J0" end="660" vehsPerHour="103.4547593166703" departLane="free"/>
  <flow id="JF222" begin="600" fromJunction="J0" toJunction="J4" end="660" vehsPerHour="128.43523410434793" departLane="free"/>
  <flow id="JF223" begin="600" fromJunction="J0" toJunction="J7" end="660" vehsPerHour="51.44893241389358" departLane="free"/>
  <flow id="JF224" begin="600" fromJunction="J0" toJunction="J5" end="660" vehsPerHour="69.79133635698665" departLane="free"/>
  <flow id="JF225" begin="600" fromJunction="J0" toJunction="J6" end="660" vehsPerHour="121.01933637034274" departLane="free"/>
  <flow id="JF226" begin="600" fromJunction="J3" toJunction="J4" end="660" vehsPerHour="10.640033174623607" departLane="free"/>
  <flow id="JF227" begin="600" fromJunction="J3" toJunction="J7" end="660" vehsPerHour="124.29254187179093" departLane="free"/>
  <flow id="JF228" begin="600" fromJunction="J3" toJunction="J5" end="660" vehsPerHour="84.42648166088298" departLane="free"/>
  <flow id="JF229" begin="600" fromJunction="J3" toJunction="J6" end="660" vehsPerHour="80.16650515075096" departLane="free"/>
  <flow id="JF230" begin="600" fromJunction="J4" toJunction="J7" end="660" vehsPerHour="38.119424488174495" departLane="free"/>
  <flow id="JF231" begin="600" fromJunction="J4" toJunction="J5" end="660" vehsPerHour="28.329320440234977" departLane="free"/>
  <flow id="JF232" begin="600" fromJunction="J4" toJunction="J6" end="660" vehsPerHour="12.865880056437554" departLane="free"/>
  <flow id="JF233" begin="600" fromJunction="J7" toJunction="J4" end="660" vehsPerHour="60.79122019307472" departLane="free"/>
  <flow id="JF234" begin="600" fromJunction="J7" toJunction="J5" end="660" vehsPerHour="46.85728123296835" departLane="free"/>