<?xml version="1.0" encoding="UTF-8"?>
<routes xmlns:xsi="http://www.w3.org/2001/XMLSchema-instance" xsi:noNamespaceSchemaLocation="http://sumo.dlr.de/xsd/routes_file.xsd">
  <flow id="JF0" begin="0" fromJunction="J0" toJunction="J3" end="360" vehsPerHour="90.66579712482093" departLane="free" arrivalSpeed="0.0"/>
  <flow id="JF1" begin="0" fromJunction="J3" toJunction="J0" end="360" vehsPerHour="23.98916008514797" departLane="free" arrivalSpeed="0.0"/>
  <flow id="JF2" begin="0" fromJunction="J0" toJunction="J4" end="360" vehsPerHour="0.7700965047576306" departLane="free" arrivalSpeed="0.0"/>
  <flow id="JF3" begin="0" fromJunction="J0" toJunction="J7" end="360" vehsPerHour="20.553242576205328" departLane="free" arrivalSpeed="0.0"/>
  <flow id="JF4" begin="0" fromJunction="J0" toJunction="J6" end="360" vehsPerHour="108.09610069209828" departLane="free" arrivalSpeed="0.0"/>
  <flow id="JF5" begin="0" fromJunction="J0" toJunction="J5" end="360" vehsPerHour="12.24267220708484" departLane="free" arrivalSpeed="0.0"/>
  <flow id="JF6" begin="0" fromJunction="J3" toJunction="J4" end="360" vehsPerHour="20.727037879318768" departLane="free" arrivalSpeed="0.0"/>
  <flow id="JF7" begin="0" fromJunction="J3" toJunction="J7" end="360" vehsPerHour="124.19617326795913" departLane="free" arrivalSpeed="0.0"/>
  <flow id="JF8" begin="0" fromJunction="J3" toJunction="J6" end="360" vehsPerHour="26.51913988768134" departLane="free" arrivalSpeed="0.0"/>
  <flow id="JF9" begin="0" fromJunction="J3" toJunction="J5" end="360" vehsPerHour="118.11797768757323" departLane="free" arrivalSpeed="0.0"/>
  <flow id="JF10" begin="0" fromJunction="J4" toJunction="J7" end="360" vehsPerHour="51.160316257709255" departLane="free" arrivalSpeed="0.0"/>
  <flow id="JF11" begin="0" fromJunction="J4" toJunction="J6" end="360" vehsPerHour="4.089982843272805" departLane="free" arrivalSpeed="0.0"/>
  <flow id="JF12" begin="0" fromJunction="J4" toJunction="J5" end="360" vehsPerHour="20.395458421777132" departLane="free" arrivalSpeed="0.0"/>
  <flow id="JF13" begin="0" fromJunction="J7" toJunction="J4" end="360" vehsPerHour="34.81207908870441" departLane="free" arrivalSpeed="0.0"/>
  <flow id="JF14" begin="0" fromJunction="J7" toJunction="J6" end="360" vehsPerHour="38.79949361788402" departLane="free" arrivalSpeed="0.0"/>
  <flow id="JF15" begin="0" fromJunction="J7" toJunction="J5" end="360" vehsPerHour="16.57710661147601" departLane="free" arrivalSpeed="0.0"/>
  <flow id="JF16" begin="0" fromJunction="J6" toJunction="J4" end="360" vehsPerHour="34.75802050917071" departLane="free" arrivalSpeed="0.0"/>
  <flow id="JF17" begin="0" fromJunction="J6" toJunction="J7" end="360" vehsPerHour="25.859144381561805" departLane="free" arrivalSpeed="0.0"/>
  <flow id="JF18" begin="0" fromJunction="J6" toJunction="J5" end="360" vehsPerHour="18.645348493737593" departLane="free" arrivalSpeed="0.0"/>
  <flow id="JF19" begin="0" fromJunction="J5" toJunction="J4" end="360" vehsPerHour="12.757568760281305" departLane="free" arrivalSpeed="0.0"/>
  <flow id="JF20" begin="0" fromJunction="J5" toJunction="J7" end="360" vehsPerHour="1.4987671922836578" departLane="free" arrivalSpeed="0.0"/>
  <flow id="JF21" begin="0" fromJunction="J5" toJunction="J6" end="360" vehsPerHour="60.272384286140436" departLane="free" arrivalSpeed="0.0"/>
  <flow id="JF22" begin="0" fromJunction="J4" toJunction="J0" end="360" vehsPerHour="66.52468478880122" departLane="free" arrivalSpeed="0.0"/>
  <flow id="JF23" begin="0" fromJunction="J4" toJunction="J3" end="360" vehsPerHour="58.12744335440672" departLane="free" arrivalSpeed="0.0"/>
  <flow id="JF24" begin="0" fromJunction="J7" toJunction="J0" end="360" vehsPerHour="30.27596357343115" departLane="free" arrivalSpeed="0.0"/>
  <flow id="JF25" begin="0" fromJunction="J7" toJunction="J3" end="360" vehsPerHour="9.13483409029155" departLane="free" arrivalSpeed="0.0"/>
  <flow id="JF26" begin="0" fromJunction="J6" toJunction="J0" end="360" vehsPerHour="2.9341588916423262" departLane="free" arrivalSpeed="0.0"/>
  <flow id="JF27" begin="0" fromJunction="J6" toJunction="J3" end="360" vehsPerHour="53.04197235354398" departLane="free" arrivalSpeed="0.0"/>
  <flow id="JF28" begin="0" fromJunction="J5" toJunction="J0" end="360" vehsPerHour="48.353647310726195" departLane="free" arrivalSpeed="0.0"/>
  <flow id="JF29" begin="0" fromJunction="J5" toJunction="J3" end="360" vehsPerHour="6.5542323887323075" departLane="free" arrivalSpeed="0.0"/>
  <flow id="JF30" begin="360" fromJunction="J0" toJunction="J3" end="720" vehsPerHour="125.14049554728682" departLane="free" arrivalSpeed="0.0"/>
  <flow id="JF31" begin="360" fromJunction="J3" toJunction="J0" end="720" vehsPerHour="81.48707852527892" departLane="free" arrivalSpeed="0.0"/>
  <flow id="JF32" begin="360" fromJunction="J0" toJunction="J4" end="720" vehsPerHour="99.63971618367917" departLane="free" arrivalSpeed="0.0"/>
  <flow id="JF33" begin="360" fromJunction="J0" toJunction="J7" end="720" vehsPerHour="77.04054976677452" departLane="free" arrivalSpeed="0.0"/>
  <flow id="JF34" begin="360" fromJunction="J0" toJunction="J6" end="720" vehsPerHour="57.520596510813185" departLane="free" arrivalSpeed="0.0"/>
  <flow id="JF35" begin="360" fromJunction="J0" toJunction="J5" end="720" vehsPerHour="111.6044995332359" departLane="free" arrivalSpeed="0.0"/>
  <flow id="JF36" begin="360" fromJunction="J3" toJunction="J4" end="720" vehsPerHour="115.76744696449451" departLane="free" arrivalSpeed="0.0"/>
  <flow id="JF37" begin="360" fromJunction="J3" toJunction="J7" end="720" vehsPerHour="9.367952504532083" departLane="free" arrivalSpeed="0.0"/>
  <flow id="JF38" begin="360" fromJunction="J3" toJunction="J6" end="720" vehsPerHour="21.68469996036174" departLane="free" arrivalSpeed="0.0"/>
  <flow id="JF39" begin="360" fromJunction="J3" toJunction="J5" end="720" vehsPerHour="20.645836605372534" departLane="free" arrivalSpeed="0.0"/>
  <flow id="JF40" begin="360" fromJunction="J4" toJunction="J7" end="720" vehsPerHour="30.454543087184433" departLane="free" arrivalSpeed="0.0"/>
  <flow id="JF41" begin="360" fromJunction="J4" toJunction="J6" end="720" vehsPerHour="34.15605376767302" departLane="free" arrivalSpeed="0.0"/>
  <flow id="JF42" begin="360" fromJunction="J4" toJunction="J5" end="720" vehsPerHour="67.13323750297464" departLane="free" arrivalSpeed="0.0"/>
  <flow id="JF43" begin="360" fromJunction="J7" toJunction="J4" end="720" vehsPerHour="16.25502292577146" departLane="free" arrivalSpeed="0.0"/>
  <flow id="JF44" begin="360" fromJunction="J7" toJunction="J6" end="720" vehsPerHour="54.75178494168517" departLane="free" arrivalSpeed="0.0"/>
  <flow id="JF45" begin="360" fromJunction="J7" toJunction="J5" end="720" vehsPerHour="24.03306931265956" departLane="free" arrivalSpeed="0.0"/>
  <flow id="JF46" begin="360" fromJunction="J6" toJunction="J4" end="720" vehsPerHour="3.8227269464191265" departLane="free" arrivalSpeed="0.0"/>
  <flow id="JF47" begin="360" fromJunction="J6" toJunction="J7" end="720" vehsPerHour="66.30679263204665" departLane="free" arrivalSpeed="0.0"/>
  <flow id="JF48" begin="360" fromJunction="J6" toJunction="J5" end="720" vehsPerHour="9.266660409498149" departLane="free" arrivalSpeed="0.0"/>
  <flow id="JF49" begin="360" fromJunction="J5" toJunction="J4" end="720" vehsPerHour="29.354095279701305" departLane="free" arrivalSpeed="0.0"/>
  <flow id="JF50" begin="360" fromJunction="J5" toJunction="J7" end="720" vehsPerHour="8.442888277960616" departLane="free" arrivalSpeed="0.0"/>
  <flow id="JF51" begin="360" fromJunction="J5" toJunction="J6" end="720" vehsPerHour="25.114954938603294" departLane="free" arrivalSpeed="0.0"/>
  <flow id="JF52" begin="360" fromJunction="J4" toJunction="J0" end="720" vehsPerHour="3.2539599896098603" departLane="free" arrivalSpeed="0.0"/>
  <flow id="JF53" begin="360" fromJunction="J4" toJunction="J3" end="720" vehsPerHour="21.399170698715132" departLane="free" arrivalSpeed="0.0"/>
  <flow id="JF54" begin="360" fromJunction="J7" toJunction="J0" end="720" vehsPerHour="55.08500012422727" departLane="free" arrivalSpeed="0.0"/>
  <flow id="JF55" begin="360" fromJunction="J7" toJunction="J3" end="720" vehsPerHour="36.1087750624746" departLane="free" arrivalSpeed="0.0"/>
  <flow id="JF56" begin="360" fromJunction="J6" toJunction="J0" end="720" vehsPerHour="49.3185358479319" departLane="free" arrivalSpeed="0.0"/>
  <flow id="JF57" begin="360" fromJunction="J6" toJunction="J3" end="720" vehsPerHour="28.649088467833522" departLane="free" arrivalSpeed="0.0"/>
  <flow id="JF58" begin="360" fromJunction="J5" toJunction="J0" end="720" vehsPerHour="49.16161127995569" departLane="free" arrivalSpeed="0.0"/>
  <flow id="JF59" begin="360" fromJunction="J5" toJunction="J3" end="720" vehsPerHour="25.022310529292614" departLane="free" arrivalSpeed="0.0"/>
  <flow id="JF60" begin="720" fromJunction="J0" toJunction="J3" end="1080" vehsPerHour="125.0662492391464" departLane="free" arrivalSpeed="0.0"/>
  <flow id="JF61" begin="720" fromJunction="J3" toJunction="J0" end="1080" vehsPerHour="28.886131335066686" departLane="free" arrivalSpeed="0.0"/>
  <flow id="JF62" begin="720" fromJunction="J0" toJunction="J4" end="1080" vehsPerHour="136.10109156063365" departLane="free" arrivalSpeed="0.0"/>
  <flow id="JF63" begin="720" fromJunction="J0" toJunction="J7" end="1080" vehsPerHour="46.364974637025874" departLane="free" arrivalSpeed="0.0"/>
  <flow id="JF64" begin="720" fromJunction="J0" toJunction="J6" end="1080" vehsPerHour="67.39966929611437" departLane="free" arrivalSpeed="0.0"/>
  <flow id="JF65" begin="720" fromJunction="J0" toJunction="J5" end="1080" vehsPerHour="22.546326102406624" departLane="free" arrivalSpeed="0.0"/>
  <flow id="JF66" begin="720" fromJunction="J3" toJunction="J4" end="1080" vehsPerHour="17.011988013199137" departLane="free" arrivalSpeed="0.0"/>
  <flow id="JF67" begin="720" fromJunction="J3" toJunction="J7" end="1080" vehsPerHour="102.99002088743713" departLane="free" arrivalSpeed="0.0"/>
  <flow id="JF68" begin="720" fromJunction="J3" toJunction="J6" end="1080" vehsPerHour="120.30247706174814" departLane="free" arrivalSpeed="0.0"/>
  <flow id="JF69" begin="720" fromJunction="J3" toJunction="J5" end="1080" vehsPerHour="7.962917183117743" departLane="free" arrivalSpeed="0.0"/>
  <flow id="JF70" begin="1080" fromJunction="J0" toJunction="J3" end="1440" vehsPerHour="73.03388444597982" departLane="free" arrivalSpeed="0.0"/>
  <flow id="JF71" begin="1080" fromJunction="J3" toJunction="J0" end="1440" vehsPerHour="136.7492067832957" departLane="free" arrivalSpeed="0.0"/>
  <flow id="JF72" begin="1080" fromJunction="J0" toJunction="J4" end="1440" vehsPerHour="8.577626463017772" departLane="free" arrivalSpeed="0.0"/>
  <flow id="JF73" begin="1080" fromJunction="J0" toJunction="J7" end="1440" vehsPerHour="130.40988482771093" departLane="free" arrivalSpeed="0.0"/>
  <flow id="JF74" begin="1080" fromJunction="J0" toJunction="J6" end="1440" vehsPerHour="88.15622444989566" departLane="free" arrivalSpeed="0.0"/>
  <flow id="JF75" begin="1080" fromJunction="J0" toJunction="J5" end="1440" vehsPerHour="120.39252419768808" departLane="free" arrivalSpeed="0.0"/>
  <flow id="JF76" begin="1080" fromJunction="J3" toJunction="J4" end="1440" vehsPerHour="117.20569322078796" departLane="free" arrivalSpeed="0.0"/>
  <flow id="JF77" begin="1080" fromJunction="J3" toJunction="J7" end="1440" vehsPerHour="95.44317792750472" departLane="free" arrivalSpeed="0.0"/>
  <flow id="JF78" begin="1080" fromJunction="J3" toJunction="J6" end="1440" vehsPerHour="50.95582708180006" departLane="free" arrivalSpeed="0.0"/>
  <flow id="JF79" begin="1080" fromJunction="J3" toJunction="J5" end="1440" vehsPerHour="135.84234462032592" departLane="free" arrivalSpeed="0.0"/>
  <flow id="JF80" begin="1080" fromJunction="J4" toJunction="J7" end="1440" vehsPerHour="64.35114995866888" departLane="free" arrivalSpeed="0.0"/>
  <flow id="JF81" begin="1080" fromJunction="J4" toJunction="J6" end="1440" vehsPerHour="6.945769981503171" departLane="free" arrivalSpeed="0.0"/>
  <flow id="JF82" begin="1080" fromJunction="J4" toJunction="J5" end="1440" vehsPerHour="30.016817313411597" departLane="free" arrivalSpeed="0.0"/>
  <flow id="JF83" begin="1080" fromJunction="J7" toJunction="J4" end="1440" vehsPerHour="66.07927338049646" departLane="free" arrivalSpeed="0.0"/>
  <flow id="JF84" begin="1080" fromJunction="J7" toJunction="J6" end="1440" vehsPerHour="57.0289443446498" departLane="free" arrivalSpeed="0.0"/>
  <flow id="JF85" begin="1080" fromJunction="J7" toJunction="J5" end="1440" vehsPerHour="16.113312365697976" departLane="free" arrivalSpeed="0.0"/>
  <flow id="JF86" begin="1080" fromJunction="J6" toJunction="J4" end="1440" vehsPerHour="15.606076120235887" departLane="free" arrivalSpeed="0.0"/>
  <flow id="JF87" begin="1080" fromJunction="J6" toJunction="J7" end="1440" vehsPerHour="63.009471089152534" departLane="free" arrivalSpeed="0.0"/>
  <flow id="JF88" begin="1080" fromJunction="J6" toJunction="J5" end="1440" vehsPerHour="52.88236934372227" departLane="free" arrivalSpeed="0.0"/>
  <flow id="JF89" begin="1080" fromJunction="J5" toJunction="J4" end="1440" vehsPerHour="27.400565457446213" departLane="free" arrivalSpeed="0.0"/>
  <flow id="JF90" begin="1080" fromJunction="J5" toJunction="J7" end="1440" vehsPerHour="11.996640676988822" departLane="free" arrivalSpeed="0.0"/>
  <flow id="JF91" begin="1080" fromJunction="J5" toJunction="J6" end="1440" vehsPerHour="13.020512967462963" departLane="free" arrivalSpeed="0.0"/>
  <flow id="JF92" begin="1080" fromJunction="J4" toJunction="J0" end="1440" vehsPerHour="46.4606552082628" departLane="free" arrivalSpeed="0.0"/>
  <flow id="JF93" begin="1080" fromJunction="J4" toJunction="J3" end="1440" vehsPerHour="35.01561933577534" departLane="free" arrivalSpeed="0.0"/>
  <flow id="JF94" begin="1080" fromJunction="J7" toJunction="J0" end="1440" vehsPerHour="49.44793257482527" departLane="free" arrivalSpeed="0.0"/>
  <flow id="JF95" begin="1080" fromJunction="J7" toJunction="J3" end="1440" vehsPerHour="40.549883279307934" departLane="free" arrivalSpeed="0.0"/>
  <flow id="JF96" begin="1080" fromJunction="J6" toJunction="J0" end="1440" vehsPerHour="40.16062154603953" departLane="free" arrivalSpeed="0.0"/>
  <flow id="JF97" begin="1080" fromJunction="J6" toJunction="J3" end="1440" vehsPerHour="41.13656396067445" departLane="free" arrivalSpeed="0.0"/>
  <flow id="JF98" begin="1080" fromJunction="J5" toJunction="J0" end="1440" vehsPerHour="23.920748761738945" departLane="free" arrivalSpeed="0.0"/>
  <flow id="JF99" begin="1080" fromJunction="J5" toJunction="J3" end="1440" vehsPerHour="16.605002015682064" departLane="free" arrivalSpeed="0.0"/>
  <flow id="JF100" begin="1440" fromJunction="J0" toJunction="J3" end="1800" vehsPerHour="89.87776766916406" departLane="free" arrivalSpeed="0.0"/>
  <flow id="JF101" begin="1440" fromJunction="J3" toJunction="J0" end="1800" vehsPerHour="124.16335003680094" departLane="free" arrivalSpeed="0.0"/>
  <flow id="JF102" begin="1440" fromJunction="J0" toJunction="J4" end="1800" vehsPerHour="91.10940624596866" departLane="free" arrivalSpeed="0.0"/>
  <flow id="JF103" begin="1440" fromJunction="J0" toJunction="J7" end="1800" vehsPerHour="56.44084922001044" departLane="free" arrivalSpeed="0.0"/>
  <flow id="JF104" begin="1440" fromJunction="J0" toJunction="J6" end="1800" vehsPerHour="80.13028465518288" departLane="free" arrivalSpeed="0.0"/>
  <flow id="JF105" begin="1440" fromJunction="J0" toJunction="J5" end="1800" vehsPerHour="74.00943642458495" departLane="free" arrivalSpeed="0.0"/>
  <flow id="JF106" begin="1440" fromJunction="J3" toJunction="J4" end="1800" vehsPerHour="17.091256559442762" departLane="free" arrivalSpeed="0.0"/>
  <flow id="JF107" begin="1440" fromJunction="J3" toJunction="J7" end="1800" vehsPerHour="31.420857906549553" departLane="free" arrivalSpeed="0.0"/>
  <flow id="JF108" begin="1440" fromJunction="J3" toJunction="J6" end="1800" vehsPerHour="64.0123055295407" departLane="free" arrivalSpeed="0.0"/>
  <flow id="JF109" begin="1440" fromJunction="J3" toJunction="J5" end="1800" vehsPerHour="8.361154499799305" departLane="free" arrivalSpeed="0.0"/>
  <flow id="JF110" begin="1440" fromJunction="J4" toJunction="J7" end="1800" vehsPerHour="2.148626488002935" departLane="free" arrivalSpeed="0.0"/>
  <flow id="JF111" begin="1440" fromJunction="J4" toJunction="J6" end="1800" vehsPerHour="35.28306800578612" departLane="free" arrivalSpeed="0.0"/>
  <flow id="JF112" begin="1440" fromJunction="J4" toJunction="J5" end="1800" vehsPerHour="35.73256197596662" departLane="free" arrivalSpeed="0.0"/>
  <flow id="JF113" begin="1440" fromJunction="J7" toJunction="J4" end="1800" vehsPerHour="45.92865128684218" departLane="free" arrivalSpeed="0.0"/>
  <flow id="JF114" begin="1440" fromJunction="J7" toJunction="J6" end="1800" vehsPerHour="4.6872534616971775" departLane="free" arrivalSpeed="0.0"/>
  <flow id="JF115" begin="1440" fromJunction="J7" toJunction="J5" end="1800" vehsPerHour="44.04239802419609" departLane="free" arrivalSpeed="0.0"/>
  <flow id="JF116" begin="1440" fromJunction="J6" toJunction="J4" end="1800" vehsPerHour="63.07053153950672" departLane="free" arrivalSpeed="0.0"/>
  <flow id="JF117" begin="1440" fromJunction="J6" toJunction="J7" end="1800" vehsPerHour="26.48323698946572" departLane="free" arrivalSpeed="0.0"/>
  <flow id="JF118" begin="1440" fromJunction="J6" toJunction="J5" end="1800" vehsPerHour="60.1583880213894" departLane="free" arrivalSpeed="0.0"/>
  <flow id="JF119" begin="1440" fromJunction="J5" toJunction="J4" end="1800" vehsPerHour="8.098151686133304" departLane="free" arrivalSpeed="0.0"/>
  <flow id="JF120" begin="1440" fromJunction="J5" toJunction="J7" end="1800" vehsPerHour="13.348523426762828" departLane="free" arrivalSpeed="0.0"/>
  <flow id="JF121" begin="1440" fromJunction="J5" toJunction="J6" end="1800" vehsPerHour="51.24950221378716" departLane="free" arrivalSpeed="0.0"/>
  <flow id="JF122" begin="1440" fromJunction="J4" toJunction="J0" end="1800" vehsPerHour="64.15183909609848" departLane="free" arrivalSpeed="0.0"/>
  <flow id="JF123" begin="1440" fromJunction="J4" toJunction="J3" end="1800" vehsPerHour="31.927448564448632" departLane="free" arrivalSpeed="0.0"/>
  <flow id="JF124" begin="1440" fromJunction="J7" toJunction="J0" end="1800" vehsPerHour="6.377766826199728" departLane="free" arrivalSpeed="0.0"/>
  <flow id="JF125" begin="1440" fromJunction="J7" toJunction="J3" end="1800" vehsPerHour="13.83858760264761" departLane="free" arrivalSpeed="0.0"/>
  <flow id="JF126" begin="1440" fromJunction="J6" toJunction="J0" end="1800" vehsPerHour="4.257245517941333" departLane="free" arrivalSpeed="0.0"/>
  <flow id="JF127" begin="1440" fromJunction="J6" toJunction="J3" end="1800" vehsPerHour="30.655002322803476" departLane="free" arrivalSpeed="0.0"/>
  <flow id="JF128" begin="1440" fromJunction="J5" toJunction="J0" end="1800" vehsPerHour="32.93665863682773" departLane="free" arrivalSpeed="0.0"/>
  <flow id="JF129" begin="1440" fromJunction="J5" toJunction="J3" end="1800" vehsPerHour="35.030375769018505" departLane="free" arrivalSpeed="0.0"/>
  <flow id="JF130" begin="1800" fromJunction="J0" toJunction="J3" end="2160" vehsPerHour="70.88589830723063" departLane="free" arrivalSpeed="0.0"/>
  <flow id="JF131" begin="1800" fromJunction="J3" toJunction="J0" end="2160" vehsPerHour="23.705628844306172" departLane="free" arrivalSpeed="0.0"/>
  <flow id="JF132" begin="1800" fromJunction="J0" toJunction="J4" end="2160" vehsPerHour="14.945932316920553" departLane="free" arrivalSpeed="0.0"/>
  <flow id="JF133" begin="1800" fromJunction="J0" toJunction="J7" end="2160" vehsPerHour="104.65179182768671" departLane="free" arrivalSpeed="0.0"/>
  <flow id="JF134" begin="1800" fromJunction="J0" toJunction="J6" end="2160" vehsPerHour="97.40046226336015" departLane="free" arrivalSpeed="0.0"/>
  <flow id="JF135" begin="1800" fromJunction="J0" toJunction="J5" end="2160" vehsPerHour="2.8830099123865494" departLane="free" arrivalSpeed="0.0"/>
  <flow id="JF136" begin="1800" fromJunction="J3" toJunction="J4" end="2160" vehsPerHour="118.23442642217377" departLane="free" arrivalSpeed="0.0"/>
  <flow id="JF137" begin="1800" fromJunction="J3" toJunction="J7" end="2160" vehsPerHour="34.5268378995896" departLane="free" arrivalSpeed="0.0"/>
  <flow id="JF138" begin="1800" fromJunction="J3" toJunction="J6" end="2160" vehsPerHour="5.794861790873608" departLane="free" arrivalSpeed="0.0"/>
  <flow id="JF139" begin="1800" fromJunction="J3" toJunction="J5" end="2160" vehsPerHour="135.0608417602444" departLane="free" arrivalSpeed="0.0"/>
  <flow id="JF140" begin="1800" fromJunction="J4" toJunction="J7" end="2160" vehsPerHour="4.998383111716224" departLane="free" arrivalSpeed="0.0"/>
  <flow id="JF141" begin="1800" fromJunction="J4" toJunction="J6" end="2160" vehsPerHour="54.49357294689515" departLane="free" arrivalSpeed="0.0"/>
  <flow id="JF142" begin="1800" fromJunction="J4" toJunction="J5" end="2160" vehsPerHour="18.581317199693892" departLane="free" arrivalSpeed="0.0"/>
  <flow id="JF143" begin="1800" fromJunction="J7" toJunction="J4" end="2160" vehsPerHour="31.52224467518297" departLane="free" arrivalSpeed="0.0"/>
  <flow id="JF144" begin="1800" fromJunction="J7" toJunction="J6" end="2160" vehsPerHour="62.71377767413984" departLane="free" arrivalSpeed="0.0"/>
  <flow id="JF145" begin="1800" fromJunction="J7" toJunction="J5" end="2160" vehsPerHour="45.17288441722561" departLane="free" arrivalSpeed="0.0"/>
  <flow id="JF146" begin="1800" fromJunction="J6" toJunction="J4" end="2160" vehsPerHour="57.54078567623424" departLane="free" arrivalSpeed="0.0"/>
  <flow id="JF147" begin="1800" fromJunction="J6" toJunction="J7" end="2160" vehsPerHour="57.62885660213655" departLane="free" arrivalSpeed="0.0"/>
  <flow id="JF148" begin="1800" fromJunction="J6" toJunction="J5" end="2160" vehsPerHour="49.94129165232254" departLane="free" arrivalSpeed="0.0"/>
  <flow id="JF149" begin="1800" fromJunction="J5" toJunction="J4" end="2160" vehsPerHour="54.667541585542054" departLane="free" arrivalSpeed="0.0"/>
  <flow id="JF150" begin="1800" fromJunction="J5" toJunction="J7" end="2160" vehsPerHour="64.50213284274186" departLane="free" arrivalSpeed="0.0"/>
  <flow id="JF151" begin="1800" fromJunction="J5" toJunction="J6" end="2160" vehsPerHour="47.48406861741576" departLane="free" arrivalSpeed="0.0"/>
  <flow id="JF152" begin="1800" fromJunction="J4" toJunction="J0" end="2160" vehsPerHour="67.55610475042467" departLane="free" arrivalSpeed="0.0"/>
  <flow id="JF153" begin="1800" fromJunction="J4" toJunction="J3" end="2160" vehsPerHour="38.604499004322484" departLane="free" arrivalSpeed="0.0"/>
  <flow id="JF154" begin="1800" fromJunction="J7" toJunction="J0" end="2160" vehsPerHour="15.190253355608291" departLane="free" arrivalSpeed="0.0"/>
  <flow id="JF155" begin="1800" fromJunction="J7" toJunction="J3" end="2160" vehsPerHour="65.80603618388677" departLane="free" arrivalSpeed="0.0"/>
  <flow id="JF156" begin="1800" fromJunction="J6" toJunction="J0" end="2160" vehsPerHour="9.583177700502768" departLane="free" arrivalSpeed="0.0"/>
  <flow id="JF157" begin="1800" fromJunction="J6" toJunction="J3" end="2160" vehsPerHour="35.12608783431671" departLane="free" arrivalSpeed="0.0"/>
  <flow id="JF158" begin="1800" fromJunction="J5" toJunction="J0" end="2160" vehsPerHour="7.05695875823011" departLane="free" arrivalSpeed="0.0"/>
  <flow id="JF159" begin="1800" fromJunction="J5" toJunction="J3" end="2160" vehsPerHour="61.24291101189885" departLane="free" arrivalSpeed="0.0"/>
  <flow id="JF160" begin="2160" fromJunction="J0" toJunction="J3" end="2520" vehsPerHour="12.452346118888206" departLane="free" arrivalSpeed="0.0"/>
  <flow id="JF161" begin="2160" fromJunction="J3" toJunction="J0" end="2520" vehsPerHour="48.73016547963797" departLane="free" arrivalSpeed="0.0"/>
  <flow id="JF162" begin="2160" fromJunction="J0" toJunction="J4" end="2520" vehsPerHour="64.58999367148984" departLane="free" arrivalSpeed="0.0"/>
  <flow id="JF163" begin="2160" fromJunction="J0" toJunction="J7" end="2520" vehsPerHour="115.75756923495629" departLane="free" arrivalSpeed="0.0"/>
  <flow id="JF164" begin="2160" fromJunction="J0" toJunction="J6" end="2520" vehsPerHour="11.903793451902665" departLane="free" arrivalSpeed="0.0"/>
  <flow id="JF165" begin="2160" fromJunction="J0" toJunction="J5" end="2520" vehsPerHour="70.53978581156018" departLane="free" arrivalSpeed="0.0"/>
  <flow id="JF166" begin="2160" fromJunction="J3" toJunction="J4" end="2520" vehsPerHour="83.94966370010722" departLane="free" arrivalSpeed="0.0"/>
  <flow id="JF167" begin="2160" fromJunction="J3" toJunction="J7" end="2520" vehsPerHour="99.08356170687858" departLane="free" arrivalSpeed="0.0"/>
  <flow id="JF168" begin="2160" fromJunction="J3" toJunction="J6" end="2520" vehsPerHour="124.41011187313272" departLane="free" arrivalSpeed="0.0"/>
  <flow id="JF169" begin="2160" fromJunction="J3" toJunction="J5" end="2520" vehsPerHour="2.794341785688334" departLane="free" arrivalSpeed="0.0"/>
  <flow id="JF170" begin="2160" fromJunction="J4" toJunction="J7" end="2520" vehsPerHour="12.671553371394229" departLane="free" arrivalSpeed="0.0"/>
  <flow id="JF171" begin="2160" fromJunction="J4" toJunction="J6" end="2520" vehsPerHour="65.20423097080105" departLane="free" arrivalSpeed="0.0"/>
  <flow id="JF172" begin="2160" fromJunction="J4" toJunction="J5" end="2520" vehsPerHour="21.337577914765937" departLane="free" arrivalSpeed="0.0"/>
  <flow id="JF173" begin="2160" fromJunction="J7" toJunction="J4" end="2520" vehsPerHour="38.95861920830512" departLane="free" arrivalSpeed="0.0"/>
  <flow id="JF174" begin="2160" fromJunction="J7" toJunction="J6" end="2520" vehsPerHour="60.60032593534388" departLane="free" arrivalSpeed="0.0"/>
  <flow id="JF175" begin="2160" fromJunction="J7" toJunction="J5" end="2520" vehsPerHour="64.68539475606137" departLane="free" arrivalSpeed="0.0"/>
  <flow id="JF176" begin="2160" fromJunction="J6" toJunction="J4" end="2520" vehsPerHour="25.890384409603193" departLane="free" arrivalSpeed="0.0"/>
  <flow id="JF177" begin="2160" fromJunction="J6" toJunction="J7" end="2520" vehsPerHour="47.020202090388956" departLane="free" arrivalSpeed="0.0"/>
  <flow id="JF178" begin="2160" fromJunction="J6" toJunction="J5" end="2520" vehsPerHour="1.2447197644900085" departLane="free" arrivalSpeed="0.0"/>
  <flow id="JF179" begin="2160" fromJunction="J5" toJunction="J4" end="2520" vehsPerHour="30.800469639580346" departLane="free" arrivalSpeed="0.0"/>
  <flow id="JF180" begin="2160" fromJunction="J5" toJunction="J7" end="2520" vehsPerHour="32.2237363664531" departLane="free" arrivalSpeed="0.0"/>
  <flow id="JF181" begin="2160" fromJunction="J5" toJunction="J6" end="2520" vehsPerHour="50.71293827566595" departLane="free" arrivalSpeed="0.0"/>
  <flow id="JF182" begin="2160" fromJunction="J4" toJunction="J0" end="2520" vehsPerHour="40.969831695058126" departLane="free" arrivalSpeed="0.0"/>
  <flow id="JF183" begin="2160" fromJunction="J4" toJunction="J3" end="2520" vehsPerHour="50.46447426094866" departLane="free" arrivalSpeed="0.0"/>
  <flow id="JF184" begin="2160" fromJunction="J7" toJunction="J0" end="2520" vehsPerHour="36.0611051980547" departLane="free" arrivalSpeed="0.0"/>
  <flow id="JF185" begin="2160" fromJunction="J7" toJunction="J3" end="2520" vehsPerHour="20.9670641266407" departLane="free" arrivalSpeed="0.0"/>
  <flow id="JF186" begin="2160" fromJunction="J6" toJunction="J0" end="2520" vehsPerHour="47.978987781671016" departLane="free" arrivalSpeed="0.0"/>
  <flow id="JF187" begin="2160" fromJunction="J6" toJunction="J3" end="2520" vehsPerHour="29.982927783402918" departLane="free" arrivalSpeed="0.0"/>
  <flow id="JF188" begin="2160" fromJunction="J5" toJunction="J0" end="2520" vehsPerHour="48.235062820201" departLane="free" arrivalSpeed="0.0"/>
  <flow id="JF189" begin="2160" fromJunction="J5" toJunction="J3" end="2520" vehsPerHour="61.84831717132667" departLane="free" arrivalSpeed="0.0"/>
  <flow id="JF190" begin="2520" fromJunction="J0" toJunction="J3" end="2880" vehsPerHour="122.38101548412276" departLane="free" arrivalSpeed="0.0"/>
  <flow id="JF191" begin="2520" fromJunction="J3" toJunction="J0" end="2880" vehsPerHour="131.36317435642252" departLane="free" arrivalSpeed="0.0"/>
  <flow id="JF192" begin="2520" fromJunction="J0" toJunction="J4" end="2880" vehsPerHour="48.28335169486288" departLane="free" arrivalSpeed="0.0"/>
  <flow id="JF193" begin="2520" fromJunction="J0" toJunction="J7" end="2880" vehsPerHour="115.05359570827862" departLane="free" arrivalSpeed="0.0"/>
  <flow id="JF194" begin="2520" fromJunction="J0" toJunction="J6" end="2880" vehsPerHour="114.2762174848575" departLane="free" arrivalSpeed="0.0"/>
  <flow id="JF195" begin="2520" fromJunction="J0" toJunction="J5" end="2880" vehsPerHour="103.90992329320989" departLane="free" arrivalSpeed="0.0"/>
  <flow id="JF196" begin="2520" fromJunction="J3" toJunction="J4" end="2880" vehsPerHour="137.37067403607904" departLane="free" arrivalSpeed="0.0"/>
  <flow id="JF197" begin="2520" fromJunction="J3" toJunction="J7" end="2880" vehsPerHour="36.05562238781281" departLane="free" arrivalSpeed="0.0"/>
  <flow id="JF198" begin="2520" fromJunction="J3" toJunction="J6" end="2880" vehsPerHour="132.61105494310306" departLane="free" arrivalSpeed="0.0"/>
  <flow id="JF199" begin="2520" fromJunction="J3" toJunction="J5" end="2880" vehsPerHour="101.72515630258955" departLane="free" arrivalSpeed="0.0"/>
  <flow id="JF200" begin="2880" fromJunction="J0" toJunction="J3" end="3240" vehsPerHour="4.019984913862382" departLane="free" arrivalSpeed="0.0"/>
  <flow id="JF201" begin="2880" fromJunction="J3" toJunction="J0" end="3240" vehsPerHour="118.49908742640312" departLane="free" arrivalSpeed="0.0"/>
  <flow id="JF202" begin="2880" fromJunction="J0" toJunction="J4" end="3240" vehsPerHour="92.88551542678668" departLane="free" arrivalSpeed="0.0"/>