<?xml version="1.0" encoding="UTF-8"?>
<routes xmlns:xsi="http://www.w3.org/2001/XMLSchema-instance" xsi:noNamespaceSchemaLocation="http://sumo.dlr.de/xsd/routes_file.xsd">
  <flow id="JF8120" begin="0" fromJunction="J0" toJunction="J3" end="60" vehsPerHour="62.89457546451732" departLane="free"/>
  <flow id="JF8121" begin="0" fromJunction="J3" toJunction="J0" end="60" vehsPerHour="90.34131152843025" departLane="free"/>
  <flow id="JF8122" begin="0" fromJunction="J0" toJunction="J4" end="60" vehsPerHour="48.80292987814494" departLane="free"/>
  <flow id="JF8123" begin="0" fromJunction="J0" toJunction="J5" end="60" vehsPerHour="45.202989381482" departLane="free"/>
  <flow id="JF8124" begin="0" fromJunction="J0" toJunction="J6" end="60" vehsPerHour="79.38513144771821" departLane="free"/>
  <flow id="JF8125" begin="0" fromJunction="J0" toJunction="J7" end="60" vehsPerHour="82.5967573806948" departLane="free"/>
  <flow id="JF8126" begin="0" fromJunction="J3" toJunction="J4" end="60" vehsPerHour="47.46868978592813" departLane="free"/>
  <flow id="JF8127" begin="0" fromJunction="J3" toJunction="J5" end="60" vehsPerHour="85.5826482441794" departLane="free"/>
  <flow id="JF8128" begin="0" fromJunction="J3" toJunction="J6" end="60" vehsPerHour="85.35366487133949" departLane="free"/>
  <flow id="JF8129" begin="0" fromJunction="J3" toJunction="J7" end="60" vehsPerHour="112.19026348154802" departLane="free"/>
  <flow id="JF8130" begin="0" fromJunction="J4" toJunction="J5" end="60" vehsPerHour="2.160988585983698" departLane="free"/>
  <flow id="JF8131" begin="0" fromJunction="J4" toJunction="J6" end="60" vehsPerHour="2.5479356939576205" departLane="free"/>
  <flow id="JF8132" begin="0" fromJunction="J4" toJunction="J7" end="60" vehsPerHour="46.204690519650434" departLane="free"/>
  <flow id="JF8133" begin="0" fromJunction="J5" toJunction="J4" end="60" vehsPerHour="63.41864542216935" departLane="free"/>
  <flow id="JF8134" begin="0" fromJunction="J5" toJunction="J6" end="60" vehsPerHour="15.12937889766038" departLane="free"/>
  <flow id="JF8135" begin="0" fromJunction="J5" toJunction="J7" end="60" vehsPerHour="28.63290982872189" departLane="free"/>
  <flow id="JF8136" begin="0" fromJunction="J6" toJunction="J4" end="60" vehsPerHour="66.65875309990697" departLane="free"/>
  <flow id="JF8137" begin="0" fromJunction="J6" toJunction="J5" end="60" vehsPerHour="63.00890017245085" departLane="free"/>
  <flow id="JF8138" begin="0" fromJunction="J6" toJunction="J7" end="60" vehsPerHour="17.429834564771294" departLane="free"/>
  <flow id="JF8139" begin="0" fromJunction="J7" toJunction="J4" end="60" vehsPerHour="10.3566854144194" departLane="free"/>
  <flow id="JF8140" begin="0" fromJunction="J7" toJunction="J5" end="60" vehsPerHour="24.091226272357517" departLane="free"/>
  <flow id="JF8141" begin="0" fromJunction="J7" toJunction="J6" end="60" vehsPerHour="53.100490310345315" departLane="free"/>
  <flow id="JF8142" begin="0" fromJunction="J4" toJunction="J0" end="60" vehsPerHour="13.751000899533487" departLane="free"/>
  <flow id="JF8143" begin="0" fromJunction="J4" toJunction="J3" end="60" vehsPerHour="51.73997368168174" departLane="free"/>
  <flow id="JF8144" begin="0" fromJunction="J5" toJunction="J0" end="60" vehsPerHour="9.627031603540786" departLane="free"/>
  <flow id="JF8145" begin="0" fromJunction="J5" toJunction="J3" end="60" vehsPerHour="45.24151796509694" departLane="free"/>
  <flow id="JF8146" begin="0" fromJunction="J6" toJunction="J0" end="60" vehsPerHour="64.9082844957071" departLane="free"/>
  <flow id="JF8147" begin="0" fromJunction="J6" toJunction="J3" end="60" vehsPerHour="0.5047806129519826" departLane="free"/>
  <flow id="JF8148" begin="0" fromJunction="J7" toJunction="J0" end="60" vehsPerHour="68.65847963389261" departLane="free"/>
  <flow id="JF8149" begin="0" fromJunction="J7" toJunction="J3" end="60" vehsPerHour="32.007017855399404" departLane="free"/>
  <flow id="JF8150" begin="60" fromJunction="J0" toJunction="J3" end="120" vehsPerHour="25.53836259596343" departLane="free"/>
  <flow id="JF8151" begin="60" fromJunction="J3" toJunction="J0" end="120" vehsPerHour="83.09442507881533" departLane="free"/>
  <flow id="JF8152" begin="60" fromJunction="J0" toJunction="J4" end="120" vehsPerHour="109.43102889124948" departLane="free"/>
  <flow id="JF8153" begin="60" fromJunction="J0" toJunction="J5" end="120" vehsPerHour="114.10901015289872" departLane="free"/>
  <flow id="JF8154" begin="60" fromJunction="J0" toJunction="J6" end="120" vehsPerHour="65.35264587775272" departLane="free"/>
  <flow id="JF8155" begin="60" fromJunction="J0" toJunction="J7" end="120" vehsPerHour="49.93242599216146" departLane="free"/>
  <flow id="JF8156" begin="60" fromJunction="J3" toJunction="J4" end="120" vehsPerHour="121.17128511974828" departLane="free"/>
  <flow id="JF8157" begin="60" fromJunction="J3" toJunction="J5" end="120" vehsPerHour="34.528821621958826" departLane="free"/>
  <flow id="JF8158" begin="60" fromJunction="J3" toJunction="J6" end="120" vehsPerHour="135.865635323436" departLane="free"/>
  <flow id="JF8159" begin="60" fromJunction="J3" toJunction="J7" end="120" vehsPerHour="132.68934140979908" departLane="free"/>
  <flow id="JF8160" begin="120" fromJunction="J0" toJunction="J3" end="180" vehsPerHour="45.17835690859451" departLane="free"/>
  <flow id="JF8161" begin="120" fromJunction="J3" toJunction="J0" end="180" vehsPerHour="85.28735546729169" departLane="free"/>
  <flow id="JF8162" begin="120" fromJunction="J0" toJunction="J4" end="180" vehsPerHour="117.93251609616935" departLane="free"/>
  <flow id="JF8163" begin="120" fromJunction="J0" toJunction="J5" end="180" vehsPerHour="118.9886569745938" departLane="free"/>
  <flow id="JF8164" begin="120" fromJunction="J0" toJunction="J6" end="180" vehsPerHour="102.63836255837768" departLane="free"/>
  <flow id="JF8165" begin="120" fromJunction="J0" toJunction="J7" end="180" vehsPerHour="77.37087765797742" departLane="free"/>
  <flow id="JF8166" begin="120" fromJunction="J3" toJunction="J4" end="180" vehsPerHour="30.17079047520735" departLane="free"/>
  <flow id="JF8167" begin="120" fromJunction="J3" toJunction="J5" end="180" vehsPerHour="127.00068439780574" departLane="free"/>
  <flow id="JF8168" begin="120" fromJunction="J3" toJunction="J6" end="180" vehsPerHour="79.50578982562561" departLane="free"/>
  <flow id="JF8169" begin="120" fromJunction="J3" toJunction="J7" end="180" vehsPerHour="89.34511733068933" departLane="free"/>
  <flow id="JF8170" begin="120" fromJunction="J4" toJunction="J5" end="180" vehsPerHour="52.34552588757742" departLane="free"/>
  <flow id="JF8171" begin="120" fromJunction="J4" toJunction="J6" end="180" vehsPerHour="61.62651186397852" departLane="free"/>
  <flow id="JF8172" begin="120" fromJunction="J4" toJunction="J7" end="180" vehsPerHour="52.402511248818456" departLane="free"/>
  <flow id="JF8173" begin="120" fromJunction="J5" toJunction="J4" end="180" vehsPerHour="48.02768342108776" departLane="free"/>
  <flow id="JF8174" begin="120" fromJunction="J5" toJunction="J6" end="180" vehsPerHour="3.458243809866973" departLane="free"/>
  <flow id="JF8175" begin="120" fromJunction="J5" toJunction="J7" end="180" vehsPerHour="31.261525040860924" departLane="free"/>
  <flow id="JF8176" begin="120" fromJunction="J6" toJunction="J4" end="180" vehsPerHour="63.75385635514289" departLane="free"/>
  <flow id="JF8177" begin="120" fromJunction="J6" toJunction="J5" end="180" vehsPerHour="23.831344219843594" departLane="free"/>
  <flow id="JF8178" begin="120" fromJunction="J6" toJunction="J7" end="180" vehsPerHour="41.80347180769574" departLane="free"/>
  <flow id="JF8179" begin="120" fromJunction="J7" toJunction="J4" end="180" vehsPerHour="28.01832045446206" departLane="free"/>
  <flow id="JF8180" begin="120" fromJunction="J7" toJunction="J5" end="180" vehsPerHour="35.489694716262626" departLane="free"/>
  <flow id="JF8181" begin="120" fromJunction="J7" toJunction="J6" end="180" vehsPerHour="11.8748905622546" departLane="free"/>
  <flow id="JF8182" begin="120" fromJunction="J4" toJunction="J0" end="180" vehsPerHour="54.97100447744438" departLane="free"/>
  <flow id="JF8183" begin="120" fromJunction="J4" toJunction="J3" end="180" vehsPerHour="53.692852460467364" departLane="free"/>
  <flow id="JF8184" begin="120" fromJunction="J5" toJunction="J0" end="180" vehsPerHour="44.52489262737259" departLane="free"/>
  <flow id="JF8185" begin="120" fromJunction="J5" toJunction="J3" end="180" vehsPerHour="14.786370310100644" departLane="free"/>
  <flow id="JF8186" begin="120" fromJunction="J6" toJunction="J0" end="180" vehsPerHour="30.005554595265554" departLane="free"/>
  <flow id="JF8187" begin="120" fromJunction="J6" toJunction="J3" end="180" vehsPerHour="20.438877392220018" departLane="free"/>
  <flow id="JF8188" begin="120" fromJunction="J7" toJunction="J0" end="180" vehsPerHour="48.39956782474648" departLane="free"/>
  <flow id="JF8189" begin="120" fromJunction="J7" toJunction="J3" end="180" vehsPerHour="63.14965746628416" departLane="free"/>
  <flow id="JF8190" begin="180" fromJunction="J0" toJunction="J3" end="240" vehsPerHour="33.886530459773404" departLane="free"/>
  <flow id="JF8191" begin="180" fromJunction="J3" toJunction="J0" end="240" vehsPerHour="101.86981463546519" departLane="free"/>
  <flow id="JF8192" begin="180" fromJunction="J0" toJunction="J4" end="240" vehsPerHour="38.248735610859875" departLane="free"/>
  <flow id="JF8193" begin="180" fromJunction="J0" toJunction="J5" end="240" vehsPerHour="117.37467128481242" departLane="free"/>
  <flow id="JF8194" begin="180" fromJunction="J0" toJunction="J6" end="240" vehsPerHour="9.795765642452208" departLane="free"/>
  <flow id="JF8195" begin="180" fromJunction="J0" toJunction="J7" end="240" vehsPerHour="92.19651650048162" departLane="free"/>
  <flow id="JF8196" begin="180" fromJunction="J3" toJunction="J4" end="240" vehsPerHour="4.481832339783897" departLane="free"/>
  <flow id="JF8197" begin="180" fromJunction="J3" toJunction="J5" end="240" vehsPerHour="108.79398117628087" departLane="free"/>
  <flow id="JF8198" begin="180" fromJunction="J3" toJunction="J6" end="240" vehsPerHour="94.2454139682337" departLane="free"/>
  <flow id="JF8199" begin="180" fromJunction="J3" toJunction="J7" end="240" vehsPerHour="107.71797976952026" departLane="free"/>
  <flow id="JF8200" begin="180" fromJunction="J4" toJunction="J5" end="240" vehsPerHour="63.89504457853921" departLane="free"/>
  <flow id="JF8201" begin="180" fromJunction="J4" toJunction="J6" end="240" vehsPerHour="44.83075126046147" departLane="free"/>
  <flow id="JF8202" begin="180" fromJunction="J4" toJunction="J7" end="240" vehsPerHour="0.23113729475895387" departLane="free"/>
  <flow id="JF8203" begin="180" fromJunction="J5" toJunction="J4" end="240" vehsPerHour="57.64590727483131" departLane="free"/>
  <flow id="JF8204" begin="180" fromJunction="J5" toJunction="J6" end="240" vehsPerHour="67.3416502162032" departLane="free"/>
  <flow id="JF8205" begin="180" fromJunction="J5" toJunction="J7" end="240" vehsPerHour="24.390119354229196" departLane="free"/>
  <flow id="JF8206" begin="180" fromJunction="J6" toJunction="J4" end="240" vehsPerHour="2.3181787817961044" departLane="free"/>
  <flow id="JF8207" begin="180" fromJunction="J6" toJunction="J5" end="240" vehsPerHour="52.231570111791285" departLane="free"/>
  <flow id="JF8208" begin="180" fromJunction="J6" toJunction="J7" end="240" vehsPerHour="68.31792708576867" departLane="free"/>
  <flow id="JF8209" begin="180" fromJunction="J7" toJunction="J4" end="240" vehsPerHour="52.276172166946715" departLane="free"/>
  <flow id="JF8210" begin="180" fromJunction="J7" toJunction="J5" end="240" vehsPerHour="47.83594587172668" departLane="free"/>
  <flow id="JF8211" begin="180" fromJunction="J7" toJunction="J6" end="240" vehsPerHour="29.966653880161044" departLane="free"/>
  <flow id="JF8212" begin="180" fromJunction="J4" toJunction="J0" end="240" vehsPerHour="34.325692032117864" departLane="free"/>
  <flow id="JF8213" begin="180" fromJunction="J4" toJunction="J3" end="240" vehsPerHour="24.097391503035343" departLane="free"/>
  <flow id="JF8214" begin="180" fromJunction="J5" toJunction="J0" end="240" vehsPerHour="63.7248519422191" departLane="free"/>
  <flow id="JF8215" begin="180" fromJunction="J5" toJunction="J3" end="240" vehsPerHour="25.392790100559903" departLane="free"/>
  <flow id="JF8216" begin="180" fromJunction="J6" toJunction="J0" end="240" vehsPerHour="50.95710181868481" departLane="free"/>
  <flow id="JF8217" begin="180" fromJunction="J6" toJunction="J3" end="240" vehsPerHour="30.8668926280197" departLane="free"/>
  <flow id="JF8218" begin="180" fromJunction="J7" toJunction="J0" end="240" vehsPerHour="34.74573162480432" departLane="free"/>
  <flow id="JF8219" begin="180" fromJunction="J7" toJunction="J3" end="240" vehsPerHour="11.24168178373179" departLane="free"/>
  <flow id="JF8220" begin="240" fromJunction="J0" toJunction="J3" end="300" vehsPerHour="101.82099425734255" departLane="free"/>
  <flow id="JF8221" begin="240" fromJunction="J3" toJunction="J0" end="300" vehsPerHour="19.652804889756137" departLane="free"/>
  <flow id="JF8222" begin="240" fromJunction="J0" toJunction="J4" end="300" vehsPerHour="11.577226952517151" departLane="free"/>
  <flow id="JF8223" begin="240" fromJunction="J0" toJunction="J5" end="300" vehsPerHour="120.3569492150811" departLane="free"/>
  <flow id="JF8224" begin="240" fromJunction="J0" toJunction="J6" end="300" vehsPerHour="0.5898377209942215" departLane="free"/>
  <flow id="JF8225" begin="240" fromJunction="J0" toJunction="J7" end="300" vehsPerHour="109.3855038532053" departLane="free"/>
  <flow id="JF8226" begin="240" fromJunction="J3" toJunction="J4" end="300" vehsPerHour="123.52001611809038" departLane="free"/>
  <flow id="JF8227" begin="240" fromJunction="J3" toJunction="J5" end="300" vehsPerHour="44.760567000725025" departLane="free"/>
  <flow id="JF8228" begin="240" fromJunction="J3" toJunction="J6" end="300" vehsPerHour="112.95106198823895" departLane="free"/>
  <flow id="JF8229" begin="240" fromJunction="J3" toJunction="J7" end="300" vehsPerHour="101.41685097141146" departLane="free"/>
  <flow id="JF8230" begin="300" fromJunction="J0" toJunction="J3" end="360" vehsPerHour="108.268064658477" departLane="free"/>
  <flow id="JF8231" begin="300" fromJunction="J3" toJunction="J0" end="360" vehsPerHour="125.55127260279308" departLane="free"/>
  <flow id="JF8232" begin="300" fromJunction="J0" toJunction="J4" end="360" vehsPerHour="111.48402869858863" departLane="free"/>
  <flow id="JF8233" begin="300" fromJunction="J0" toJunction="J5" end="360" vehsPerHour="137.27290258369203" departLane="free"/>
  <flow id="JF8234" begin="300" fromJunction="J0" toJunction="J6" end="360" vehsPerHour="124.44663595166038" departLane="free"/>
  <flow id="JF8235" begin="300" fromJunction="J0" toJunction="J7" end="360" vehsPerHour="24.200975612437357" departLane="free"/>
  <flow id="JF8236" begin="300" fromJunction="J3" toJunction="J4" end="360" vehsPerHour="105.8411359881489" departLane="free"/>
  <flow id="JF8237" begin="300" fromJunction="J3" toJunction="J5" end="360" vehsPerHour="54.40902565931132" departLane="free"/>
  <flow id="JF8238" begin="300" fromJunction="J3" toJunction="J6" end="360" vehsPerHour="102.54252678304789" departLane="free"/>
  <flow id="JF8239" begin="300" fromJunction="J3" toJunction="J7" end="360" vehsPerHour="19.285608794782114" departLane="free"/>
  <flow id="JF8240" begin="300" fromJunction="J4" toJunction="J5" end="360" vehsPerHour="57.241880670469214" departLane="free"/>
  <flow id="JF8241" begin="300" fromJunction="J4" toJunction="J6" end="360" vehsPerHour="26.799758353206485" departLane="free"/>
  <flow id="JF8242" begin="300" fromJunction="J4" toJunction="J7" end="360" vehsPerHour="50.3317162331036" departLane="free"/>
  <flow id="JF8243" begin="300" fromJunction="J5" toJunction="J4" end="360" vehsPerHour="21.492416760368165" departLane="free"/>
  <flow id="JF8244" begin="300" fromJunction="J5" toJunction="J6" end="360" vehsPerHour="43.33233259211058" departLane="free"/>
  <flow id="JF8245" begin="300" fromJunction="J5" toJunction="J7" end="360" vehsPerHour="62.010661891505606" departLane="free"/>
  <flow id="JF8246" begin="300" fromJunction="J6" toJunction="J4" end="360" vehsPerHour="4.596362948610984" departLane="free"/>
  <flow id="JF8247" begin="300" fromJunction="J6" toJunction="J5" end="360" vehsPerHour="23.38987479721008" departLane="free"/>
  <flow id="JF8248" begin="300" fromJunction="J6" toJunction="J7" end="360" vehsPerHour="58.29259759123375" departLane="free"/>
  <flow id="JF8249" begin="300" fromJunction="J7" toJunction="J4" end="360" vehsPerHour="18.718365246293008" departLane="free"/>
  <flow id="JF8250" begin="300" fromJunction="J7" toJunction="J5" end="360" vehsPerHour="25.77348231447912" departLane="free"/>
  <flow id="JF8251" begin="300" fromJunction="J7" toJunction="J6" end="360" vehsPerHour="4.94381263128543" departLane="free"/>
  <flow id="JF8252" begin="300" fromJunction="J4" toJunction="J0" end="360" vehsPerHour="18.936070208404253" departLane="free"/>
  <flow id="JF8253" begin="300" fromJunction="J4" toJunction="J3" end="360" vehsPerHour="63.97006571232599" departLane="free"/>
  <flow id="JF8254" begin="300" fromJunction="J5" toJunction="J0" end="360" vehsPerHour="36.33294170294765" departLane="free"/>
  <flow id="JF8255" begin="300" fromJunction="J5" toJunction="J3" end="360" vehsPerHour="14.67323811926308" departLane="free"/>
  <flow id="JF8256" begin="300" fromJunction="J6" toJunction="J0" end="360" vehsPerHour="24.203482935014648" departLane="free"/>
  <flow id="JF8257" begin="300" fromJunction="J6" toJunction="J3" end="360" vehsPerHour="50.76074733201725" departLane="free"/>
  <flow id="JF8258" begin="300" fromJunction="J7" toJunction="J0" end="360" vehsPerHour="29.47350826561286" departLane="free"/>
  <flow id="JF8259" begin="300" fromJunction="J7" toJunction="J3" end="360" vehsPerHour="7.559964419859624" departLane="free"/>
  <flow id="JF8260" begin="360" fromJunction="J0" toJunction="J3" end="420" vehsPerHour="38.01123498934991" departLane="free"/>
  <flow id="JF8261" begin="360" fromJunction="J3" toJunction="J0" end="420" vehsPerHour="68.63700708460463" departLane="free"/>
  <flow id="JF8262" begin="360" fromJunction="J0" toJunction="J4" end="420" vehsPerHour="97.38652758352465" departLane="free"/>
  <flow id="JF8263" begin="360" fromJunction="J0" toJunction="J5" end="420" vehsPerHour="100.88329707236754" departLane="free"/>
  <flow id="JF8264" begin="360" fromJunction="J0" toJunction="J6" end="420" vehsPerHour="12.695956383059865" departLane="free"/>
  <flow id="JF8265" begin="360" fromJunction="J0" toJunction="J7" end="420" vehsPerHour="8.949558945478335" departLane="free"/>
  <flow id="JF8266" begin="360" fromJunction="J3" toJunction="J4" end="420" vehsPerHour="128.49891146080827" departLane="free"/>
  <flow id="JF8267" begin="360" fromJunction="J3" toJunction="J5" end="420" vehsPerHour="67.7005585377541" departLane="free"/>
  <flow id="JF8268" begin="360" fromJunction="J3" toJunction="J6" end="420" vehsPerHour="115.75888839156354" departLane="free"/>
  <flow id="JF8269" begin="360" fromJunction="J3" toJunction="J7" end="420" vehsPerHour="30.008526451493974" departLane="free"/>
  <flow id="JF8270" begin="420" fromJunction="J0" toJunction="J3" end="480" vehsPerHour="81.43732185861582" departLane="free"/>
  <flow id="JF8271" begin="420" fromJunction="J3" toJunction="J0" end="480" vehsPerHour="110.78435262371582" departLane="free"/>
  <flow id="JF8272" begin="420" fromJunction="J0" toJunction="J4" end="480" vehsPerHour="125.43943863696165" departLane="free"/>
  <flow id="JF8273" begin="420" fromJunction="J0" toJunction="J5" end="480" vehsPerHour="102.62458927639877" departLane="free"/>
  <flow id="JF8274" begin="420" fromJunction="J0" toJunction="J6" end="480" vehsPerHour="46.20024841233283" departLane="free"/>
  <flow id="JF8275" begin="420" fromJunction="J0" toJunction="J7" end="480" vehsPerHour="36.99850429660294" departLane="free"/>
  <flow id="JF8276" begin="420" fromJunction="J3" toJunction="J4" end="480" vehsPerHour="121.47862480534437" departLane="free"/>
  <flow id="JF8277" begin="420" fromJunction="J3" toJunction="J5" end="480" vehsPerHour="32.14842090504029" departLane="free"/>
  <flow id="JF8278" begin="420" fromJunction="J3" toJunction="J6" end="480" vehsPerHour="5.684851863395153" departLane="free"/>
  <flow id="JF8279" begin="420" fromJunction="J3" toJunction="J7" end="480" vehsPerHour="70.28987465975882" departLane="free"/>
  <flow id="JF8280" begin="480" fromJunction="J0" toJunction="J3" end="540" vehsPerHour="66.03059016449492" departLane="free"/>
  <flow id="JF8281" begin="480" fromJunction="J3" toJunction="J0" end="540" vehsPerHour="10.093035944596457" departLane="free"/>
  <flow id="JF8282" begin="480" fromJunction="J0" toJunction="J4" end="540" vehsPerHour="119.09737050083649" departLane="free"/>
  <flow id="JF8283" begin="480" fromJunction="J0" toJunction="J5" end="540" vehsPerHour="112.26206410157734" departLane="free"/>
  <flow id="JF8284" begin="480" fromJunction="J0" toJunction="J6" end="540" vehsPerHour="105.03865534610806" departLane="free"/>
  <flow id="JF8285" begin="480" fromJunction="J0" toJunction="J7" end="540" vehsPerHour="90.23230836551045" departLane="free"/>
  <flow id="JF8286" begin="480" fromJunction="J3" toJunction="J4" end="540" vehsPerHour="95.34082496557932" departLane="free"/>
  <flow id="JF8287" begin="480" fromJunction="J3" toJunction="J5" end="540" vehsPerHour="56.7190923925674" departLane="free"/>
  <flow id="JF8288" begin="480" fromJunction="J3" toJunction="J6" end="540" vehsPerHour="1.4203542983429238" departLane="free"/>
  <flow id="JF8289" begin="480" fromJunction="J3" toJunction="J7" end="540" vehsPerHour="76.67089801855613" departLane="free"/>
  <flow id="JF8290" begin="480" fromJunction="J4" toJunction="J5" end="540" vehsPerHour="30.351330325647837" departLane="free"/>
  <flow id="JF8291" begin="480" fromJunction="J4" toJunction="J6" end="540" vehsPerHour="60.90257629163186" departLane="free"/>
  <flow id="JF8292" begin="480" fromJunction="J4" toJunction="J7" end="540" vehsPerHour="66.2146094824295" departLane="free"/>
  <flow id="JF8293" begin="480" fromJunction="J5" toJunction="J4" end="540" vehsPerHour="42.88732222273159" departLane="free"/>
  <flow id="JF8294" begin="480" fromJunction="J5" toJunction="J6" end="540" vehsPerHour="50.93377514999929" departLane="free"/>
  <flow id="JF8295" begin="480" fromJunction="J5" toJunction="J7" end="540" vehsPerHour="43.60295410964462" departLane="free"/>
  <flow id="JF8296" begin="480" fromJunction="J6" toJunction="J4" end="540" vehsPerHour="49.81763394735547" departLane="free"/>
  <flow id="JF8297" begin="480" fromJunction="J6" toJunction="J5" end="540" vehsPerHour="22.378764200496978" departLane="free"/>
  <flow id="JF8298" begin="480" fromJunction="J6" toJunction="J7" end="540" vehsPerHour="1.5384865163339876" departLane="free"/>
  <flow id="JF8299" begin="480" fromJunction="J7" toJunction="J4" end="540" vehsPerHour="18.92335049073087" departLane="free"/>
  <flow id="JF8300" begin="480" fromJunction="J7" toJunction="J5" end="540" vehsPerHour="16.15237054065548" departLane="free"/>
  <flow id="JF8301" begin="480" fromJunction="J7" toJunction="J6" end="540" vehsPerHour="17.767830616728755" departLane="free"/>
  <flow id="JF8302" begin="480" fromJunction="J4" toJunction="J0" end="540" vehsPerHour="68.1574889262464" departLane="free"/>
  <flow id="JF8303" begin="480" fromJunction="J4" toJunction="J3" end="540" vehsPerHour="17.44826361784255" departLane="free"/>
  <flow id="JF8304" begin="480" fromJunction="J5" toJunction="J0" end="540" vehsPerHour="3.3673870242315025" departLane="free"/>
  <flow id="JF8305" begin="480" fromJunction="J5" toJunction="J3" end="540" vehsPerHour="1.82739458849033" departLane="free"/>
  <flow id="JF8306" begin="480" fromJunction="J6" toJunction="J0" end="540" vehsPerHour="61.54112017618956" departLane="free"/>
  <flow id="JF8307" begin="480" fromJunction="J6" toJunction="J3" end="540" vehsPerHour="31.108276135649483" departLane="free"/>
  <flow id="JF8308" begin="480" fromJunction="J7" toJunction="J0" end="540" vehsPerHour="30.791994658160075" departLane="free"/>
  <flow id="JF8309" begin="480" fromJunction="J7" toJunction="J3" end="540" vehsPerHour="25.354676721764122" departLane="free"/>
  <flow id="JF8310" begin="540" fromJunction="J0" toJunction="J3" end="600" vehsPerHour="52.7176478733626" departLane="free"/>
  <flow id="JF8311" begin="540" fromJunction="J3" toJunction="J0" end="600" vehsPerHour="66.3592527216365" departLane="free"/>
  <flow id="JF8312" begin="540" fromJunction="J0" toJunction="J4" end="600" vehsPerHour="52.71066693260844" departLane="free"/>
  <flow id="JF8313" begin="540" fromJunction="J0" toJunction="J5" end="600" vehsPerHour="52.458126026556855" departLane="free"/>
  <flow id="JF8314" begin="540" fromJunction="J0" toJunction="J6" end="600" vehsPerHour="129.377906455306" departLane="free"/>
  <flow id="JF8315" begin="540" fromJunction="J0" toJunction="J7" end="600" vehsPerHour="114.60483352402338" departLane="free"/>
  <flow id="JF8316" begin="540" fromJunction="J3" toJunction="J4" end="600" vehsPerHour="71.59428003997014" departLane="free"/>
  <flow id="JF8317" begin="540" fromJunction="J3" toJunction="J5" end="600" vehsPerHour="42.42336305715554" departLane="free"/>
  <flow id="JF8318" begin="540" fromJunction="J3" toJunction="J6" end="600" vehsPerHour="92.58644851690283" departLane="free"/>
  <flow id="JF8319" begin="540" fromJunction="J3" toJunction="J7" end="600" vehsPerHour="101.88362231730535" departLane="free"/>
  <flow id="JF8320" begin="540" fromJunction="J4" toJunction="J5" end="600" vehsPerHour="3.2996397590807742" departLane="free"/>
  <flow id="JF8321" begin="540" fromJunction="J4" toJunction="J6" end="600" vehsPerHour="58.77348401352369" departLane="free"/>
  <flow id="JF8322" begin="540" fromJunction="J4" toJunction="J7" end="600" vehsPerHour="17.522383680832508" departLane="free"/>
  <flow id="JF8323" begin="540" fromJunction="J5" toJunction="J4" end="600" vehsPerHour="2.2818770042340404" departLane="free"/>
  <flow id="JF8324" begin="540" fromJunction="J5" toJunction="J6" end="600" vehsPerHour="62.20274155619978" departLane="free"/>
  <flow id="JF8325" begin="540" fromJunction="J5" toJunction="J7" end="600" vehsPerHour="49.16239453190864" departLane="free"/>
  <flow id="JF8326" begin="540" fromJunction="J6" toJunction="J4" end="600" vehsPerHour="56.860460185761376" departLane="free"/>
  <flow id="JF8327" begin="540" fromJunction="J6" toJunction="J5" end="600" vehsPerHour="62.023374261995514" departLane="free"/>
  <flow id="JF8328" begin="540" fromJunction="J6" toJunction="J7" end="600" vehsPerHour="20.297574026939692" departLane="free"/>
  <flow id="JF8329" begin="540" fromJunction="J7" toJunction="J4" end="600" vehsPerHour="66.19484954962834" departLane="free"/>
  <flow id="JF8330" begin="540" fromJunction="J7" toJunction="J5" end="600" vehsPerHour="58.87889331643062" departLane="free"/>
  <flow id="JF8331" begin="540" fromJunction="J7" toJunction="J6" end="600" vehsPerHour="8.579525431413817" departLane="free"/>
  <flow id="JF8332" begin="540" fromJunction="J4" toJunction="J0" end="600" vehsPerHour="52.40977059763469" departLane="free"/>
  <flow id="JF8333" begin="540" fromJunction="J4" toJunction="J3" end="600" vehsPerHour="24.200201403816585" departLane="free"/>
  <flow id="JF8334" begin="540" fromJunction="J5" toJunction="J0" end="600" vehsPerHour="44.19550703033758" departLane="free"/>
  <flow id="JF8335" begin="540" fromJunction="J5" toJunction="J3" end="600" vehsPerHour="34.8155409341148" departLane="free"/>
  <flow id="JF8336" begin="540" fromJunction="J6" toJunction="J0" end="600" vehsPerHour="8.089989553256778" departLane="free"/>
  <flow id="JF8337" begin="540" fromJunction="J6" toJunction="J3" end="600" vehsPerHour="8.35629930980569" departLane="free"/>
  <flow id="JF8338" begin="540" fromJunction="J7" toJunction="J0" end="600" vehsPerHour="32.64965518138989" departLane="free"/>
  <flow id="JF8339" begin="540" fromJunction="J7" toJunction="J3" end="600" vehsPerHour="23.538300517741273" departLane="free"/>
  <flow id="JF8340" begin="600" fromJunction="J0" toJunction="J3" end="660" vehsPerHour="91.05285383821227" departLane="free"/>
  <flow id="JF8341" begin="600" fromJunction="J3" toJunction="J0" end="660" vehsPerHour="60.50919070354094" departLane="free"/>
  <flow id="JF8342" begin="600" fromJunction="J0" toJunction="J4" end="660" vehsPerHour="94.57326820664646" departLane="free"/>
  <flow id="JF8343" begin="600" fromJunction="J0" toJunction="J5" end="660" vehsPerHour="16.421379777497613" departLane="free"/>
  <flow id="JF8344" begin="600" fromJunction="J0" toJunction="J6" end="660" vehsPerHour="110.0223175684248" departLane="free"/>
  <flow id="JF8345" begin="600" fromJunction="J0" toJunction="J7" end="660" vehsPerHour="117.83570192895304" departLane="free"/>
  <flow id="JF8346" begin="600" fromJunction="J3" toJunction="J4" end="660" vehsPerHour="81.43433945501833" departLane="free"/>
  <flow id="JF8347" begin="600" fromJunction="J3" toJunction="J5" end="660" vehsPerHour="109.36570930296304" departLane="free"/>
  <flow id="JF8348" begin="600" fromJunction="J3" toJunction="J6" end="660" vehsPerHour="5.555178234946388" departLane="free"/>
  <flow id="JF8349" begin="600" fromJunction="J3" toJunction="J7" end="660" vehsPerHour="25.317152134879063" departLane="free"/>
  <flow id="JF8350" begin="600" fromJunction="J4" toJunction="J5" end="660" vehsPerHour="54.59740876993803" departLane="free"/>
  <flow id="JF8351" begin="600" fromJunction="J4" toJunction="J6" end="660" vehsPerHour="52.557819273747874" departLane="free"/>
  <flow id="JF8352" begin="600" fromJunction="J4" toJunction="J7" end="660" vehsPerHour="62.11288101082134" departLane="free"/>