<?xml version="1.0" encoding="UTF-8"?>
<routes xmlns:xsi="http://www.w3.org/2001/XMLSchema-instance" xsi:noNamespaceSchemaLocation="http://sumo.dlr.de/xsd/routes_file.xsd">
  <flow id="JF0" begin="0" fromJunction="J0" toJunction="J12" end="360" vehsPerHour="42.138203966127826" departLane="free" arrivalSpeed="0.0"/>
  <flow id="JF1" begin="0" fromJunction="J0" toJunction="J13" end="360" vehsPerHour="31.979700889230976" departLane="free" arrivalSpeed="0.0"/>
  <flow id="JF2" begin="0" fromJunction="J0" toJunction="J15" end="360" vehsPerHour="27.02973064189978" departLane="free" arrivalSpeed="0.0"/>
  <flow id="JF3" begin="0" fromJunction="J0" toJunction="J16" end="360" vehsPerHour="68.33620846277194" departLane="free" arrivalSpeed="0.0"/>
  <flow id="JF4" begin="0" fromJunction="J0" toJunction="J2" end="360" vehsPerHour="43.791787513677605" departLane="free" arrivalSpeed="0.0"/>
  <flow id="JF5" begin="0" fromJunction="J0" toJunction="J3" end="360" vehsPerHour="40.63284877854311" departLane="free" arrivalSpeed="0.0"/>
  <flow id="JF6" begin="0" fromJunction="J0" toJunction="J7" end="360" vehsPerHour="35.749087044114084" departLane="free" arrivalSpeed="0.0"/>
  <flow id="JF7" begin="0" fromJunction="J0" toJunction="J9" end="360" vehsPerHour="23.20425862160889" departLane="free" arrivalSpeed="0.0"/>
  <flow id="JF8" begin="0" fromJunction="J12" toJunction="J13" end="360" vehsPerHour="13.413614418547716" departLane="free" arrivalSpeed="0.0"/>
  <flow id="JF9" begin="0" fromJunction="J12" toJunction="J14" end="360" vehsPerHour="42.455752969197256" departLane="free" arrivalSpeed="0.0"/>
  <flow id="JF10" begin="0" fromJunction="J12" toJunction="J15" end="360" vehsPerHour="30.377964482957385" departLane="free" arrivalSpeed="0.0"/>
  <flow id="JF11" begin="0" fromJunction="J12" toJunction="J16" end="360" vehsPerHour="47.801007012069405" departLane="free" arrivalSpeed="0.0"/>
  <flow id="JF12" begin="0" fromJunction="J12" toJunction="J2" end="360" vehsPerHour="21.720670554585137" departLane="free" arrivalSpeed="0.0"/>
  <flow id="JF13" begin="0" fromJunction="J12" toJunction="J3" end="360" vehsPerHour="30.6185302268991" departLane="free" arrivalSpeed="0.0"/>
  <flow id="JF14" begin="0" fromJunction="J12" toJunction="J6" end="360" vehsPerHour="28.3447747942394" departLane="free" arrivalSpeed="0.0"/>
  <flow id="JF15" begin="0" fromJunction="J12" toJunction="J7" end="360" vehsPerHour="8.19689653632055" departLane="free" arrivalSpeed="0.0"/>
  <flow id="JF16" begin="0" fromJunction="J12" toJunction="J8" end="360" vehsPerHour="28.677136515538646" departLane="free" arrivalSpeed="0.0"/>
  <flow id="JF17" begin="0" fromJunction="J13" toJunction="J12" end="360" vehsPerHour="23.799718520039576" departLane="free" arrivalSpeed="0.0"/>
  <flow id="JF18" begin="0" fromJunction="J13" toJunction="J14" end="360" vehsPerHour="40.74615949949183" departLane="free" arrivalSpeed="0.0"/>
  <flow id="JF19" begin="0" fromJunction="J13" toJunction="J15" end="360" vehsPerHour="34.57786564604668" departLane="free" arrivalSpeed="0.0"/>
  <flow id="JF20" begin="0" fromJunction="J13" toJunction="J16" end="360" vehsPerHour="3.6745547389265663" departLane="free" arrivalSpeed="0.0"/>
  <flow id="JF21" begin="0" fromJunction="J13" toJunction="J2" end="360" vehsPerHour="68.62519012213407" departLane="free" arrivalSpeed="0.0"/>
  <flow id="JF22" begin="0" fromJunction="J13" toJunction="J3" end="360" vehsPerHour="63.25329356506817" departLane="free" arrivalSpeed="0.0"/>
  <flow id="JF23" begin="0" fromJunction="J13" toJunction="J6" end="360" vehsPerHour="54.02954348866407" departLane="free" arrivalSpeed="0.0"/>
  <flow id="JF24" begin="0" fromJunction="J13" toJunction="J7" end="360" vehsPerHour="45.61143764638499" departLane="free" arrivalSpeed="0.0"/>
  <flow id="JF25" begin="0" fromJunction="J13" toJunction="J8" end="360" vehsPerHour="47.83740249989274" departLane="free" arrivalSpeed="0.0"/>
  <flow id="JF26" begin="0" fromJunction="J13" toJunction="J9" end="360" vehsPerHour="11.29851066023841" departLane="free" arrivalSpeed="0.0"/>
  <flow id="JF27" begin="0" fromJunction="J14" toJunction="J0" end="360" vehsPerHour="53.4058513472975" departLane="free" arrivalSpeed="0.0"/>
  <flow id="JF28" begin="0" fromJunction="J14" toJunction="J12" end="360" vehsPerHour="49.18777809900706" departLane="free" arrivalSpeed="0.0"/>
  <flow id="JF29" begin="0" fromJunction="J14" toJunction="J15" end="360" vehsPerHour="9.723419282630578" departLane="free" arrivalSpeed="0.0"/>
  <flow id="JF30" begin="0" fromJunction="J14" toJunction="J16" end="360" vehsPerHour="64.31534194717311" departLane="free" arrivalSpeed="0.0"/>
  <flow id="JF31" begin="0" fromJunction="J14" toJunction="J2" end="360" vehsPerHour="18.756561813236605" departLane="free" arrivalSpeed="0.0"/>
  <flow id="JF32" begin="0" fromJunction="J14" toJunction="J6" end="360" vehsPerHour="3.285764538073568" departLane="free" arrivalSpeed="0.0"/>
  <flow id="JF33" begin="0" fromJunction="J14" toJunction="J7" end="360" vehsPerHour="10.84415747587585" departLane="free" arrivalSpeed="0.0"/>
  <flow id="JF34" begin="0" fromJunction="J14" toJunction="J8" end="360" vehsPerHour="51.7134236435625" departLane="free" arrivalSpeed="0.0"/>
  <flow id="JF35" begin="0" fromJunction="J14" toJunction="J9" end="360" vehsPerHour="44.14843397332119" departLane="free" arrivalSpeed="0.0"/>
  <flow id="JF36" begin="0" fromJunction="J15" toJunction="J0" end="360" vehsPerHour="61.58206624345497" departLane="free" arrivalSpeed="0.0"/>
  <flow id="JF37" begin="0" fromJunction="J15" toJunction="J12" end="360" vehsPerHour="19.890480405460462" departLane="free" arrivalSpeed="0.0"/>
  <flow id="JF38" begin="0" fromJunction="J15" toJunction="J14" end="360" vehsPerHour="4.636375759383616" departLane="free" arrivalSpeed="0.0"/>
  <flow id="JF39" begin="0" fromJunction="J15" toJunction="J16" end="360" vehsPerHour="36.445914270553295" departLane="free" arrivalSpeed="0.0"/>
  <flow id="JF40" begin="0" fromJunction="J15" toJunction="J6" end="360" vehsPerHour="58.721897061681275" departLane="free" arrivalSpeed="0.0"/>
  <flow id="JF41" begin="0" fromJunction="J15" toJunction="J7" end="360" vehsPerHour="15.18802797907113" departLane="free" arrivalSpeed="0.0"/>
  <flow id="JF42" begin="0" fromJunction="J15" toJunction="J8" end="360" vehsPerHour="14.782246548681217" departLane="free" arrivalSpeed="0.0"/>
  <flow id="JF43" begin="0" fromJunction="J15" toJunction="J9" end="360" vehsPerHour="0.19163296279368214" departLane="free" arrivalSpeed="0.0"/>
  <flow id="JF44" begin="0" fromJunction="J16" toJunction="J13" end="360" vehsPerHour="45.35954824328535" departLane="free" arrivalSpeed="0.0"/>
  <flow id="JF45" begin="0" fromJunction="J16" toJunction="J15" end="360" vehsPerHour="64.46346352048396" departLane="free" arrivalSpeed="0.0"/>
  <flow id="JF46" begin="0" fromJunction="J16" toJunction="J2" end="360" vehsPerHour="120.19774852016238" departLane="free" arrivalSpeed="0.0"/>
  <flow id="JF47" begin="0" fromJunction="J16" toJunction="J3" end="360" vehsPerHour="38.34345934496788" departLane="free" arrivalSpeed="0.0"/>
  <flow id="JF48" begin="0" fromJunction="J16" toJunction="J6" end="360" vehsPerHour="33.98520687807417" departLane="free" arrivalSpeed="0.0"/>
  <flow id="JF49" begin="0" fromJunction="J16" toJunction="J7" end="360" vehsPerHour="92.6106591405066" departLane="free" arrivalSpeed="0.0"/>
  <flow id="JF50" begin="0" fromJunction="J16" toJunction="J8" end="360" vehsPerHour="24.15905395716601" departLane="free" arrivalSpeed="0.0"/>
  <flow id="JF51" begin="0" fromJunction="J16" toJunction="J9" end="360" vehsPerHour="55.4004167243516" departLane="free" arrivalSpeed="0.0"/>
  <flow id="JF52" begin="0" fromJunction="J2" toJunction="J0" end="360" vehsPerHour="77.7698741243973" departLane="free" arrivalSpeed="0.0"/>
  <flow id="JF53" begin="0" fromJunction="J2" toJunction="J12" end="360" vehsPerHour="18.575562912290053" departLane="free" arrivalSpeed="0.0"/>
  <flow id="JF54" begin="0" fromJunction="J2" toJunction="J14" end="360" vehsPerHour="87.35859701157626" departLane="free" arrivalSpeed="0.0"/>
  <flow id="JF55" begin="0" fromJunction="J2" toJunction="J16" end="360" vehsPerHour="134.0749071431095" departLane="free" arrivalSpeed="0.0"/>
  <flow id="JF56" begin="0" fromJunction="J2" toJunction="J6" end="360" vehsPerHour="3.522523176913482" departLane="free" arrivalSpeed="0.0"/>
  <flow id="JF57" begin="0" fromJunction="J2" toJunction="J7" end="360" vehsPerHour="101.45691059822248" departLane="free" arrivalSpeed="0.0"/>
  <flow id="JF58" begin="0" fromJunction="J2" toJunction="J9" end="360" vehsPerHour="43.88941207888918" departLane="free" arrivalSpeed="0.0"/>
  <flow id="JF59" begin="0" fromJunction="J3" toJunction="J15" end="360" vehsPerHour="52.91109168128887" departLane="free" arrivalSpeed="0.0"/>
  <flow id="JF60" begin="0" fromJunction="J3" toJunction="J6" end="360" vehsPerHour="39.55613390730028" departLane="free" arrivalSpeed="0.0"/>
  <flow id="JF61" begin="0" fromJunction="J3" toJunction="J9" end="360" vehsPerHour="20.1756681212436" departLane="free" arrivalSpeed="0.0"/>
  <flow id="JF62" begin="0" fromJunction="J6" toJunction="J0" end="360" vehsPerHour="1.109864472234083" departLane="free" arrivalSpeed="0.0"/>
  <flow id="JF63" begin="0" fromJunction="J6" toJunction="J14" end="360" vehsPerHour="12.08982247619532" departLane="free" arrivalSpeed="0.0"/>
  <flow id="JF64" begin="0" fromJunction="J6" toJunction="J15" end="360" vehsPerHour="56.87501018119696" departLane="free" arrivalSpeed="0.0"/>
  <flow id="JF65" begin="0" fromJunction="J6" toJunction="J16" end="360" vehsPerHour="1.6162630370809101" departLane="free" arrivalSpeed="0.0"/>
  <flow id="JF66" begin="0" fromJunction="J6" toJunction="J3" end="360" vehsPerHour="18.558635893844613" departLane="free" arrivalSpeed="0.0"/>
  <flow id="JF67" begin="0" fromJunction="J6" toJunction="J7" end="360" vehsPerHour="26.09342916764279" departLane="free" arrivalSpeed="0.0"/>
  <flow id="JF68" begin="0" fromJunction="J6" toJunction="J8" end="360" vehsPerHour="11.262284284189718" departLane="free" arrivalSpeed="0.0"/>
  <flow id="JF69" begin="0" fromJunction="J6" toJunction="J9" end="360" vehsPerHour="62.10450136268206" departLane="free" arrivalSpeed="0.0"/>
  <flow id="JF70" begin="0" fromJunction="J7" toJunction="J12" end="360" vehsPerHour="23.242379725918937" departLane="free" arrivalSpeed="0.0"/>
  <flow id="JF71" begin="0" fromJunction="J7" toJunction="J13" end="360" vehsPerHour="39.80775843179177" departLane="free" arrivalSpeed="0.0"/>
  <flow id="JF72" begin="0" fromJunction="J7" toJunction="J14" end="360" vehsPerHour="34.73505826945909" departLane="free" arrivalSpeed="0.0"/>
  <flow id="JF73" begin="0" fromJunction="J7" toJunction="J15" end="360" vehsPerHour="29.027149703371766" departLane="free" arrivalSpeed="0.0"/>
  <flow id="JF74" begin="0" fromJunction="J7" toJunction="J2" end="360" vehsPerHour="24.993030677852083" departLane="free" arrivalSpeed="0.0"/>
  <flow id="JF75" begin="0" fromJunction="J7" toJunction="J6" end="360" vehsPerHour="53.737428805442605" departLane="free" arrivalSpeed="0.0"/>
  <flow id="JF76" begin="0" fromJunction="J7" toJunction="J8" end="360" vehsPerHour="22.68865427114147" departLane="free" arrivalSpeed="0.0"/>
  <flow id="JF77" begin="0" fromJunction="J7" toJunction="J9" end="360" vehsPerHour="61.414683999050176" departLane="free" arrivalSpeed="0.0"/>
  <flow id="JF78" begin="0" fromJunction="J8" toJunction="J0" end="360" vehsPerHour="48.37845111448708" departLane="free" arrivalSpeed="0.0"/>
  <flow id="JF79" begin="0" fromJunction="J8" toJunction="J13" end="360" vehsPerHour="50.91013438955405" departLane="free" arrivalSpeed="0.0"/>
  <flow id="JF80" begin="0" fromJunction="J8" toJunction="J14" end="360" vehsPerHour="5.535694543981105" departLane="free" arrivalSpeed="0.0"/>
  <flow id="JF81" begin="0" fromJunction="J8" toJunction="J15" end="360" vehsPerHour="14.726529763741228" departLane="free" arrivalSpeed="0.0"/>
  <flow id="JF82" begin="0" fromJunction="J8" toJunction="J2" end="360" vehsPerHour="12.831565044618818" departLane="free" arrivalSpeed="0.0"/>
  <flow id="JF83" begin="0" fromJunction="J8" toJunction="J3" end="360" vehsPerHour="10.796150605924229" departLane="free" arrivalSpeed="0.0"/>
  <flow id="JF84" begin="0" fromJunction="J8" toJunction="J6" end="360" vehsPerHour="22.204620501723866" departLane="free" arrivalSpeed="0.0"/>
  <flow id="JF85" begin="0" fromJunction="J8" toJunction="J9" end="360" vehsPerHour="64.64208786930034" departLane="free" arrivalSpeed="0.0"/>
  <flow id="JF86" begin="0" fromJunction="J9" toJunction="J0" end="360" vehsPerHour="55.611072548643435" departLane="free" arrivalSpeed="0.0"/>
  <flow id="JF87" begin="0" fromJunction="J9" toJunction="J13" end="360" vehsPerHour="67.7762133236765" departLane="free" arrivalSpeed="0.0"/>
  <flow id="JF88" begin="0" fromJunction="J9" toJunction="J15" end="360" vehsPerHour="57.44710978093514" departLane="free" arrivalSpeed="0.0"/>
  <flow id="JF89" begin="0" fromJunction="J9" toJunction="J2" end="360" vehsPerHour="39.08035028652247" departLane="free" arrivalSpeed="0.0"/>
  <flow id="JF90" begin="0" fromJunction="J9" toJunction="J3" end="360" vehsPerHour="3.484651300563458" departLane="free" arrivalSpeed="0.0"/>
  <flow id="JF91" begin="0" fromJunction="J9" toJunction="J6" end="360" vehsPerHour="0.20112512033555038" departLane="free" arrivalSpeed="0.0"/>
  <flow id="JF92" begin="0" fromJunction="J9" toJunction="J7" end="360" vehsPerHour="43.68175098806293" departLane="free" arrivalSpeed="0.0"/>
  <flow id="JF93" begin="0" fromJunction="J9" toJunction="J8" end="360" vehsPerHour="18.057308663708902" departLane="free" arrivalSpeed="0.0"/>
  <flow id="JF94" begin="360" fromJunction="J0" toJunction="J12" end="720" vehsPerHour="60.539515651768795" departLane="free" arrivalSpeed="0.0"/>
  <flow id="JF95" begin="360" fromJunction="J0" toJunction="J14" end="720" vehsPerHour="29.982553402001425" departLane="free" arrivalSpeed="0.0"/>
  <flow id="JF96" begin="360" fromJunction="J0" toJunction="J15" end="720" vehsPerHour="40.476226944790746" departLane="free" arrivalSpeed="0.0"/>
  <flow id="JF97" begin="360" fromJunction="J0" toJunction="J2" end="720" vehsPerHour="17.802573495878995" departLane="free" arrivalSpeed="0.0"/>
  <flow id="JF98" begin="360" fromJunction="J0" toJunction="J3" end="720" vehsPerHour="21.368075382896098" departLane="free" arrivalSpeed="0.0"/>
  <flow id="JF99" begin="360" fromJunction="J0" toJunction="J6" end="720" vehsPerHour="51.12523653394876" departLane="free" arrivalSpeed="0.0"/>
  <flow id="JF100" begin="360" fromJunction="J0" toJunction="J7" end="720" vehsPerHour="63.136456883618536" departLane="free" arrivalSpeed="0.0"/>
  <flow id="JF101" begin="360" fromJunction="J0" toJunction="J9" end="720" vehsPerHour="20.983638688373933" departLane="free" arrivalSpeed="0.0"/>
  <flow id="JF102" begin="360" fromJunction="J12" toJunction="J0" end="720" vehsPerHour="20.72155990305383" departLane="free" arrivalSpeed="0.0"/>
  <flow id="JF103" begin="360" fromJunction="J12" toJunction="J13" end="720" vehsPerHour="10.534551128301393" departLane="free" arrivalSpeed="0.0"/>
  <flow id="JF104" begin="360" fromJunction="J12" toJunction="J16" end="720" vehsPerHour="52.304710950382564" departLane="free" arrivalSpeed="0.0"/>
  <flow id="JF105" begin="360" fromJunction="J12" toJunction="J2" end="720" vehsPerHour="49.533704732135206" departLane="free" arrivalSpeed="0.0"/>
  <flow id="JF106" begin="360" fromJunction="J12" toJunction="J3" end="720" vehsPerHour="34.07287795269735" departLane="free" arrivalSpeed="0.0"/>
  <flow id="JF107" begin="360" fromJunction="J12" toJunction="J6" end="720" vehsPerHour="25.854071406706858" departLane="free" arrivalSpeed="0.0"/>
  <flow id="JF108" begin="360" fromJunction="J12" toJunction="J7" end="720" vehsPerHour="37.94409158683036" departLane="free" arrivalSpeed="0.0"/>
  <flow id="JF109" begin="360" fromJunction="J12" toJunction="J8" end="720" vehsPerHour="16.364708587239914" departLane="free" arrivalSpeed="0.0"/>
  <flow id="JF110" begin="360" fromJunction="J12" toJunction="J9" end="720" vehsPerHour="38.587444716809756" departLane="free" arrivalSpeed="0.0"/>
  <flow id="JF111" begin="360" fromJunction="J13" toJunction="J12" end="720" vehsPerHour="37.47754346332359" departLane="free" arrivalSpeed="0.0"/>
  <flow id="JF112" begin="360" fromJunction="J13" toJunction="J15" end="720" vehsPerHour="19.120754299705816" departLane="free" arrivalSpeed="0.0"/>
  <flow id="JF113" begin="360" fromJunction="J13" toJunction="J6" end="720" vehsPerHour="18.04738938790726" departLane="free" arrivalSpeed="0.0"/>
  <flow id="JF114" begin="360" fromJunction="J13" toJunction="J7" end="720" vehsPerHour="1.27721659432374" departLane="free" arrivalSpeed="0.0"/>
  <flow id="JF115" begin="360" fromJunction="J13" toJunction="J8" end="720" vehsPerHour="26.26827447225819" departLane="free" arrivalSpeed="0.0"/>
  <flow id="JF116" begin="360" fromJunction="J14" toJunction="J12" end="720" vehsPerHour="3.1515168248133625" departLane="free" arrivalSpeed="0.0"/>
  <flow id="JF117" begin="360" fromJunction="J14" toJunction="J13" end="720" vehsPerHour="47.94469009180198" departLane="free" arrivalSpeed="0.0"/>
  <flow id="JF118" begin="360" fromJunction="J14" toJunction="J15" end="720" vehsPerHour="60.75676645608174" departLane="free" arrivalSpeed="0.0"/>
  <flow id="JF119" begin="360" fromJunction="J14" toJunction="J16" end="720" vehsPerHour="51.594469724682305" departLane="free" arrivalSpeed="0.0"/>
  <flow id="JF120" begin="360" fromJunction="J14" toJunction="J2" end="720" vehsPerHour="9.458812491042089" departLane="free" arrivalSpeed="0.0"/>
  <flow id="JF121" begin="360" fromJunction="J14" toJunction="J6" end="720" vehsPerHour="64.241789021701" departLane="free" arrivalSpeed="0.0"/>
  <flow id="JF122" begin="360" fromJunction="J14" toJunction="J8" end="720" vehsPerHour="58.375051680278055" departLane="free" arrivalSpeed="0.0"/>
  <flow id="JF123" begin="360" fromJunction="J14" toJunction="J9" end="720" vehsPerHour="49.82575620674909" departLane="free" arrivalSpeed="0.0"/>
  <flow id="JF124" begin="360" fromJunction="J15" toJunction="J0" end="720" vehsPerHour="20.833723024474576" departLane="free" arrivalSpeed="0.0"/>
  <flow id="JF125" begin="360" fromJunction="J15" toJunction="J12" end="720" vehsPerHour="7.394475480954357" departLane="free" arrivalSpeed="0.0"/>
  <flow id="JF126" begin="360" fromJunction="J15" toJunction="J13" end="720" vehsPerHour="67.29620865052472" departLane="free" arrivalSpeed="0.0"/>
  <flow id="JF127" begin="360" fromJunction="J15" toJunction="J14" end="720" vehsPerHour="52.64216196355291" departLane="free" arrivalSpeed="0.0"/>
  <flow id="JF128" begin="360" fromJunction="J15" toJunction="J16" end="720" vehsPerHour="24.13729803796472" departLane="free" arrivalSpeed="0.0"/>
  <flow id="JF129" begin="360" fromJunction="J15" toJunction="J2" end="720" vehsPerHour="12.534403898609954" departLane="free" arrivalSpeed="0.0"/>
  <flow id="JF130" begin="360" fromJunction="J15" toJunction="J6" end="720" vehsPerHour="2.0552461387061185" departLane="free" arrivalSpeed="0.0"/>
  <flow id="JF131" begin="360" fromJunction="J15" toJunction="J7" end="720" vehsPerHour="7.926250774845776" departLane="free" arrivalSpeed="0.0"/>
  <flow id="JF132" begin="360" fromJunction="J15" toJunction="J8" end="720" vehsPerHour="17.60323554381625" departLane="free" arrivalSpeed="0.0"/>
  <flow id="JF133" begin="360" fromJunction="J16" toJunction="J0" end="720" vehsPerHour="75.96554426325149" departLane="free" arrivalSpeed="0.0"/>
  <flow id="JF134" begin="360" fromJunction="J16" toJunction="J13" end="720" vehsPerHour="65.40512421255364" departLane="free" arrivalSpeed="0.0"/>
  <flow id="JF135" begin="360" fromJunction="J16" toJunction="J14" end="720" vehsPerHour="80.18265349108603" departLane="free" arrivalSpeed="0.0"/>
  <flow id="JF136" begin="360" fromJunction="J16" toJunction="J15" end="720" vehsPerHour="101.80764768913409" departLane="free" arrivalSpeed="0.0"/>
  <flow id="JF137" begin="360" fromJunction="J16" toJunction="J2" end="720" vehsPerHour="18.472933607667322" departLane="free" arrivalSpeed="0.0"/>
  <flow id="JF138" begin="360" fromJunction="J16" toJunction="J8" end="720" vehsPerHour="42.855307718227586" departLane="free" arrivalSpeed="0.0"/>
  <flow id="JF139" begin="360" fromJunction="J16" toJunction="J9" end="720" vehsPerHour="82.90631672573068" departLane="free" arrivalSpeed="0.0"/>
  <flow id="JF140" begin="360" fromJunction="J2" toJunction="J0" end="720" vehsPerHour="85.12751324455171" departLane="free" arrivalSpeed="0.0"/>
  <flow id="JF141" begin="360" fromJunction="J2" toJunction="J12" end="720" vehsPerHour="112.51320163635431" departLane="free" arrivalSpeed="0.0"/>
  <flow id="JF142" begin="360" fromJunction="J2" toJunction="J14" end="720" vehsPerHour="134.96303258572416" departLane="free" arrivalSpeed="0.0"/>
  <flow id="JF143" begin="360" fromJunction="J2" toJunction="J15" end="720" vehsPerHour="135.48499818568806" departLane="free" arrivalSpeed="0.0"/>
  <flow id="JF144" begin="360" fromJunction="J2" toJunction="J16" end="720" vehsPerHour="37.503030993315924" departLane="free" arrivalSpeed="0.0"/>
  <flow id="JF145" begin="360" fromJunction="J2" toJunction="J3" end="720" vehsPerHour="16.721199798618315" departLane="free" arrivalSpeed="0.0"/>
  <flow id="JF146" begin="360" fromJunction="J2" toJunction="J6" end="720" vehsPerHour="71.7380456587268" departLane="free" arrivalSpeed="0.0"/>
  <flow id="JF147" begin="360" fromJunction="J2" toJunction="J7" end="720" vehsPerHour="132.68654250421986" departLane="free" arrivalSpeed="0.0"/>
  <flow id="JF148" begin="360" fromJunction="J2" toJunction="J8" end="720" vehsPerHour="71.72463167611322" departLane="free" arrivalSpeed="0.0"/>
  <flow id="JF149" begin="360" fromJunction="J2" toJunction="J9" end="720" vehsPerHour="100.9287706067022" departLane="free" arrivalSpeed="0.0"/>
  <flow id="JF150" begin="360" fromJunction="J3" toJunction="J0" end="720" vehsPerHour="13.226531696774362" departLane="free" arrivalSpeed="0.0"/>
  <flow id="JF151" begin="360" fromJunction="J3" toJunction="J13" end="720" vehsPerHour="49.291258534483966" departLane="free" arrivalSpeed="0.0"/>
  <flow id="JF152" begin="360" fromJunction="J3" toJunction="J14" end="720" vehsPerHour="61.71985478731732" departLane="free" arrivalSpeed="0.0"/>
  <flow id="JF153" begin="360" fromJunction="J3" toJunction="J15" end="720" vehsPerHour="67.89622476285076" departLane="free" arrivalSpeed="0.0"/>
  <flow id="JF154" begin="360" fromJunction="J3" toJunction="J16" end="720" vehsPerHour="38.94412036820932" departLane="free" arrivalSpeed="0.0"/>
  <flow id="JF155" begin="360" fromJunction="J3" toJunction="J2" end="720" vehsPerHour="3.1827966554857383" departLane="free" arrivalSpeed="0.0"/>
  <flow id="JF156" begin="360" fromJunction="J3" toJunction="J6" end="720" vehsPerHour="33.10579415304642" departLane="free" arrivalSpeed="0.0"/>
  <flow id="JF157" begin="360" fromJunction="J3" toJunction="J7" end="720" vehsPerHour="5.45702323371688" departLane="free" arrivalSpeed="0.0"/>
  <flow id="JF158" begin="360" fromJunction="J3" toJunction="J8" end="720" vehsPerHour="56.67413017103429" departLane="free" arrivalSpeed="0.0"/>
  <flow id="JF159" begin="360" fromJunction="J3" toJunction="J9" end="720" vehsPerHour="7.715906808901217" departLane="free" arrivalSpeed="0.0"/>
  <flow id="JF160" begin="360" fromJunction="J6" toJunction="J0" end="720" vehsPerHour="3.610151748443487" departLane="free" arrivalSpeed="0.0"/>
  <flow id="JF161" begin="360" fromJunction="J6" toJunction="J12" end="720" vehsPerHour="4.778235872334907" departLane="free" arrivalSpeed="0.0"/>
  <flow id="JF162" begin="360" fromJunction="J6" toJunction="J14" end="720" vehsPerHour="34.45161830736294" departLane="free" arrivalSpeed="0.0"/>
  <flow id="JF163" begin="360" fromJunction="J6" toJunction="J15" end="720" vehsPerHour="42.249653907551775" departLane="free" arrivalSpeed="0.0"/>
  <flow id="JF164" begin="360" fromJunction="J6" toJunction="J2" end="720" vehsPerHour="52.83866479698305" departLane="free" arrivalSpeed="0.0"/>
  <flow id="JF165" begin="360" fromJunction="J6" toJunction="J3" end="720" vehsPerHour="53.9269833610303" departLane="free" arrivalSpeed="0.0"/>
  <flow id="JF166" begin="360" fromJunction="J6" toJunction="J7" end="720" vehsPerHour="29.658434914723507" departLane="free" arrivalSpeed="0.0"/>
  <flow id="JF167" begin="360" fromJunction="J6" toJunction="J8" end="720" vehsPerHour="10.034257425735355" departLane="free" arrivalSpeed="0.0"/>
  <flow id="JF168" begin="360" fromJunction="J6" toJunction="J9" end="720" vehsPerHour="18.321346458458592" departLane="free" arrivalSpeed="0.0"/>
  <flow id="JF169" begin="360" fromJunction="J7" toJunction="J13" end="720" vehsPerHour="4.6998602990856195" departLane="free" arrivalSpeed="0.0"/>
  <flow id="JF170" begin="360" fromJunction="J7" toJunction="J16" end="720" vehsPerHour="65.17658274845368" departLane="free" arrivalSpeed="0.0"/>
  <flow id="JF171" begin="360" fromJunction="J7" toJunction="J2" end="720" vehsPerHour="51.64817338431632" departLane="free" arrivalSpeed="0.0"/>
  <flow id="JF172" begin="360" fromJunction="J7" toJunction="J3" end="720" vehsPerHour="39.07319577753349" departLane="free" arrivalSpeed="0.0"/>
  <flow id="JF173" begin="360" fromJunction="J7" toJunction="J6" end="720" vehsPerHour="33.68848539554063" departLane="free" arrivalSpeed="0.0"/>
  <flow id="JF174" begin="360" fromJunction="J7" toJunction="J9" end="720" vehsPerHour="45.57017780027537" departLane="free" arrivalSpeed="0.0"/>
  <flow id="JF175" begin="360" fromJunction="J8" toJunction="J0" end="720" vehsPerHour="50.04074662456027" departLane="free" arrivalSpeed="0.0"/>
  <flow id="JF176" begin="360" fromJunction="J8" toJunction="J12" end="720" vehsPerHour="46.29811137587948" departLane="free" arrivalSpeed="0.0"/>
  <flow id="JF177" begin="360" fromJunction="J8" toJunction="J14" end="720" vehsPerHour="12.627783997424737" departLane="free" arrivalSpeed="0.0"/>
  <flow id="JF178" begin="360" fromJunction="J8" toJunction="J15" end="720" vehsPerHour="53.81089660746293" departLane="free" arrivalSpeed="0.0"/>
  <flow id="JF179" begin="360" fromJunction="J8" toJunction="J16" end="720" vehsPerHour="54.55511654381489" departLane="free" arrivalSpeed="0.0"/>
  <flow id="JF180" begin="360" fromJunction="J8" toJunction="J3" end="720" vehsPerHour="19.881284538771208" departLane="free" arrivalSpeed="0.0"/>
  <flow id="JF181" begin="360" fromJunction="J8" toJunction="J6" end="720" vehsPerHour="59.98260438510233" departLane="free" arrivalSpeed="0.0"/>
  <flow id="JF182" begin="360" fromJunction="J8" toJunction="J9" end="720" vehsPerHour="22.227252563526058" departLane="free" arrivalSpeed="0.0"/>
  <flow id="JF183" begin="360" fromJunction="J9" toJunction="J0" end="720" vehsPerHour="53.87812326098186" departLane="free" arrivalSpeed="0.0"/>
  <flow id="JF184" begin="360" fromJunction="J9" toJunction="J12" end="720" vehsPerHour="49.067893493485435" departLane="free" arrivalSpeed="0.0"/>
  <flow id="JF185" begin="360" fromJunction="J9" toJunction="J13" end="720" vehsPerHour="65.92612291522101" departLane="free" arrivalSpeed="0.0"/>
  <flow id="JF186" begin="360" fromJunction="J9" toJunction="J14" end="720" vehsPerHour="63.473967075083564" departLane="free" arrivalSpeed="0.0"/>
  <flow id="JF187" begin="360" fromJunction="J9" toJunction="J15" end="720" vehsPerHour="61.52522782718748" departLane="free" arrivalSpeed="0.0"/>
  <flow id="JF188" begin="360" fromJunction="J9" toJunction="J16" end="720" vehsPerHour="26.533907924467606" departLane="free" arrivalSpeed="0.0"/>
  <flow id="JF189" begin="360" fromJunction="J9" toJunction="J2" end="720" vehsPerHour="33.64749390638982" departLane="free" arrivalSpeed="0.0"/>
  <flow id="JF190" begin="360" fromJunction="J9" toJunction="J3" end="720" vehsPerHour="57.134228539174245" departLane="free" arrivalSpeed="0.0"/>
  <flow id="JF191" begin="360" fromJunction="J9" toJunction="J6" end="720" vehsPerHour="41.377251643093544" departLane="free" arrivalSpeed="0.0"/>
  <flow id="JF192" begin="720" fromJunction="J0" toJunction="J12" end="1080" vehsPerHour="42.84195721940837" departLane="free" arrivalSpeed="0.0"/>
  <flow id="JF193" begin="720" fromJunction="J0" toJunction="J13" end="1080" vehsPerHour="14.78880356113796" departLane="free" arrivalSpeed="0.0"/>
  <flow id="JF194" begin="720" fromJunction="J0" toJunction="J14" end="1080" vehsPerHour="2.688302569424835" departLane="free" arrivalSpeed="0.0"/>
  <flow id="JF195" begin="720" fromJunction="J0" toJunction="J15" end="1080" vehsPerHour="27.61637016318373" departLane="free" arrivalSpeed="0.0"/>
  <flow id="JF196" begin="720" fromJunction="J0" toJunction="J16" end="1080" vehsPerHour="59.72013209147818" departLane="free" arrivalSpeed="0.0"/>
  <flow id="JF197" begin="720" fromJunction="J0" toJunction="J2" end="1080" vehsPerHour="55.78971236380401" departLane="free" arrivalSpeed="0.0"/>
  <flow id="JF198" begin="720" fromJunction="J0" toJunction="J3" end="1080" vehsPerHour="48.277699955238" departLane="free" arrivalSpeed="0.0"/>
  <flow id="JF199" begin="720" fromJunction="J0" toJunction="J6" end="1080" vehsPerHour="41.27990687060401" departLane="free" arrivalSpeed="0.0"/>
  <flow id="JF200" begin="720" fromJunction="J0" toJunction="J7" end="1080" vehsPerHour="25.136547663414348" departLane="free" arrivalSpeed="0.0"/>
  <flow id="JF201" begin="720" fromJunction="J0" toJunction="J8" end="1080" vehsPerHour="25.093508738541747" departLane="free" arrivalSpeed="0.0"/>
  <flow id="JF202" begin="720" fromJunction="J12" toJunction="J13" end="1080" vehsPerHour="46.018971526779204" departLane="free" arrivalSpeed="0.0"/>
  <flow id="JF203" begin="720" fromJunction="J12" toJunction="J2" end="1080" vehsPerHour="56.33429460805694" departLane="free" arrivalSpeed="0.0"/>