<?xml version="1.0" encoding="UTF-8"?>
<routes xmlns:xsi="http://www.w3.org/2001/XMLSchema-instance" xsi:noNamespaceSchemaLocation="http://sumo.dlr.de/xsd/routes_file.xsd">
  <flow id="JF179660" begin="0" fromJunction="J0" toJunction="J3" end="60" vehsPerHour="27.58817592678841" departLane="free" arrivalSpeed="0.0"/>
  <flow id="JF179661" begin="0" fromJunction="J0" toJunction="J4" end="60" vehsPerHour="133.37556822919032" departLane="free" arrivalSpeed="0.0"/>
  <flow id="JF179662" begin="0" fromJunction="J0" toJunction="J5" end="60" vehsPerHour="133.15924912569847" departLane="free" arrivalSpeed="0.0"/>
  <flow id="JF179663" begin="0" fromJunction="J0" toJunction="J7" end="60" vehsPerHour="131.75498642224866" departLane="free" arrivalSpeed="0.0"/>
  <flow id="JF179664" begin="0" fromJunction="J3" toJunction="J6" end="60" vehsPerHour="105.89300356833965" departLane="free" arrivalSpeed="0.0"/>
  <flow id="JF179665" begin="0" fromJunction="J3" toJunction="J7" end="60" vehsPerHour="135.18310332816785" departLane="free" arrivalSpeed="0.0"/>
  <flow id="JF179666" begin="0" fromJunction="J4" toJunction="J3" end="60" vehsPerHour="56.03971924190096" departLane="free" arrivalSpeed="0.0"/>
  <flow id="JF179667" begin="0" fromJunction="J4" toJunction="J5" end="60" vehsPerHour="58.30935583438857" departLane="free" arrivalSpeed="0.0"/>
  <flow id="JF179668" begin="0" fromJunction="J4" toJunction="J6" end="60" vehsPerHour="59.66952495702405" departLane="free" arrivalSpeed="0.0"/>
  <flow id="JF179669" begin="0" fromJunction="J4" toJunction="J7" end="60" vehsPerHour="30.05960595033798" departLane="free" arrivalSpeed="0.0"/>
  <flow id="JF179670" begin="0" fromJunction="J5" toJunction="J0" end="60" vehsPerHour="65.85869312100105" departLane="free" arrivalSpeed="0.0"/>
  <flow id="JF179671" begin="0" fromJunction="J5" toJunction="J4" end="60" vehsPerHour="60.344100890601126" departLane="free" arrivalSpeed="0.0"/>
  <flow id="JF179672" begin="0" fromJunction="J5" toJunction="J6" end="60" vehsPerHour="50.4074668332005" departLane="free" arrivalSpeed="0.0"/>
  <flow id="JF179673" begin="0" fromJunction="J5" toJunction="J7" end="60" vehsPerHour="68.28775264005392" departLane="free" arrivalSpeed="0.0"/>
  <flow id="JF179674" begin="0" fromJunction="J6" toJunction="J3" end="60" vehsPerHour="38.60825894877667" departLane="free" arrivalSpeed="0.0"/>
  <flow id="JF179675" begin="0" fromJunction="J6" toJunction="J4" end="60" vehsPerHour="53.86120513280576" departLane="free" arrivalSpeed="0.0"/>
  <flow id="JF179676" begin="0" fromJunction="J6" toJunction="J5" end="60" vehsPerHour="5.171216148563313" departLane="free" arrivalSpeed="0.0"/>
  <flow id="JF179677" begin="0" fromJunction="J6" toJunction="J7" end="60" vehsPerHour="10.69845998317025" departLane="free" arrivalSpeed="0.0"/>
  <flow id="JF179678" begin="0" fromJunction="J7" toJunction="J0" end="60" vehsPerHour="46.2693592061615" departLane="free" arrivalSpeed="0.0"/>
  <flow id="JF179679" begin="0" fromJunction="J7" toJunction="J3" end="60" vehsPerHour="26.109043787234974" departLane="free" arrivalSpeed="0.0"/>
  <flow id="JF179680" begin="0" fromJunction="J7" toJunction="J5" end="60" vehsPerHour="50.46231493463738" departLane="free" arrivalSpeed="0.0"/>
  <flow id="JF179681" begin="60" fromJunction="J0" toJunction="J5" end="120" vehsPerHour="57.19274533869568" departLane="free" arrivalSpeed="0.0"/>
  <flow id="JF179682" begin="60" fromJunction="J0" toJunction="J6" end="120" vehsPerHour="116.71035205367349" departLane="free" arrivalSpeed="0.0"/>
  <flow id="JF179683" begin="60" fromJunction="J3" toJunction="J0" end="120" vehsPerHour="73.97440971255399" departLane="free" arrivalSpeed="0.0"/>
  <flow id="JF179684" begin="60" fromJunction="J3" toJunction="J4" end="120" vehsPerHour="117.0840648807952" departLane="free" arrivalSpeed="0.0"/>
  <flow id="JF179685" begin="60" fromJunction="J3" toJunction="J5" end="120" vehsPerHour="65.82367011991285" departLane="free" arrivalSpeed="0.0"/>
  <flow id="JF179686" begin="60" fromJunction="J3" toJunction="J7" end="120" vehsPerHour="63.11317416226159" departLane="free" arrivalSpeed="0.0"/>
  <flow id="JF179687" begin="60" fromJunction="J4" toJunction="J0" end="120" vehsPerHour="19.859609955364846" departLane="free" arrivalSpeed="0.0"/>
  <flow id="JF179688" begin="60" fromJunction="J4" toJunction="J3" end="120" vehsPerHour="48.27966165406376" departLane="free" arrivalSpeed="0.0"/>
  <flow id="JF179689" begin="60" fromJunction="J4" toJunction="J5" end="120" vehsPerHour="10.780179768804292" departLane="free" arrivalSpeed="0.0"/>
  <flow id="JF179690" begin="60" fromJunction="J5" toJunction="J0" end="120" vehsPerHour="47.79081992115175" departLane="free" arrivalSpeed="0.0"/>
  <flow id="JF179691" begin="60" fromJunction="J5" toJunction="J4" end="120" vehsPerHour="1.6919296901895513" departLane="free" arrivalSpeed="0.0"/>
  <flow id="JF179692" begin="60" fromJunction="J5" toJunction="J6" end="120" vehsPerHour="57.85224479719445" departLane="free" arrivalSpeed="0.0"/>
  <flow id="JF179693" begin="60" fromJunction="J5" toJunction="J7" end="120" vehsPerHour="52.71601835043137" departLane="free" arrivalSpeed="0.0"/>
  <flow id="JF179694" begin="60" fromJunction="J6" toJunction="J0" end="120" vehsPerHour="64.73198927299626" departLane="free" arrivalSpeed="0.0"/>
  <flow id="JF179695" begin="60" fromJunction="J7" toJunction="J0" end="120" vehsPerHour="49.3579422607852" departLane="free" arrivalSpeed="0.0"/>
  <flow id="JF179696" begin="60" fromJunction="J7" toJunction="J3" end="120" vehsPerHour="62.74347138209188" departLane="free" arrivalSpeed="0.0"/>
  <flow id="JF179697" begin="60" fromJunction="J7" toJunction="J4" end="120" vehsPerHour="63.31711643829892" departLane="free" arrivalSpeed="0.0"/>
  <flow id="JF179698" begin="60" fromJunction="J7" toJunction="J5" end="120" vehsPerHour="4.026938582459445" departLane="free" arrivalSpeed="0.0"/>
  <flow id="JF179699" begin="60" fromJunction="J7" toJunction="J6" end="120" vehsPerHour="34.95355048373549" departLane="free" arrivalSpeed="0.0"/>
  <flow id="JF179700" begin="120" fromJunction="J0" toJunction="J4" end="180" vehsPerHour="17.819181730924306" departLane="free" arrivalSpeed="0.0"/>
  <flow id="JF179701" begin="120" fromJunction="J0" toJunction="J5" end="180" vehsPerHour="110.10062089988595" departLane="free" arrivalSpeed="0.0"/>
  <flow id="JF179702" begin="120" fromJunction="J3" toJunction="J0" end="180" vehsPerHour="53.17817466459862" departLane="free" arrivalSpeed="0.0"/>
  <flow id="JF179703" begin="120" fromJunction="J3" toJunction="J4" end="180" vehsPerHour="24.138138438004162" departLane="free" arrivalSpeed="0.0"/>
  <flow id="JF179704" begin="120" fromJunction="J3" toJunction="J6" end="180" vehsPerHour="39.49786077545688" departLane="free" arrivalSpeed="0.0"/>
  <flow id="JF179705" begin="120" fromJunction="J4" toJunction="J0" end="180" vehsPerHour="66.82857560701741" departLane="free" arrivalSpeed="0.0"/>
  <flow id="JF179706" begin="120" fromJunction="J4" toJunction="J3" end="180" vehsPerHour="64.21412860811306" departLane="free" arrivalSpeed="0.0"/>
  <flow id="JF179707" begin="120" fromJunction="J4" toJunction="J6" end="180" vehsPerHour="13.251394116867031" departLane="free" arrivalSpeed="0.0"/>
  <flow id="JF179708" begin="120" fromJunction="J5" toJunction="J0" end="180" vehsPerHour="24.968848350183077" departLane="free" arrivalSpeed="0.0"/>
  <flow id="JF179709" begin="120" fromJunction="J5" toJunction="J4" end="180" vehsPerHour="16.869448084801274" departLane="free" arrivalSpeed="0.0"/>
  <flow id="JF179710" begin="120" fromJunction="J5" toJunction="J7" end="180" vehsPerHour="42.55112769944268" departLane="free" arrivalSpeed="0.0"/>
  <flow id="JF179711" begin="120" fromJunction="J6" toJunction="J0" end="180" vehsPerHour="43.18695579838645" departLane="free" arrivalSpeed="0.0"/>
  <flow id="JF179712" begin="120" fromJunction="J6" toJunction="J3" end="180" vehsPerHour="42.41473893471182" departLane="free" arrivalSpeed="0.0"/>
  <flow id="JF179713" begin="120" fromJunction="J6" toJunction="J4" end="180" vehsPerHour="43.51334375199229" departLane="free" arrivalSpeed="0.0"/>
  <flow id="JF179714" begin="120" fromJunction="J6" toJunction="J7" end="180" vehsPerHour="33.74116655964661" departLane="free" arrivalSpeed="0.0"/>
  <flow id="JF179715" begin="120" fromJunction="J7" toJunction="J0" end="180" vehsPerHour="29.493530167470883" departLane="free" arrivalSpeed="0.0"/>
  <flow id="JF179716" begin="120" fromJunction="J7" toJunction="J3" end="180" vehsPerHour="22.087912338159704" departLane="free" arrivalSpeed="0.0"/>
  <flow id="JF179717" begin="120" fromJunction="J7" toJunction="J4" end="180" vehsPerHour="38.45496556886128" departLane="free" arrivalSpeed="0.0"/>
  <flow id="JF179718" begin="120" fromJunction="J7" toJunction="J5" end="180" vehsPerHour="42.95957167292741" departLane="free" arrivalSpeed="0.0"/>
  <flow id="JF179719" begin="120" fromJunction="J7" toJunction="J6" end="180" vehsPerHour="39.35348003106439" departLane="free" arrivalSpeed="0.0"/>
  <flow id="JF179720" begin="180" fromJunction="J0" toJunction="J3" end="240" vehsPerHour="89.03458276551292" departLane="free" arrivalSpeed="0.0"/>
  <flow id="JF179721" begin="180" fromJunction="J3" toJunction="J4" end="240" vehsPerHour="137.37390648979118" departLane="free" arrivalSpeed="0.0"/>
  <flow id="JF179722" begin="180" fromJunction="J3" toJunction="J7" end="240" vehsPerHour="117.58080953895055" departLane="free" arrivalSpeed="0.0"/>
  <flow id="JF179723" begin="180" fromJunction="J4" toJunction="J0" end="240" vehsPerHour="51.272916770369946" departLane="free" arrivalSpeed="0.0"/>
  <flow id="JF179724" begin="180" fromJunction="J4" toJunction="J5" end="240" vehsPerHour="56.70573668191017" departLane="free" arrivalSpeed="0.0"/>
  <flow id="JF179725" begin="180" fromJunction="J4" toJunction="J6" end="240" vehsPerHour="31.517931148405882" departLane="free" arrivalSpeed="0.0"/>
  <flow id="JF179726" begin="180" fromJunction="J4" toJunction="J7" end="240" vehsPerHour="54.026170218805476" departLane="free" arrivalSpeed="0.0"/>
  <flow id="JF179727" begin="180" fromJunction="J5" toJunction="J3" end="240" vehsPerHour="14.281102084816713" departLane="free" arrivalSpeed="0.0"/>
  <flow id="JF179728" begin="180" fromJunction="J5" toJunction="J4" end="240" vehsPerHour="49.00287891295355" departLane="free" arrivalSpeed="0.0"/>
  <flow id="JF179729" begin="180" fromJunction="J5" toJunction="J6" end="240" vehsPerHour="47.4258098514855" departLane="free" arrivalSpeed="0.0"/>
  <flow id="JF179730" begin="180" fromJunction="J5" toJunction="J7" end="240" vehsPerHour="32.528209615535026" departLane="free" arrivalSpeed="0.0"/>
  <flow id="JF179731" begin="180" fromJunction="J6" toJunction="J0" end="240" vehsPerHour="22.706298628627" departLane="free" arrivalSpeed="0.0"/>
  <flow id="JF179732" begin="180" fromJunction="J6" toJunction="J3" end="240" vehsPerHour="39.89410009862123" departLane="free" arrivalSpeed="0.0"/>
  <flow id="JF179733" begin="180" fromJunction="J6" toJunction="J4" end="240" vehsPerHour="32.07927872182592" departLane="free" arrivalSpeed="0.0"/>
  <flow id="JF179734" begin="180" fromJunction="J6" toJunction="J5" end="240" vehsPerHour="5.906652493275889" departLane="free" arrivalSpeed="0.0"/>
  <flow id="JF179735" begin="180" fromJunction="J6" toJunction="J7" end="240" vehsPerHour="9.138892035919062" departLane="free" arrivalSpeed="0.0"/>
  <flow id="JF179736" begin="180" fromJunction="J7" toJunction="J3" end="240" vehsPerHour="4.8119749408619885" departLane="free" arrivalSpeed="0.0"/>
  <flow id="JF179737" begin="180" fromJunction="J7" toJunction="J5" end="240" vehsPerHour="53.00020504610951" departLane="free" arrivalSpeed="0.0"/>
  <flow id="JF179738" begin="240" fromJunction="J0" toJunction="J3" end="300" vehsPerHour="101.5402544063777" departLane="free" arrivalSpeed="0.0"/>
  <flow id="JF179739" begin="240" fromJunction="J0" toJunction="J4" end="300" vehsPerHour="37.13712839524979" departLane="free" arrivalSpeed="0.0"/>
  <flow id="JF179740" begin="240" fromJunction="J0" toJunction="J6" end="300" vehsPerHour="77.06813926041795" departLane="free" arrivalSpeed="0.0"/>
  <flow id="JF179741" begin="240" fromJunction="J0" toJunction="J7" end="300" vehsPerHour="82.84664734429934" departLane="free" arrivalSpeed="0.0"/>
  <flow id="JF179742" begin="240" fromJunction="J3" toJunction="J0" end="300" vehsPerHour="105.96546054062392" departLane="free" arrivalSpeed="0.0"/>
  <flow id="JF179743" begin="240" fromJunction="J3" toJunction="J4" end="300" vehsPerHour="130.60785553441647" departLane="free" arrivalSpeed="0.0"/>
  <flow id="JF179744" begin="240" fromJunction="J3" toJunction="J6" end="300" vehsPerHour="23.37720267393309" departLane="free" arrivalSpeed="0.0"/>
  <flow id="JF179745" begin="240" fromJunction="J4" toJunction="J0" end="300" vehsPerHour="44.4328052112922" departLane="free" arrivalSpeed="0.0"/>
  <flow id="JF179746" begin="240" fromJunction="J4" toJunction="J3" end="300" vehsPerHour="37.9940471120362" departLane="free" arrivalSpeed="0.0"/>
  <flow id="JF179747" begin="240" fromJunction="J4" toJunction="J5" end="300" vehsPerHour="25.250639294729062" departLane="free" arrivalSpeed="0.0"/>
  <flow id="JF179748" begin="240" fromJunction="J4" toJunction="J6" end="300" vehsPerHour="9.991229682303898" departLane="free" arrivalSpeed="0.0"/>
  <flow id="JF179749" begin="240" fromJunction="J5" toJunction="J0" end="300" vehsPerHour="51.547363517238765" departLane="free" arrivalSpeed="0.0"/>
  <flow id="JF179750" begin="240" fromJunction="J5" toJunction="J3" end="300" vehsPerHour="65.46519792536526" departLane="free" arrivalSpeed="0.0"/>
  <flow id="JF179751" begin="240" fromJunction="J5" toJunction="J4" end="300" vehsPerHour="49.220572780976894" departLane="free" arrivalSpeed="0.0"/>
  <flow id="JF179752" begin="240" fromJunction="J5" toJunction="J6" end="300" vehsPerHour="60.79170257288833" departLane="free" arrivalSpeed="0.0"/>
  <flow id="JF179753" begin="240" fromJunction="J5" toJunction="J7" end="300" vehsPerHour="50.117965813809505" departLane="free" arrivalSpeed="0.0"/>
  <flow id="JF179754" begin="240" fromJunction="J6" toJunction="J4" end="300" vehsPerHour="38.46653792214853" departLane="free" arrivalSpeed="0.0"/>
  <flow id="JF179755" begin="240" fromJunction="J6" toJunction="J5" end="300" vehsPerHour="44.31763171855621" departLane="free" arrivalSpeed="0.0"/>
  <flow id="JF179756" begin="240" fromJunction="J6" toJunction="J7" end="300" vehsPerHour="36.01293828321746" departLane="free" arrivalSpeed="0.0"/>
  <flow id="JF179757" begin="240" fromJunction="J7" toJunction="J3" end="300" vehsPerHour="7.710772277334493" departLane="free" arrivalSpeed="0.0"/>
  <flow id="JF179758" begin="240" fromJunction="J7" toJunction="J5" end="300" vehsPerHour="66.65293772164914" departLane="free" arrivalSpeed="0.0"/>
  <flow id="JF179759" begin="240" fromJunction="J7" toJunction="J6" end="300" vehsPerHour="36.75399536895782" departLane="free" arrivalSpeed="0.0"/>
  <flow id="JF179760" begin="300" fromJunction="J0" toJunction="J4" end="360" vehsPerHour="2.396773097990397" departLane="free" arrivalSpeed="0.0"/>
  <flow id="JF179761" begin="300" fromJunction="J0" toJunction="J5" end="360" vehsPerHour="22.299116754958785" departLane="free" arrivalSpeed="0.0"/>
  <flow id="JF179762" begin="300" fromJunction="J0" toJunction="J6" end="360" vehsPerHour="116.44954403005649" departLane="free" arrivalSpeed="0.0"/>
  <flow id="JF179763" begin="300" fromJunction="J3" toJunction="J0" end="360" vehsPerHour="126.60716853388362" departLane="free" arrivalSpeed="0.0"/>
  <flow id="JF179764" begin="300" fromJunction="J3" toJunction="J4" end="360" vehsPerHour="16.352032696525118" departLane="free" arrivalSpeed="0.0"/>
  <flow id="JF179765" begin="300" fromJunction="J3" toJunction="J6" end="360" vehsPerHour="33.01990732893007" departLane="free" arrivalSpeed="0.0"/>
  <flow id="JF179766" begin="300" fromJunction="J3" toJunction="J7" end="360" vehsPerHour="5.7694226283345245" departLane="free" arrivalSpeed="0.0"/>
  <flow id="JF179767" begin="300" fromJunction="J4" toJunction="J0" end="360" vehsPerHour="62.169237510321764" departLane="free" arrivalSpeed="0.0"/>
  <flow id="JF179768" begin="300" fromJunction="J4" toJunction="J3" end="360" vehsPerHour="42.44176440504507" departLane="free" arrivalSpeed="0.0"/>
  <flow id="JF179769" begin="300" fromJunction="J4" toJunction="J5" end="360" vehsPerHour="60.13588310343528" departLane="free" arrivalSpeed="0.0"/>
  <flow id="JF179770" begin="300" fromJunction="J4" toJunction="J7" end="360" vehsPerHour="43.34572496159233" departLane="free" arrivalSpeed="0.0"/>
  <flow id="JF179771" begin="300" fromJunction="J5" toJunction="J0" end="360" vehsPerHour="21.979820817492822" departLane="free" arrivalSpeed="0.0"/>
  <flow id="JF179772" begin="300" fromJunction="J5" toJunction="J3" end="360" vehsPerHour="45.30346273795821" departLane="free" arrivalSpeed="0.0"/>
  <flow id="JF179773" begin="300" fromJunction="J5" toJunction="J4" end="360" vehsPerHour="27.19300041665972" departLane="free" arrivalSpeed="0.0"/>
  <flow id="JF179774" begin="300" fromJunction="J6" toJunction="J0" end="360" vehsPerHour="6.406907064755745" departLane="free" arrivalSpeed="0.0"/>
  <flow id="JF179775" begin="300" fromJunction="J6" toJunction="J3" end="360" vehsPerHour="67.29373809186527" departLane="free" arrivalSpeed="0.0"/>
  <flow id="JF179776" begin="300" fromJunction="J6" toJunction="J7" end="360" vehsPerHour="68.26084581754294" departLane="free" arrivalSpeed="0.0"/>
  <flow id="JF179777" begin="300" fromJunction="J7" toJunction="J3" end="360" vehsPerHour="51.86033975404746" departLane="free" arrivalSpeed="0.0"/>
  <flow id="JF179778" begin="300" fromJunction="J7" toJunction="J4" end="360" vehsPerHour="38.103266897467144" departLane="free" arrivalSpeed="0.0"/>
  <flow id="JF179779" begin="300" fromJunction="J7" toJunction="J6" end="360" vehsPerHour="50.54491372395082" departLane="free" arrivalSpeed="0.0"/>
  <flow id="JF179780" begin="360" fromJunction="J0" toJunction="J5" end="420" vehsPerHour="89.87399676951107" departLane="free" arrivalSpeed="0.0"/>
  <flow id="JF179781" begin="360" fromJunction="J0" toJunction="J6" end="420" vehsPerHour="1.4616619662465618" departLane="free" arrivalSpeed="0.0"/>
  <flow id="JF179782" begin="360" fromJunction="J0" toJunction="J7" end="420" vehsPerHour="56.772318714660656" departLane="free" arrivalSpeed="0.0"/>
  <flow id="JF179783" begin="360" fromJunction="J3" toJunction="J0" end="420" vehsPerHour="107.58150203415653" departLane="free" arrivalSpeed="0.0"/>
  <flow id="JF179784" begin="360" fromJunction="J3" toJunction="J4" end="420" vehsPerHour="10.34289411026283" departLane="free" arrivalSpeed="0.0"/>
  <flow id="JF179785" begin="360" fromJunction="J3" toJunction="J5" end="420" vehsPerHour="130.98334193260706" departLane="free" arrivalSpeed="0.0"/>
  <flow id="JF179786" begin="360" fromJunction="J3" toJunction="J6" end="420" vehsPerHour="77.22645817881377" departLane="free" arrivalSpeed="0.0"/>
  <flow id="JF179787" begin="360" fromJunction="J4" toJunction="J0" end="420" vehsPerHour="34.49294122483196" departLane="free" arrivalSpeed="0.0"/>
  <flow id="JF179788" begin="360" fromJunction="J4" toJunction="J3" end="420" vehsPerHour="8.206871819290221" departLane="free" arrivalSpeed="0.0"/>
  <flow id="JF179789" begin="360" fromJunction="J4" toJunction="J6" end="420" vehsPerHour="28.322141135056867" departLane="free" arrivalSpeed="0.0"/>
  <flow id="JF179790" begin="360" fromJunction="J4" toJunction="J7" end="420" vehsPerHour="53.80417863830452" departLane="free" arrivalSpeed="0.0"/>
  <flow id="JF179791" begin="360" fromJunction="J5" toJunction="J0" end="420" vehsPerHour="25.97053204369308" departLane="free" arrivalSpeed="0.0"/>
  <flow id="JF179792" begin="360" fromJunction="J5" toJunction="J3" end="420" vehsPerHour="28.170346414448527" departLane="free" arrivalSpeed="0.0"/>
  <flow id="JF179793" begin="360" fromJunction="J5" toJunction="J7" end="420" vehsPerHour="0.8943178628311752" departLane="free" arrivalSpeed="0.0"/>
  <flow id="JF179794" begin="360" fromJunction="J6" toJunction="J0" end="420" vehsPerHour="61.341321771237936" departLane="free" arrivalSpeed="0.0"/>
  <flow id="JF179795" begin="360" fromJunction="J6" toJunction="J4" end="420" vehsPerHour="45.76721079248254" departLane="free" arrivalSpeed="0.0"/>
  <flow id="JF179796" begin="360" fromJunction="J6" toJunction="J5" end="420" vehsPerHour="67.32578213134752" departLane="free" arrivalSpeed="0.0"/>
  <flow id="JF179797" begin="360" fromJunction="J6" toJunction="J7" end="420" vehsPerHour="25.32220579970794" departLane="free" arrivalSpeed="0.0"/>
  <flow id="JF179798" begin="360" fromJunction="J7" toJunction="J4" end="420" vehsPerHour="2.8261346067737687" departLane="free" arrivalSpeed="0.0"/>
  <flow id="JF179799" begin="420" fromJunction="J0" toJunction="J5" end="480" vehsPerHour="3.079641986905875" departLane="free" arrivalSpeed="0.0"/>
  <flow id="JF179800" begin="420" fromJunction="J0" toJunction="J6" end="480" vehsPerHour="70.05355401383619" departLane="free" arrivalSpeed="0.0"/>
  <flow id="JF179801" begin="420" fromJunction="J3" toJunction="J0" end="480" vehsPerHour="67.95907768983177" departLane="free" arrivalSpeed="0.0"/>
  <flow id="JF179802" begin="420" fromJunction="J3" toJunction="J4" end="480" vehsPerHour="75.58074552788166" departLane="free" arrivalSpeed="0.0"/>
  <flow id="JF179803" begin="420" fromJunction="J3" toJunction="J5" end="480" vehsPerHour="66.75418872940209" departLane="free" arrivalSpeed="0.0"/>
  <flow id="JF179804" begin="420" fromJunction="J3" toJunction="J6" end="480" vehsPerHour="4.795329103829269" departLane="free" arrivalSpeed="0.0"/>
  <flow id="JF179805" begin="420" fromJunction="J3" toJunction="J7" end="480" vehsPerHour="5.853610449111415" departLane="free" arrivalSpeed="0.0"/>
  <flow id="JF179806" begin="420" fromJunction="J4" toJunction="J5" end="480" vehsPerHour="59.14688307650519" departLane="free" arrivalSpeed="0.0"/>
  <flow id="JF179807" begin="420" fromJunction="J4" toJunction="J6" end="480" vehsPerHour="53.50046266822951" departLane="free" arrivalSpeed="0.0"/>
  <flow id="JF179808" begin="420" fromJunction="J4" toJunction="J7" end="480" vehsPerHour="38.90426438775172" departLane="free" arrivalSpeed="0.0"/>
  <flow id="JF179809" begin="420" fromJunction="J5" toJunction="J0" end="480" vehsPerHour="48.43666001149689" departLane="free" arrivalSpeed="0.0"/>
  <flow id="JF179810" begin="420" fromJunction="J5" toJunction="J4" end="480" vehsPerHour="49.14097279757938" departLane="free" arrivalSpeed="0.0"/>
  <flow id="JF179811" begin="420" fromJunction="J5" toJunction="J7" end="480" vehsPerHour="36.22221689858999" departLane="free" arrivalSpeed="0.0"/>
  <flow id="JF179812" begin="420" fromJunction="J6" toJunction="J0" end="480" vehsPerHour="1.3706258071844042" departLane="free" arrivalSpeed="0.0"/>
  <flow id="JF179813" begin="420" fromJunction="J6" toJunction="J3" end="480" vehsPerHour="39.88465566042906" departLane="free" arrivalSpeed="0.0"/>
  <flow id="JF179814" begin="420" fromJunction="J6" toJunction="J4" end="480" vehsPerHour="53.07914350743582" departLane="free" arrivalSpeed="0.0"/>
  <flow id="JF179815" begin="420" fromJunction="J6" toJunction="J7" end="480" vehsPerHour="16.67792904447593" departLane="free" arrivalSpeed="0.0"/>
  <flow id="JF179816" begin="420" fromJunction="J7" toJunction="J0" end="480" vehsPerHour="50.87151283070516" departLane="free" arrivalSpeed="0.0"/>
  <flow id="JF179817" begin="420" fromJunction="J7" toJunction="J3" end="480" vehsPerHour="5.729597338223078" departLane="free" arrivalSpeed="0.0"/>
  <flow id="JF179818" begin="420" fromJunction="J7" toJunction="J4" end="480" vehsPerHour="32.363615522370765" departLane="free" arrivalSpeed="0.0"/>
  <flow id="JF179819" begin="420" fromJunction="J7" toJunction="J5" end="480" vehsPerHour="50.988241286658536" departLane="free" arrivalSpeed="0.0"/>
  <flow id="JF179820" begin="420" fromJunction="J7" toJunction="J6" end="480" vehsPerHour="48.95520606157309" departLane="free" arrivalSpeed="0.0"/>
  <flow id="JF179821" begin="480" fromJunction="J0" toJunction="J3" end="540" vehsPerHour="42.10958799107821" departLane="free" arrivalSpeed="0.0"/>
  <flow id="JF179822" begin="480" fromJunction="J0" toJunction="J5" end="540" vehsPerHour="33.983946593700146" departLane="free" arrivalSpeed="0.0"/>
  <flow id="JF179823" begin="480" fromJunction="J0" toJunction="J6" end="540" vehsPerHour="100.95398021100819" departLane="free" arrivalSpeed="0.0"/>
  <flow id="JF179824" begin="480" fromJunction="J0" toJunction="J7" end="540" vehsPerHour="41.93720283922392" departLane="free" arrivalSpeed="0.0"/>
  <flow id="JF179825" begin="480" fromJunction="J3" toJunction="J5" end="540" vehsPerHour="89.45815634890312" departLane="free" arrivalSpeed="0.0"/>
  <flow id="JF179826" begin="480" fromJunction="J3" toJunction="J6" end="540" vehsPerHour="54.92812485048053" departLane="free" arrivalSpeed="0.0"/>
  <flow id="JF179827" begin="480" fromJunction="J4" toJunction="J3" end="540" vehsPerHour="25.883561604148003" departLane="free" arrivalSpeed="0.0"/>
  <flow id="JF179828" begin="480" fromJunction="J4" toJunction="J5" end="540" vehsPerHour="55.0129318479895" departLane="free" arrivalSpeed="0.0"/>
  <flow id="JF179829" begin="480" fromJunction="J4" toJunction="J7" end="540" vehsPerHour="6.412650951725207" departLane="free" arrivalSpeed="0.0"/>
  <flow id="JF179830" begin="480" fromJunction="J5" toJunction="J3" end="540" vehsPerHour="25.3489539115914" departLane="free" arrivalSpeed="0.0"/>
  <flow id="JF179831" begin="480" fromJunction="J5" toJunction="J7" end="540" vehsPerHour="56.32929516414486" departLane="free" arrivalSpeed="0.0"/>
  <flow id="JF179832" begin="480" fromJunction="J6" toJunction="J0" end="540" vehsPerHour="53.21973853402233" departLane="free" arrivalSpeed="0.0"/>
  <flow id="JF179833" begin="480" fromJunction="J6" toJunction="J3" end="540" vehsPerHour="31.929441778441078" departLane="free" arrivalSpeed="0.0"/>
  <flow id="JF179834" begin="480" fromJunction="J6" toJunction="J5" end="540" vehsPerHour="11.690873889775254" departLane="free" arrivalSpeed="0.0"/>
  <flow id="JF179835" begin="480" fromJunction="J6" toJunction="J7" end="540" vehsPerHour="24.248951366996103" departLane="free" arrivalSpeed="0.0"/>
  <flow id="JF179836" begin="480" fromJunction="J7" toJunction="J0" end="540" vehsPerHour="60.082116131441914" departLane="free" arrivalSpeed="0.0"/>
  <flow id="JF179837" begin="480" fromJunction="J7" toJunction="J3" end="540" vehsPerHour="63.36378583942725" departLane="free" arrivalSpeed="0.0"/>
  <flow id="JF179838" begin="480" fromJunction="J7" toJunction="J4" end="540" vehsPerHour="18.40909432718503" departLane="free" arrivalSpeed="0.0"/>
  <flow id="JF179839" begin="480" fromJunction="J7" toJunction="J5" end="540" vehsPerHour="44.64197568578777" departLane="free" arrivalSpeed="0.0"/>
  <flow id="JF179840" begin="540" fromJunction="J0" toJunction="J3" end="600" vehsPerHour="64.3445905898711" departLane="free" arrivalSpeed="0.0"/>
  <flow id="JF179841" begin="540" fromJunction="J0" toJunction="J4" end="600" vehsPerHour="90.56341514120801" departLane="free" arrivalSpeed="0.0"/>
  <flow id="JF179842" begin="540" fromJunction="J0" toJunction="J5" end="600" vehsPerHour="5.396504676652173" departLane="free" arrivalSpeed="0.0"/>
  <flow id="JF179843" begin="540" fromJunction="J0" toJunction="J6" end="600" vehsPerHour="43.370164795161614" departLane="free" arrivalSpeed="0.0"/>
  <flow id="JF179844" begin="540" fromJunction="J3" toJunction="J0" end="600" vehsPerHour="2.412006653530726" departLane="free" arrivalSpeed="0.0"/>
  <flow id="JF179845" begin="540" fromJunction="J3" toJunction="J4" end="600" vehsPerHour="78.52087353506198" departLane="free" arrivalSpeed="0.0"/>
  <flow id="JF179846" begin="540" fromJunction="J3" toJunction="J5" end="600" vehsPerHour="42.777338772303125" departLane="free" arrivalSpeed="0.0"/>
  <flow id="JF179847" begin="540" fromJunction="J3" toJunction="J6" end="600" vehsPerHour="136.188183988391" departLane="free" arrivalSpeed="0.0"/>
  <flow id="JF179848" begin="540" fromJunction="J4" toJunction="J0" end="600" vehsPerHour="50.25086063777611" departLane="free" arrivalSpeed="0.0"/>
  <flow id="JF179849" begin="540" fromJunction="J4" toJunction="J3" end="600" vehsPerHour="17.852857943184244" departLane="free" arrivalSpeed="0.0"/>
  <flow id="JF179850" begin="540" fromJunction="J4" toJunction="J5" end="600" vehsPerHour="60.15527473346291" departLane="free" arrivalSpeed="0.0"/>
  <flow id="JF179851" begin="540" fromJunction="J4" toJunction="J6" end="600" vehsPerHour="38.52272636459866" departLane="free" arrivalSpeed="0.0"/>
  <flow id="JF179852" begin="540" fromJunction="J4" toJunction="J7" end="600" vehsPerHour="8.326829524573105" departLane="free" arrivalSpeed="0.0"/>
  <flow id="JF179853" begin="540" fromJunction="J5" toJunction="J3" end="600" vehsPerHour="56.008863918971294" departLane="free" arrivalSpeed="0.0"/>
  <flow id="JF179854" begin="540" fromJunction="J5" toJunction="J4" end="600" vehsPerHour="23.691604585790916" departLane="free" arrivalSpeed="0.0"/>
  <flow id="JF179855" begin="540" fromJunction="J5" toJunction="J6" end="600" vehsPerHour="59.07796473039134" departLane="free" arrivalSpeed="0.0"/>
  <flow id="JF179856" begin="540" fromJunction="J5" toJunction="J7" end="600" vehsPerHour="43.94863769628277" departLane="free" arrivalSpeed="0.0"/>
  <flow id="JF179857" begin="540" fromJunction="J6" toJunction="J0" end="600" vehsPerHour="48.79511750949588" departLane="free" arrivalSpeed="0.0"/>
  <flow id="JF179858" begin="540" fromJunction="J6" toJunction="J3" end="600" vehsPerHour="11.611321935054772" departLane="free" arrivalSpeed="0.0"/>
  <flow id="JF179859" begin="540" fromJunction="J6" toJunction="J4" end="600" vehsPerHour="12.21847477160692" departLane="free" arrivalSpeed="0.0"/>