<?xml version="1.0" encoding="UTF-8"?>
<routes xmlns:xsi="http://www.w3.org/2001/XMLSchema-instance" xsi:noNamespaceSchemaLocation="http://sumo.dlr.de/xsd/routes_file.xsd">
  <flow id="JF183141" begin="0" fromJunction="J0" toJunction="J3" end="60" vehsPerHour="77.70821003963681" departLane="free" arrivalSpeed="0.0"/>
  <flow id="JF183142" begin="0" fromJunction="J0" toJunction="J4" end="60" vehsPerHour="35.64544394925857" departLane="free" arrivalSpeed="0.0"/>
  <flow id="JF183143" begin="0" fromJunction="J0" toJunction="J7" end="60" vehsPerHour="112.29629935932974" departLane="free" arrivalSpeed="0.0"/>
  <flow id="JF183144" begin="0" fromJunction="J3" toJunction="J0" end="60" vehsPerHour="135.5345751276493" departLane="free" arrivalSpeed="0.0"/>
  <flow id="JF183145" begin="0" fromJunction="J3" toJunction="J4" end="60" vehsPerHour="77.9830458224282" departLane="free" arrivalSpeed="0.0"/>
  <flow id="JF183146" begin="0" fromJunction="J3" toJunction="J5" end="60" vehsPerHour="15.224438543077094" departLane="free" arrivalSpeed="0.0"/>
  <flow id="JF183147" begin="0" fromJunction="J3" toJunction="J6" end="60" vehsPerHour="118.69982839574466" departLane="free" arrivalSpeed="0.0"/>
  <flow id="JF183148" begin="0" fromJunction="J3" toJunction="J7" end="60" vehsPerHour="58.20422762665284" departLane="free" arrivalSpeed="0.0"/>
  <flow id="JF183149" begin="0" fromJunction="J4" toJunction="J0" end="60" vehsPerHour="59.36510901373651" departLane="free" arrivalSpeed="0.0"/>
  <flow id="JF183150" begin="0" fromJunction="J4" toJunction="J3" end="60" vehsPerHour="53.30436634908212" departLane="free" arrivalSpeed="0.0"/>
  <flow id="JF183151" begin="0" fromJunction="J4" toJunction="J5" end="60" vehsPerHour="26.934882369490065" departLane="free" arrivalSpeed="0.0"/>
  <flow id="JF183152" begin="0" fromJunction="J4" toJunction="J7" end="60" vehsPerHour="43.11840712746609" departLane="free" arrivalSpeed="0.0"/>
  <flow id="JF183153" begin="0" fromJunction="J5" toJunction="J3" end="60" vehsPerHour="15.266268304822262" departLane="free" arrivalSpeed="0.0"/>
  <flow id="JF183154" begin="0" fromJunction="J5" toJunction="J4" end="60" vehsPerHour="52.00430386988642" departLane="free" arrivalSpeed="0.0"/>
  <flow id="JF183155" begin="0" fromJunction="J5" toJunction="J7" end="60" vehsPerHour="9.316794182414464" departLane="free" arrivalSpeed="0.0"/>
  <flow id="JF183156" begin="0" fromJunction="J6" toJunction="J0" end="60" vehsPerHour="18.888396841273753" departLane="free" arrivalSpeed="0.0"/>
  <flow id="JF183157" begin="0" fromJunction="J6" toJunction="J3" end="60" vehsPerHour="8.213619811261466" departLane="free" arrivalSpeed="0.0"/>
  <flow id="JF183158" begin="0" fromJunction="J6" toJunction="J4" end="60" vehsPerHour="36.754768483296246" departLane="free" arrivalSpeed="0.0"/>
  <flow id="JF183159" begin="0" fromJunction="J6" toJunction="J5" end="60" vehsPerHour="65.27686074485788" departLane="free" arrivalSpeed="0.0"/>
  <flow id="JF183160" begin="0" fromJunction="J6" toJunction="J7" end="60" vehsPerHour="2.9880908257807013" departLane="free" arrivalSpeed="0.0"/>
  <flow id="JF183161" begin="0" fromJunction="J7" toJunction="J0" end="60" vehsPerHour="19.80564543769144" departLane="free" arrivalSpeed="0.0"/>
  <flow id="JF183162" begin="0" fromJunction="J7" toJunction="J3" end="60" vehsPerHour="27.76999099323329" departLane="free" arrivalSpeed="0.0"/>
  <flow id="JF183163" begin="0" fromJunction="J7" toJunction="J4" end="60" vehsPerHour="21.058600747719733" departLane="free" arrivalSpeed="0.0"/>
  <flow id="JF183164" begin="0" fromJunction="J7" toJunction="J5" end="60" vehsPerHour="32.95355980464492" departLane="free" arrivalSpeed="0.0"/>
  <flow id="JF183165" begin="60" fromJunction="J0" toJunction="J3" end="120" vehsPerHour="119.23402543518812" departLane="free" arrivalSpeed="0.0"/>
  <flow id="JF183166" begin="60" fromJunction="J0" toJunction="J6" end="120" vehsPerHour="10.953236595445492" departLane="free" arrivalSpeed="0.0"/>
  <flow id="JF183167" begin="60" fromJunction="J0" toJunction="J7" end="120" vehsPerHour="131.58077399620035" departLane="free" arrivalSpeed="0.0"/>
  <flow id="JF183168" begin="60" fromJunction="J3" toJunction="J0" end="120" vehsPerHour="117.39309707235995" departLane="free" arrivalSpeed="0.0"/>
  <flow id="JF183169" begin="60" fromJunction="J3" toJunction="J4" end="120" vehsPerHour="107.37838313949744" departLane="free" arrivalSpeed="0.0"/>
  <flow id="JF183170" begin="60" fromJunction="J3" toJunction="J6" end="120" vehsPerHour="35.54258294808912" departLane="free" arrivalSpeed="0.0"/>
  <flow id="JF183171" begin="60" fromJunction="J3" toJunction="J7" end="120" vehsPerHour="59.03555286411544" departLane="free" arrivalSpeed="0.0"/>
  <flow id="JF183172" begin="60" fromJunction="J4" toJunction="J0" end="120" vehsPerHour="39.18983023565726" departLane="free" arrivalSpeed="0.0"/>
  <flow id="JF183173" begin="60" fromJunction="J4" toJunction="J3" end="120" vehsPerHour="9.604883851577126" departLane="free" arrivalSpeed="0.0"/>
  <flow id="JF183174" begin="60" fromJunction="J5" toJunction="J3" end="120" vehsPerHour="24.551287080313585" departLane="free" arrivalSpeed="0.0"/>
  <flow id="JF183175" begin="60" fromJunction="J5" toJunction="J4" end="120" vehsPerHour="17.42203289913301" departLane="free" arrivalSpeed="0.0"/>
  <flow id="JF183176" begin="60" fromJunction="J5" toJunction="J6" end="120" vehsPerHour="31.69132114645245" departLane="free" arrivalSpeed="0.0"/>
  <flow id="JF183177" begin="60" fromJunction="J6" toJunction="J4" end="120" vehsPerHour="59.953066368885274" departLane="free" arrivalSpeed="0.0"/>
  <flow id="JF183178" begin="60" fromJunction="J6" toJunction="J5" end="120" vehsPerHour="3.3374520501383267" departLane="free" arrivalSpeed="0.0"/>
  <flow id="JF183179" begin="60" fromJunction="J6" toJunction="J7" end="120" vehsPerHour="30.85917001315108" departLane="free" arrivalSpeed="0.0"/>
  <flow id="JF183180" begin="60" fromJunction="J7" toJunction="J3" end="120" vehsPerHour="40.3403586535034" departLane="free" arrivalSpeed="0.0"/>
  <flow id="JF183181" begin="60" fromJunction="J7" toJunction="J4" end="120" vehsPerHour="55.01357047638457" departLane="free" arrivalSpeed="0.0"/>
  <flow id="JF183182" begin="60" fromJunction="J7" toJunction="J5" end="120" vehsPerHour="53.578046393906156" departLane="free" arrivalSpeed="0.0"/>
  <flow id="JF183183" begin="60" fromJunction="J7" toJunction="J6" end="120" vehsPerHour="24.43025280635682" departLane="free" arrivalSpeed="0.0"/>
  <flow id="JF183184" begin="120" fromJunction="J0" toJunction="J4" end="180" vehsPerHour="101.64065076026037" departLane="free" arrivalSpeed="0.0"/>
  <flow id="JF183185" begin="120" fromJunction="J0" toJunction="J5" end="180" vehsPerHour="34.20861268781766" departLane="free" arrivalSpeed="0.0"/>
  <flow id="JF183186" begin="120" fromJunction="J0" toJunction="J6" end="180" vehsPerHour="21.568287240372033" departLane="free" arrivalSpeed="0.0"/>
  <flow id="JF183187" begin="120" fromJunction="J0" toJunction="J7" end="180" vehsPerHour="81.38684375645784" departLane="free" arrivalSpeed="0.0"/>
  <flow id="JF183188" begin="120" fromJunction="J3" toJunction="J0" end="180" vehsPerHour="78.23678052780264" departLane="free" arrivalSpeed="0.0"/>
  <flow id="JF183189" begin="120" fromJunction="J3" toJunction="J5" end="180" vehsPerHour="126.06934653677607" departLane="free" arrivalSpeed="0.0"/>
  <flow id="JF183190" begin="120" fromJunction="J3" toJunction="J6" end="180" vehsPerHour="111.8638570209245" departLane="free" arrivalSpeed="0.0"/>
  <flow id="JF183191" begin="120" fromJunction="J4" toJunction="J3" end="180" vehsPerHour="19.330855717798794" departLane="free" arrivalSpeed="0.0"/>
  <flow id="JF183192" begin="120" fromJunction="J4" toJunction="J5" end="180" vehsPerHour="65.67711981446057" departLane="free" arrivalSpeed="0.0"/>
  <flow id="JF183193" begin="120" fromJunction="J4" toJunction="J6" end="180" vehsPerHour="58.063562470172975" departLane="free" arrivalSpeed="0.0"/>
  <flow id="JF183194" begin="120" fromJunction="J5" toJunction="J6" end="180" vehsPerHour="33.71876660930212" departLane="free" arrivalSpeed="0.0"/>
  <flow id="JF183195" begin="120" fromJunction="J5" toJunction="J7" end="180" vehsPerHour="27.28848484636048" departLane="free" arrivalSpeed="0.0"/>
  <flow id="JF183196" begin="120" fromJunction="J6" toJunction="J0" end="180" vehsPerHour="49.27770995057686" departLane="free" arrivalSpeed="0.0"/>
  <flow id="JF183197" begin="120" fromJunction="J6" toJunction="J3" end="180" vehsPerHour="32.91088797722888" departLane="free" arrivalSpeed="0.0"/>
  <flow id="JF183198" begin="120" fromJunction="J6" toJunction="J5" end="180" vehsPerHour="58.64910518246453" departLane="free" arrivalSpeed="0.0"/>
  <flow id="JF183199" begin="120" fromJunction="J6" toJunction="J7" end="180" vehsPerHour="31.536307018382978" departLane="free" arrivalSpeed="0.0"/>
  <flow id="JF183200" begin="120" fromJunction="J7" toJunction="J0" end="180" vehsPerHour="12.848701855156618" departLane="free" arrivalSpeed="0.0"/>
  <flow id="JF183201" begin="120" fromJunction="J7" toJunction="J3" end="180" vehsPerHour="55.789600880766166" departLane="free" arrivalSpeed="0.0"/>
  <flow id="JF183202" begin="120" fromJunction="J7" toJunction="J4" end="180" vehsPerHour="36.487332686112175" departLane="free" arrivalSpeed="0.0"/>
  <flow id="JF183203" begin="120" fromJunction="J7" toJunction="J5" end="180" vehsPerHour="21.397529341612753" departLane="free" arrivalSpeed="0.0"/>
  <flow id="JF183204" begin="120" fromJunction="J7" toJunction="J6" end="180" vehsPerHour="30.651630073986368" departLane="free" arrivalSpeed="0.0"/>
  <flow id="JF183205" begin="180" fromJunction="J0" toJunction="J3" end="240" vehsPerHour="104.75032514956074" departLane="free" arrivalSpeed="0.0"/>
  <flow id="JF183206" begin="180" fromJunction="J0" toJunction="J4" end="240" vehsPerHour="26.41892216319211" departLane="free" arrivalSpeed="0.0"/>
  <flow id="JF183207" begin="180" fromJunction="J0" toJunction="J5" end="240" vehsPerHour="87.43262224539744" departLane="free" arrivalSpeed="0.0"/>
  <flow id="JF183208" begin="180" fromJunction="J0" toJunction="J6" end="240" vehsPerHour="26.583345211857893" departLane="free" arrivalSpeed="0.0"/>
  <flow id="JF183209" begin="180" fromJunction="J0" toJunction="J7" end="240" vehsPerHour="43.381981433478316" departLane="free" arrivalSpeed="0.0"/>
  <flow id="JF183210" begin="180" fromJunction="J3" toJunction="J0" end="240" vehsPerHour="69.35393579199712" departLane="free" arrivalSpeed="0.0"/>
  <flow id="JF183211" begin="180" fromJunction="J3" toJunction="J5" end="240" vehsPerHour="85.23227481640022" departLane="free" arrivalSpeed="0.0"/>
  <flow id="JF183212" begin="180" fromJunction="J3" toJunction="J6" end="240" vehsPerHour="46.51763397719991" departLane="free" arrivalSpeed="0.0"/>
  <flow id="JF183213" begin="180" fromJunction="J3" toJunction="J7" end="240" vehsPerHour="130.19136639284528" departLane="free" arrivalSpeed="0.0"/>
  <flow id="JF183214" begin="180" fromJunction="J4" toJunction="J3" end="240" vehsPerHour="1.2349873223855032" departLane="free" arrivalSpeed="0.0"/>
  <flow id="JF183215" begin="180" fromJunction="J4" toJunction="J5" end="240" vehsPerHour="14.597453348044027" departLane="free" arrivalSpeed="0.0"/>
  <flow id="JF183216" begin="180" fromJunction="J4" toJunction="J6" end="240" vehsPerHour="2.7016826612264957" departLane="free" arrivalSpeed="0.0"/>
  <flow id="JF183217" begin="180" fromJunction="J4" toJunction="J7" end="240" vehsPerHour="32.507196323834954" departLane="free" arrivalSpeed="0.0"/>
  <flow id="JF183218" begin="180" fromJunction="J5" toJunction="J0" end="240" vehsPerHour="34.57540440443902" departLane="free" arrivalSpeed="0.0"/>
  <flow id="JF183219" begin="180" fromJunction="J5" toJunction="J3" end="240" vehsPerHour="55.313741165595296" departLane="free" arrivalSpeed="0.0"/>
  <flow id="JF183220" begin="180" fromJunction="J5" toJunction="J4" end="240" vehsPerHour="60.074180125417634" departLane="free" arrivalSpeed="0.0"/>
  <flow id="JF183221" begin="180" fromJunction="J5" toJunction="J7" end="240" vehsPerHour="52.33780917429907" departLane="free" arrivalSpeed="0.0"/>
  <flow id="JF183222" begin="180" fromJunction="J6" toJunction="J0" end="240" vehsPerHour="5.698245732272248" departLane="free" arrivalSpeed="0.0"/>
  <flow id="JF183223" begin="180" fromJunction="J6" toJunction="J3" end="240" vehsPerHour="62.08014911280948" departLane="free" arrivalSpeed="0.0"/>
  <flow id="JF183224" begin="180" fromJunction="J6" toJunction="J4" end="240" vehsPerHour="42.29313385806051" departLane="free" arrivalSpeed="0.0"/>
  <flow id="JF183225" begin="180" fromJunction="J6" toJunction="J7" end="240" vehsPerHour="3.6208743026930246" departLane="free" arrivalSpeed="0.0"/>
  <flow id="JF183226" begin="180" fromJunction="J7" toJunction="J0" end="240" vehsPerHour="15.884303676124636" departLane="free" arrivalSpeed="0.0"/>
  <flow id="JF183227" begin="180" fromJunction="J7" toJunction="J3" end="240" vehsPerHour="66.43064276571928" departLane="free" arrivalSpeed="0.0"/>
  <flow id="JF183228" begin="180" fromJunction="J7" toJunction="J4" end="240" vehsPerHour="60.406671241052415" departLane="free" arrivalSpeed="0.0"/>
  <flow id="JF183229" begin="180" fromJunction="J7" toJunction="J5" end="240" vehsPerHour="40.85991635482953" departLane="free" arrivalSpeed="0.0"/>
  <flow id="JF183230" begin="180" fromJunction="J7" toJunction="J6" end="240" vehsPerHour="55.84822223599534" departLane="free" arrivalSpeed="0.0"/>
  <flow id="JF183231" begin="240" fromJunction="J0" toJunction="J4" end="300" vehsPerHour="58.951014442338554" departLane="free" arrivalSpeed="0.0"/>
  <flow id="JF183232" begin="240" fromJunction="J0" toJunction="J5" end="300" vehsPerHour="113.08988326618136" departLane="free" arrivalSpeed="0.0"/>
  <flow id="JF183233" begin="240" fromJunction="J0" toJunction="J7" end="300" vehsPerHour="86.85728627856801" departLane="free" arrivalSpeed="0.0"/>
  <flow id="JF183234" begin="240" fromJunction="J3" toJunction="J0" end="300" vehsPerHour="56.237747280269346" departLane="free" arrivalSpeed="0.0"/>
  <flow id="JF183235" begin="240" fromJunction="J3" toJunction="J4" end="300" vehsPerHour="5.249048840529588" departLane="free" arrivalSpeed="0.0"/>
  <flow id="JF183236" begin="240" fromJunction="J3" toJunction="J7" end="300" vehsPerHour="136.3502632549274" departLane="free" arrivalSpeed="0.0"/>
  <flow id="JF183237" begin="240" fromJunction="J4" toJunction="J0" end="300" vehsPerHour="48.39583549686722" departLane="free" arrivalSpeed="0.0"/>
  <flow id="JF183238" begin="240" fromJunction="J4" toJunction="J5" end="300" vehsPerHour="2.3757380175866767" departLane="free" arrivalSpeed="0.0"/>
  <flow id="JF183239" begin="240" fromJunction="J4" toJunction="J7" end="300" vehsPerHour="15.995602301722231" departLane="free" arrivalSpeed="0.0"/>
  <flow id="JF183240" begin="240" fromJunction="J5" toJunction="J0" end="300" vehsPerHour="1.8740724250226168" departLane="free" arrivalSpeed="0.0"/>
  <flow id="JF183241" begin="240" fromJunction="J5" toJunction="J3" end="300" vehsPerHour="37.18115387758162" departLane="free" arrivalSpeed="0.0"/>
  <flow id="JF183242" begin="240" fromJunction="J5" toJunction="J4" end="300" vehsPerHour="37.69596627246378" departLane="free" arrivalSpeed="0.0"/>
  <flow id="JF183243" begin="240" fromJunction="J5" toJunction="J6" end="300" vehsPerHour="28.189300548668292" departLane="free" arrivalSpeed="0.0"/>
  <flow id="JF183244" begin="240" fromJunction="J5" toJunction="J7" end="300" vehsPerHour="39.440856890526064" departLane="free" arrivalSpeed="0.0"/>
  <flow id="JF183245" begin="240" fromJunction="J6" toJunction="J0" end="300" vehsPerHour="25.448037969129064" departLane="free" arrivalSpeed="0.0"/>
  <flow id="JF183246" begin="240" fromJunction="J6" toJunction="J4" end="300" vehsPerHour="17.98594653704162" departLane="free" arrivalSpeed="0.0"/>
  <flow id="JF183247" begin="240" fromJunction="J6" toJunction="J7" end="300" vehsPerHour="55.12434022405151" departLane="free" arrivalSpeed="0.0"/>
  <flow id="JF183248" begin="240" fromJunction="J7" toJunction="J3" end="300" vehsPerHour="54.91210512828027" departLane="free" arrivalSpeed="0.0"/>
  <flow id="JF183249" begin="300" fromJunction="J0" toJunction="J3" end="360" vehsPerHour="74.3784138975846" departLane="free" arrivalSpeed="0.0"/>
  <flow id="JF183250" begin="300" fromJunction="J0" toJunction="J4" end="360" vehsPerHour="16.480002716055434" departLane="free" arrivalSpeed="0.0"/>
  <flow id="JF183251" begin="300" fromJunction="J0" toJunction="J7" end="360" vehsPerHour="116.979217439414" departLane="free" arrivalSpeed="0.0"/>
  <flow id="JF183252" begin="300" fromJunction="J3" toJunction="J0" end="360" vehsPerHour="93.7783255626316" departLane="free" arrivalSpeed="0.0"/>
  <flow id="JF183253" begin="300" fromJunction="J3" toJunction="J4" end="360" vehsPerHour="80.66540978806323" departLane="free" arrivalSpeed="0.0"/>
  <flow id="JF183254" begin="300" fromJunction="J3" toJunction="J5" end="360" vehsPerHour="68.952008926133" departLane="free" arrivalSpeed="0.0"/>
  <flow id="JF183255" begin="300" fromJunction="J3" toJunction="J6" end="360" vehsPerHour="42.10679207950347" departLane="free" arrivalSpeed="0.0"/>
  <flow id="JF183256" begin="300" fromJunction="J3" toJunction="J7" end="360" vehsPerHour="49.9955594740626" departLane="free" arrivalSpeed="0.0"/>
  <flow id="JF183257" begin="300" fromJunction="J4" toJunction="J0" end="360" vehsPerHour="8.512217991977153" departLane="free" arrivalSpeed="0.0"/>
  <flow id="JF183258" begin="300" fromJunction="J4" toJunction="J3" end="360" vehsPerHour="56.46621435175683" departLane="free" arrivalSpeed="0.0"/>
  <flow id="JF183259" begin="300" fromJunction="J4" toJunction="J6" end="360" vehsPerHour="60.001956028434456" departLane="free" arrivalSpeed="0.0"/>
  <flow id="JF183260" begin="300" fromJunction="J5" toJunction="J0" end="360" vehsPerHour="55.324934083811605" departLane="free" arrivalSpeed="0.0"/>
  <flow id="JF183261" begin="300" fromJunction="J5" toJunction="J3" end="360" vehsPerHour="7.967139077665475" departLane="free" arrivalSpeed="0.0"/>
  <flow id="JF183262" begin="300" fromJunction="J5" toJunction="J6" end="360" vehsPerHour="53.26070634302614" departLane="free" arrivalSpeed="0.0"/>
  <flow id="JF183263" begin="300" fromJunction="J5" toJunction="J7" end="360" vehsPerHour="8.668549265370936" departLane="free" arrivalSpeed="0.0"/>
  <flow id="JF183264" begin="300" fromJunction="J6" toJunction="J0" end="360" vehsPerHour="9.714897840365197" departLane="free" arrivalSpeed="0.0"/>
  <flow id="JF183265" begin="300" fromJunction="J6" toJunction="J3" end="360" vehsPerHour="64.15523802870106" departLane="free" arrivalSpeed="0.0"/>
  <flow id="JF183266" begin="300" fromJunction="J6" toJunction="J5" end="360" vehsPerHour="65.92327185319908" departLane="free" arrivalSpeed="0.0"/>
  <flow id="JF183267" begin="300" fromJunction="J7" toJunction="J0" end="360" vehsPerHour="51.213207023263216" departLane="free" arrivalSpeed="0.0"/>
  <flow id="JF183268" begin="300" fromJunction="J7" toJunction="J3" end="360" vehsPerHour="13.09902792145556" departLane="free" arrivalSpeed="0.0"/>
  <flow id="JF183269" begin="300" fromJunction="J7" toJunction="J4" end="360" vehsPerHour="14.36534812022527" departLane="free" arrivalSpeed="0.0"/>
  <flow id="JF183270" begin="300" fromJunction="J7" toJunction="J5" end="360" vehsPerHour="48.39519235008822" departLane="free" arrivalSpeed="0.0"/>
  <flow id="JF183271" begin="300" fromJunction="J7" toJunction="J6" end="360" vehsPerHour="62.62935758276941" departLane="free" arrivalSpeed="0.0"/>
  <flow id="JF183272" begin="360" fromJunction="J0" toJunction="J4" end="420" vehsPerHour="135.96589859199625" departLane="free" arrivalSpeed="0.0"/>
  <flow id="JF183273" begin="360" fromJunction="J0" toJunction="J5" end="420" vehsPerHour="9.437340377656172" departLane="free" arrivalSpeed="0.0"/>
  <flow id="JF183274" begin="360" fromJunction="J0" toJunction="J6" end="420" vehsPerHour="59.862203577003314" departLane="free" arrivalSpeed="0.0"/>
  <flow id="JF183275" begin="360" fromJunction="J0" toJunction="J7" end="420" vehsPerHour="81.57724779053316" departLane="free" arrivalSpeed="0.0"/>
  <flow id="JF183276" begin="360" fromJunction="J3" toJunction="J0" end="420" vehsPerHour="116.73961517955725" departLane="free" arrivalSpeed="0.0"/>
  <flow id="JF183277" begin="360" fromJunction="J3" toJunction="J4" end="420" vehsPerHour="1.9947379788824477" departLane="free" arrivalSpeed="0.0"/>
  <flow id="JF183278" begin="360" fromJunction="J3" toJunction="J5" end="420" vehsPerHour="73.00669938344721" departLane="free" arrivalSpeed="0.0"/>
  <flow id="JF183279" begin="360" fromJunction="J3" toJunction="J6" end="420" vehsPerHour="112.65146179251968" departLane="free" arrivalSpeed="0.0"/>
  <flow id="JF183280" begin="360" fromJunction="J3" toJunction="J7" end="420" vehsPerHour="55.60238444358586" departLane="free" arrivalSpeed="0.0"/>
  <flow id="JF183281" begin="360" fromJunction="J4" toJunction="J0" end="420" vehsPerHour="23.889954030167324" departLane="free" arrivalSpeed="0.0"/>
  <flow id="JF183282" begin="360" fromJunction="J4" toJunction="J5" end="420" vehsPerHour="19.066217790174157" departLane="free" arrivalSpeed="0.0"/>
  <flow id="JF183283" begin="360" fromJunction="J4" toJunction="J6" end="420" vehsPerHour="2.6986133871345133" departLane="free" arrivalSpeed="0.0"/>
  <flow id="JF183284" begin="360" fromJunction="J4" toJunction="J7" end="420" vehsPerHour="45.470456296044446" departLane="free" arrivalSpeed="0.0"/>
  <flow id="JF183285" begin="360" fromJunction="J5" toJunction="J0" end="420" vehsPerHour="47.69907116124606" departLane="free" arrivalSpeed="0.0"/>
  <flow id="JF183286" begin="360" fromJunction="J5" toJunction="J3" end="420" vehsPerHour="12.277697097686927" departLane="free" arrivalSpeed="0.0"/>
  <flow id="JF183287" begin="360" fromJunction="J5" toJunction="J7" end="420" vehsPerHour="66.91604021059385" departLane="free" arrivalSpeed="0.0"/>
  <flow id="JF183288" begin="360" fromJunction="J6" toJunction="J0" end="420" vehsPerHour="55.800441196858685" departLane="free" arrivalSpeed="0.0"/>
  <flow id="JF183289" begin="360" fromJunction="J6" toJunction="J4" end="420" vehsPerHour="41.747507438614896" departLane="free" arrivalSpeed="0.0"/>
  <flow id="JF183290" begin="360" fromJunction="J6" toJunction="J5" end="420" vehsPerHour="46.89763569645189" departLane="free" arrivalSpeed="0.0"/>
  <flow id="JF183291" begin="360" fromJunction="J6" toJunction="J7" end="420" vehsPerHour="16.511153988928985" departLane="free" arrivalSpeed="0.0"/>
  <flow id="JF183292" begin="360" fromJunction="J7" toJunction="J0" end="420" vehsPerHour="63.40572120269647" departLane="free" arrivalSpeed="0.0"/>
  <flow id="JF183293" begin="360" fromJunction="J7" toJunction="J3" end="420" vehsPerHour="6.203290300769313" departLane="free" arrivalSpeed="0.0"/>
  <flow id="JF183294" begin="360" fromJunction="J7" toJunction="J5" end="420" vehsPerHour="53.39457725773086" departLane="free" arrivalSpeed="0.0"/>
  <flow id="JF183295" begin="360" fromJunction="J7" toJunction="J6" end="420" vehsPerHour="25.58595993279409" departLane="free" arrivalSpeed="0.0"/>
  <flow id="JF183296" begin="420" fromJunction="J0" toJunction="J4" end="480" vehsPerHour="134.81534635301426" departLane="free" arrivalSpeed="0.0"/>
  <flow id="JF183297" begin="420" fromJunction="J0" toJunction="J5" end="480" vehsPerHour="77.71272321988455" departLane="free" arrivalSpeed="0.0"/>
  <flow id="JF183298" begin="420" fromJunction="J0" toJunction="J6" end="480" vehsPerHour="68.98047096402338" departLane="free" arrivalSpeed="0.0"/>
  <flow id="JF183299" begin="420" fromJunction="J0" toJunction="J7" end="480" vehsPerHour="62.1633417434968" departLane="free" arrivalSpeed="0.0"/>
  <flow id="JF183300" begin="420" fromJunction="J3" toJunction="J4" end="480" vehsPerHour="4.736191982321141" departLane="free" arrivalSpeed="0.0"/>
  <flow id="JF183301" begin="420" fromJunction="J3" toJunction="J5" end="480" vehsPerHour="133.45563539599317" departLane="free" arrivalSpeed="0.0"/>
  <flow id="JF183302" begin="420" fromJunction="J3" toJunction="J6" end="480" vehsPerHour="79.2357906684147" departLane="free" arrivalSpeed="0.0"/>
  <flow id="JF183303" begin="420" fromJunction="J3" toJunction="J7" end="480" vehsPerHour="54.17560821530408" departLane="free" arrivalSpeed="0.0"/>
  <flow id="JF183304" begin="420" fromJunction="J4" toJunction="J6" end="480" vehsPerHour="6.624238038109278" departLane="free" arrivalSpeed="0.0"/>
  <flow id="JF183305" begin="420" fromJunction="J4" toJunction="J7" end="480" vehsPerHour="4.286832049185604" departLane="free" arrivalSpeed="0.0"/>
  <flow id="JF183306" begin="420" fromJunction="J5" toJunction="J0" end="480" vehsPerHour="0.6126596362838193" departLane="free" arrivalSpeed="0.0"/>
  <flow id="JF183307" begin="420" fromJunction="J5" toJunction="J3" end="480" vehsPerHour="10.828944580580497" departLane="free" arrivalSpeed="0.0"/>
  <flow id="JF183308" begin="420" fromJunction="J5" toJunction="J4" end="480" vehsPerHour="35.12212289037895" departLane="free" arrivalSpeed="0.0"/>
  <flow id="JF183309" begin="420" fromJunction="J6" toJunction="J4" end="480" vehsPerHour="41.378703248577395" departLane="free" arrivalSpeed="0.0"/>
  <flow id="JF183310" begin="420" fromJunction="J6" toJunction="J5" end="480" vehsPerHour="8.685845427553872" departLane="free" arrivalSpeed="0.0"/>
  <flow id="JF183311" begin="420" fromJunction="J6" toJunction="J7" end="480" vehsPerHour="4.190302321526366" departLane="free" arrivalSpeed="0.0"/>
  <flow id="JF183312" begin="420" fromJunction="J7" toJunction="J0" end="480" vehsPerHour="39.05141325488358" departLane="free" arrivalSpeed="0.0"/>
  <flow id="JF183313" begin="420" fromJunction="J7" toJunction="J3" end="480" vehsPerHour="37.9243604805606" departLane="free" arrivalSpeed="0.0"/>
  <flow id="JF183314" begin="420" fromJunction="J7" toJunction="J4" end="480" vehsPerHour="16.177559174231796" departLane="free" arrivalSpeed="0.0"/>
  <flow id="JF183315" begin="480" fromJunction="J0" toJunction="J3" end="540" vehsPerHour="75.21030273648758" departLane="free" arrivalSpeed="0.0"/>
  <flow id="JF183316" begin="480" fromJunction="J0" toJunction="J5" end="540" vehsPerHour="26.816897923504843" departLane="free" arrivalSpeed="0.0"/>
  <flow id="JF183317" begin="480" fromJunction="J0" toJunction="J7" end="540" vehsPerHour="2.1722705934415805" departLane="free" arrivalSpeed="0.0"/>
  <flow id="JF183318" begin="480" fromJunction="J3" toJunction="J4" end="540" vehsPerHour="109.05657591485169" departLane="free" arrivalSpeed="0.0"/>
  <flow id="JF183319" begin="480" fromJunction="J3" toJunction="J6" end="540" vehsPerHour="99.64180180393389" departLane="free" arrivalSpeed="0.0"/>
  <flow id="JF183320" begin="480" fromJunction="J3" toJunction="J7" end="540" vehsPerHour="7.961367974714592" departLane="free" arrivalSpeed="0.0"/>
  <flow id="JF183321" begin="480" fromJunction="J4" toJunction="J0" end="540" vehsPerHour="68.67534761751054" departLane="free" arrivalSpeed="0.0"/>
  <flow id="JF183322" begin="480" fromJunction="J4" toJunction="J3" end="540" vehsPerHour="58.78724457021267" departLane="free" arrivalSpeed="0.0"/>
  <flow id="JF183323" begin="480" fromJunction="J4" toJunction="J5" end="540" vehsPerHour="23.192974489179935" departLane="free" arrivalSpeed="0.0"/>
  <flow id="JF183324" begin="480" fromJunction="J5" toJunction="J0" end="540" vehsPerHour="45.49319107948018" departLane="free" arrivalSpeed="0.0"/>
  <flow id="JF183325" begin="480" fromJunction="J5" toJunction="J3" end="540" vehsPerHour="55.40149553748346" departLane="free" arrivalSpeed="0.0"/>
  <flow id="JF183326" begin="480" fromJunction="J5" toJunction="J6" end="540" vehsPerHour="62.75009914482525" departLane="free" arrivalSpeed="0.0"/>
  <flow id="JF183327" begin="480" fromJunction="J6" toJunction="J0" end="540" vehsPerHour="16.561708786216236" departLane="free" arrivalSpeed="0.0"/>
  <flow id="JF183328" begin="480" fromJunction="J6" toJunction="J3" end="540" vehsPerHour="67.40082086198565" departLane="free" arrivalSpeed="0.0"/>
  <flow id="JF183329" begin="480" fromJunction="J6" toJunction="J5" end="540" vehsPerHour="19.123192250914787" departLane="free" arrivalSpeed="0.0"/>
  <flow id="JF183330" begin="480" fromJunction="J7" toJunction="J0" end="540" vehsPerHour="49.24415569649561" departLane="free" arrivalSpeed="0.0"/>
  <flow id="JF183331" begin="480" fromJunction="J7" toJunction="J3" end="540" vehsPerHour="21.381205415039055" departLane="free" arrivalSpeed="0.0"/>
  <flow id="JF183332" begin="480" fromJunction="J7" toJunction="J4" end="540" vehsPerHour="40.00843572024254" departLane="free" arrivalSpeed="0.0"/>
  <flow id="JF183333" begin="480" fromJunction="J7" toJunction="J5" end="540" vehsPerHour="11.20731288570038" departLane="free" arrivalSpeed="0.0"/>
  <flow id="JF183334" begin="480" fromJunction="J7" toJunction="J6" end="540" vehsPerHour="30.150035585213583" departLane="free" arrivalSpeed="0.0"/>
  <flow id="JF183335" begin="540" fromJunction="J0" toJunction="J3" end="600" vehsPerHour="81.12325410194916" departLane="free" arrivalSpeed="0.0"/>
  <flow id="JF183336" begin="540" fromJunction="J0" toJunction="J4" end="600" vehsPerHour="68.92318335654247" departLane="free" arrivalSpeed="0.0"/>
  <flow id="JF183337" begin="540" fromJunction="J0" toJunction="J5" end="600" vehsPerHour="57.432824893741014" departLane="free" arrivalSpeed="0.0"/>
  <flow id="JF183338" begin="540" fromJunction="J0" toJunction="J6" end="600" vehsPerHour="104.25137787552954" departLane="free" arrivalSpeed="0.0"/>
  <flow id="JF183339" begin="540" fromJunction="J0" toJunction="J7" end="600" vehsPerHour="113.78719948596611" departLane="free" arrivalSpeed="0.0"/>
  <flow id="JF183340" begin="540" fromJunction="J3" toJunction="J0" end="600" vehsPerHour="2.9220090094234834" departLane="free" arrivalSpeed="0.0"/>