<?xml version="1.0" encoding="UTF-8"?>
<routes xmlns:xsi="http://www.w3.org/2001/XMLSchema-instance" xsi:noNamespaceSchemaLocation="http://sumo.dlr.de/xsd/routes_file.xsd">
  <flow id="JF186632" begin="0" fromJunction="J0" toJunction="J3" end="60" vehsPerHour="85.18717924272052" departLane="free" arrivalSpeed="0.0"/>
  <flow id="JF186633" begin="0" fromJunction="J0" toJunction="J4" end="60" vehsPerHour="119.35682471459718" departLane="free" arrivalSpeed="0.0"/>
  <flow id="JF186634" begin="0" fromJunction="J0" toJunction="J5" end="60" vehsPerHour="75.89295928883148" departLane="free" arrivalSpeed="0.0"/>
  <flow id="JF186635" begin="0" fromJunction="J0" toJunction="J6" end="60" vehsPerHour="130.19164034130708" departLane="free" arrivalSpeed="0.0"/>
  <flow id="JF186636" begin="0" fromJunction="J3" toJunction="J4" end="60" vehsPerHour="126.96762976794957" departLane="free" arrivalSpeed="0.0"/>
  <flow id="JF186637" begin="0" fromJunction="J3" toJunction="J6" end="60" vehsPerHour="6.604777480638448" departLane="free" arrivalSpeed="0.0"/>
  <flow id="JF186638" begin="0" fromJunction="J3" toJunction="J7" end="60" vehsPerHour="41.08115925811586" departLane="free" arrivalSpeed="0.0"/>
  <flow id="JF186639" begin="0" fromJunction="J4" toJunction="J0" end="60" vehsPerHour="14.525070101206731" departLane="free" arrivalSpeed="0.0"/>
  <flow id="JF186640" begin="0" fromJunction="J4" toJunction="J5" end="60" vehsPerHour="68.62363251639111" departLane="free" arrivalSpeed="0.0"/>
  <flow id="JF186641" begin="0" fromJunction="J4" toJunction="J6" end="60" vehsPerHour="28.526412869643003" departLane="free" arrivalSpeed="0.0"/>
  <flow id="JF186642" begin="0" fromJunction="J4" toJunction="J7" end="60" vehsPerHour="51.04257099236635" departLane="free" arrivalSpeed="0.0"/>
  <flow id="JF186643" begin="0" fromJunction="J5" toJunction="J0" end="60" vehsPerHour="64.88858981041719" departLane="free" arrivalSpeed="0.0"/>
  <flow id="JF186644" begin="0" fromJunction="J5" toJunction="J3" end="60" vehsPerHour="21.05795319325467" departLane="free" arrivalSpeed="0.0"/>
  <flow id="JF186645" begin="0" fromJunction="J5" toJunction="J4" end="60" vehsPerHour="53.63899833825545" departLane="free" arrivalSpeed="0.0"/>
  <flow id="JF186646" begin="0" fromJunction="J5" toJunction="J7" end="60" vehsPerHour="35.95764317419999" departLane="free" arrivalSpeed="0.0"/>
  <flow id="JF186647" begin="0" fromJunction="J6" toJunction="J3" end="60" vehsPerHour="14.125279367012316" departLane="free" arrivalSpeed="0.0"/>
  <flow id="JF186648" begin="0" fromJunction="J7" toJunction="J3" end="60" vehsPerHour="43.626425623274606" departLane="free" arrivalSpeed="0.0"/>
  <flow id="JF186649" begin="0" fromJunction="J7" toJunction="J4" end="60" vehsPerHour="30.668650421470055" departLane="free" arrivalSpeed="0.0"/>
  <flow id="JF186650" begin="0" fromJunction="J7" toJunction="J5" end="60" vehsPerHour="26.98101421117807" departLane="free" arrivalSpeed="0.0"/>
  <flow id="JF186651" begin="0" fromJunction="J7" toJunction="J6" end="60" vehsPerHour="37.61506453453316" departLane="free" arrivalSpeed="0.0"/>
  <flow id="JF186652" begin="60" fromJunction="J0" toJunction="J3" end="120" vehsPerHour="13.072543045185345" departLane="free" arrivalSpeed="0.0"/>
  <flow id="JF186653" begin="60" fromJunction="J0" toJunction="J4" end="120" vehsPerHour="1.67289938133972" departLane="free" arrivalSpeed="0.0"/>
  <flow id="JF186654" begin="60" fromJunction="J0" toJunction="J6" end="120" vehsPerHour="101.90783358642504" departLane="free" arrivalSpeed="0.0"/>
  <flow id="JF186655" begin="60" fromJunction="J3" toJunction="J4" end="120" vehsPerHour="78.42596967683744" departLane="free" arrivalSpeed="0.0"/>
  <flow id="JF186656" begin="60" fromJunction="J3" toJunction="J5" end="120" vehsPerHour="28.566643011488924" departLane="free" arrivalSpeed="0.0"/>
  <flow id="JF186657" begin="60" fromJunction="J3" toJunction="J6" end="120" vehsPerHour="63.727805000404" departLane="free" arrivalSpeed="0.0"/>
  <flow id="JF186658" begin="60" fromJunction="J4" toJunction="J0" end="120" vehsPerHour="37.88041533348221" departLane="free" arrivalSpeed="0.0"/>
  <flow id="JF186659" begin="60" fromJunction="J4" toJunction="J3" end="120" vehsPerHour="13.872860384334578" departLane="free" arrivalSpeed="0.0"/>
  <flow id="JF186660" begin="60" fromJunction="J4" toJunction="J5" end="120" vehsPerHour="54.37858467997885" departLane="free" arrivalSpeed="0.0"/>
  <flow id="JF186661" begin="60" fromJunction="J4" toJunction="J7" end="120" vehsPerHour="63.156766676500744" departLane="free" arrivalSpeed="0.0"/>
  <flow id="JF186662" begin="60" fromJunction="J5" toJunction="J6" end="120" vehsPerHour="61.83504024409033" departLane="free" arrivalSpeed="0.0"/>
  <flow id="JF186663" begin="60" fromJunction="J6" toJunction="J0" end="120" vehsPerHour="14.576389524691145" departLane="free" arrivalSpeed="0.0"/>
  <flow id="JF186664" begin="60" fromJunction="J6" toJunction="J3" end="120" vehsPerHour="24.865142577813923" departLane="free" arrivalSpeed="0.0"/>
  <flow id="JF186665" begin="60" fromJunction="J6" toJunction="J4" end="120" vehsPerHour="2.5571402609783767" departLane="free" arrivalSpeed="0.0"/>
  <flow id="JF186666" begin="60" fromJunction="J6" toJunction="J5" end="120" vehsPerHour="6.049421525876455" departLane="free" arrivalSpeed="0.0"/>
  <flow id="JF186667" begin="60" fromJunction="J6" toJunction="J7" end="120" vehsPerHour="41.11368211045167" departLane="free" arrivalSpeed="0.0"/>
  <flow id="JF186668" begin="60" fromJunction="J7" toJunction="J3" end="120" vehsPerHour="55.047927100213464" departLane="free" arrivalSpeed="0.0"/>
  <flow id="JF186669" begin="60" fromJunction="J7" toJunction="J5" end="120" vehsPerHour="15.134166043868946" departLane="free" arrivalSpeed="0.0"/>
  <flow id="JF186670" begin="60" fromJunction="J7" toJunction="J6" end="120" vehsPerHour="52.478021652520106" departLane="free" arrivalSpeed="0.0"/>
  <flow id="JF186671" begin="120" fromJunction="J0" toJunction="J4" end="180" vehsPerHour="135.56146858556272" departLane="free" arrivalSpeed="0.0"/>
  <flow id="JF186672" begin="120" fromJunction="J0" toJunction="J5" end="180" vehsPerHour="32.649597266961116" departLane="free" arrivalSpeed="0.0"/>
  <flow id="JF186673" begin="120" fromJunction="J0" toJunction="J7" end="180" vehsPerHour="132.6261729965777" departLane="free" arrivalSpeed="0.0"/>
  <flow id="JF186674" begin="120" fromJunction="J3" toJunction="J0" end="180" vehsPerHour="98.17816528503788" departLane="free" arrivalSpeed="0.0"/>
  <flow id="JF186675" begin="120" fromJunction="J3" toJunction="J4" end="180" vehsPerHour="45.23231974297417" departLane="free" arrivalSpeed="0.0"/>
  <flow id="JF186676" begin="120" fromJunction="J3" toJunction="J5" end="180" vehsPerHour="99.26002771085388" departLane="free" arrivalSpeed="0.0"/>
  <flow id="JF186677" begin="120" fromJunction="J3" toJunction="J6" end="180" vehsPerHour="137.0597544465398" departLane="free" arrivalSpeed="0.0"/>
  <flow id="JF186678" begin="120" fromJunction="J4" toJunction="J5" end="180" vehsPerHour="66.8479372365553" departLane="free" arrivalSpeed="0.0"/>
  <flow id="JF186679" begin="120" fromJunction="J4" toJunction="J7" end="180" vehsPerHour="19.858285705993577" departLane="free" arrivalSpeed="0.0"/>
  <flow id="JF186680" begin="120" fromJunction="J5" toJunction="J0" end="180" vehsPerHour="1.6450919911712132" departLane="free" arrivalSpeed="0.0"/>
  <flow id="JF186681" begin="120" fromJunction="J5" toJunction="J3" end="180" vehsPerHour="60.654208080748894" departLane="free" arrivalSpeed="0.0"/>
  <flow id="JF186682" begin="120" fromJunction="J5" toJunction="J6" end="180" vehsPerHour="34.041620050877455" departLane="free" arrivalSpeed="0.0"/>
  <flow id="JF186683" begin="120" fromJunction="J5" toJunction="J7" end="180" vehsPerHour="37.9396873437874" departLane="free" arrivalSpeed="0.0"/>
  <flow id="JF186684" begin="120" fromJunction="J6" toJunction="J0" end="180" vehsPerHour="65.62944967012311" departLane="free" arrivalSpeed="0.0"/>
  <flow id="JF186685" begin="120" fromJunction="J6" toJunction="J3" end="180" vehsPerHour="47.079678578265785" departLane="free" arrivalSpeed="0.0"/>
  <flow id="JF186686" begin="120" fromJunction="J6" toJunction="J5" end="180" vehsPerHour="16.26295187713923" departLane="free" arrivalSpeed="0.0"/>
  <flow id="JF186687" begin="120" fromJunction="J6" toJunction="J7" end="180" vehsPerHour="62.38865949232048" departLane="free" arrivalSpeed="0.0"/>
  <flow id="JF186688" begin="120" fromJunction="J7" toJunction="J3" end="180" vehsPerHour="53.48152163962034" departLane="free" arrivalSpeed="0.0"/>
  <flow id="JF186689" begin="120" fromJunction="J7" toJunction="J4" end="180" vehsPerHour="37.23710389344546" departLane="free" arrivalSpeed="0.0"/>
  <flow id="JF186690" begin="120" fromJunction="J7" toJunction="J5" end="180" vehsPerHour="26.340267140323608" departLane="free" arrivalSpeed="0.0"/>
  <flow id="JF186691" begin="180" fromJunction="J0" toJunction="J4" end="240" vehsPerHour="108.86187206677026" departLane="free" arrivalSpeed="0.0"/>
  <flow id="JF186692" begin="180" fromJunction="J0" toJunction="J5" end="240" vehsPerHour="74.17664507006826" departLane="free" arrivalSpeed="0.0"/>
  <flow id="JF186693" begin="180" fromJunction="J0" toJunction="J6" end="240" vehsPerHour="99.59303476399297" departLane="free" arrivalSpeed="0.0"/>
  <flow id="JF186694" begin="180" fromJunction="J3" toJunction="J0" end="240" vehsPerHour="29.45245615926474" departLane="free" arrivalSpeed="0.0"/>
  <flow id="JF186695" begin="180" fromJunction="J3" toJunction="J6" end="240" vehsPerHour="92.2326961238309" departLane="free" arrivalSpeed="0.0"/>
  <flow id="JF186696" begin="180" fromJunction="J4" toJunction="J0" end="240" vehsPerHour="66.87998013515241" departLane="free" arrivalSpeed="0.0"/>
  <flow id="JF186697" begin="180" fromJunction="J4" toJunction="J3" end="240" vehsPerHour="30.272176270930057" departLane="free" arrivalSpeed="0.0"/>
  <flow id="JF186698" begin="180" fromJunction="J4" toJunction="J5" end="240" vehsPerHour="12.790775332587867" departLane="free" arrivalSpeed="0.0"/>
  <flow id="JF186699" begin="180" fromJunction="J4" toJunction="J6" end="240" vehsPerHour="67.30148960287173" departLane="free" arrivalSpeed="0.0"/>
  <flow id="JF186700" begin="180" fromJunction="J4" toJunction="J7" end="240" vehsPerHour="46.98638719061422" departLane="free" arrivalSpeed="0.0"/>
  <flow id="JF186701" begin="180" fromJunction="J5" toJunction="J0" end="240" vehsPerHour="55.465132947361546" departLane="free" arrivalSpeed="0.0"/>
  <flow id="JF186702" begin="180" fromJunction="J5" toJunction="J4" end="240" vehsPerHour="63.03000726930405" departLane="free" arrivalSpeed="0.0"/>
  <flow id="JF186703" begin="180" fromJunction="J5" toJunction="J7" end="240" vehsPerHour="39.199782505167605" departLane="free" arrivalSpeed="0.0"/>
  <flow id="JF186704" begin="180" fromJunction="J6" toJunction="J5" end="240" vehsPerHour="14.16678767608194" departLane="free" arrivalSpeed="0.0"/>
  <flow id="JF186705" begin="180" fromJunction="J6" toJunction="J7" end="240" vehsPerHour="53.01257026122159" departLane="free" arrivalSpeed="0.0"/>
  <flow id="JF186706" begin="180" fromJunction="J7" toJunction="J0" end="240" vehsPerHour="8.617194151079348" departLane="free" arrivalSpeed="0.0"/>
  <flow id="JF186707" begin="180" fromJunction="J7" toJunction="J4" end="240" vehsPerHour="22.503715615208947" departLane="free" arrivalSpeed="0.0"/>
  <flow id="JF186708" begin="180" fromJunction="J7" toJunction="J6" end="240" vehsPerHour="33.42851446279908" departLane="free" arrivalSpeed="0.0"/>
  <flow id="JF186709" begin="240" fromJunction="J0" toJunction="J3" end="300" vehsPerHour="64.93654333298387" departLane="free" arrivalSpeed="0.0"/>
  <flow id="JF186710" begin="240" fromJunction="J0" toJunction="J4" end="300" vehsPerHour="97.80820688716622" departLane="free" arrivalSpeed="0.0"/>
  <flow id="JF186711" begin="240" fromJunction="J0" toJunction="J5" end="300" vehsPerHour="110.28504609213951" departLane="free" arrivalSpeed="0.0"/>
  <flow id="JF186712" begin="240" fromJunction="J0" toJunction="J7" end="300" vehsPerHour="100.23237504950441" departLane="free" arrivalSpeed="0.0"/>
  <flow id="JF186713" begin="240" fromJunction="J3" toJunction="J4" end="300" vehsPerHour="63.678557758338464" departLane="free" arrivalSpeed="0.0"/>
  <flow id="JF186714" begin="240" fromJunction="J3" toJunction="J6" end="300" vehsPerHour="108.31745769660512" departLane="free" arrivalSpeed="0.0"/>
  <flow id="JF186715" begin="240" fromJunction="J4" toJunction="J0" end="300" vehsPerHour="7.739534330781116" departLane="free" arrivalSpeed="0.0"/>
  <flow id="JF186716" begin="240" fromJunction="J4" toJunction="J3" end="300" vehsPerHour="38.21764585682385" departLane="free" arrivalSpeed="0.0"/>
  <flow id="JF186717" begin="240" fromJunction="J4" toJunction="J5" end="300" vehsPerHour="55.4225122763697" departLane="free" arrivalSpeed="0.0"/>
  <flow id="JF186718" begin="240" fromJunction="J4" toJunction="J6" end="300" vehsPerHour="4.627517285273825" departLane="free" arrivalSpeed="0.0"/>
  <flow id="JF186719" begin="240" fromJunction="J4" toJunction="J7" end="300" vehsPerHour="19.55978736183163" departLane="free" arrivalSpeed="0.0"/>
  <flow id="JF186720" begin="240" fromJunction="J5" toJunction="J0" end="300" vehsPerHour="23.48841860791794" departLane="free" arrivalSpeed="0.0"/>
  <flow id="JF186721" begin="240" fromJunction="J5" toJunction="J3" end="300" vehsPerHour="20.583742359236737" departLane="free" arrivalSpeed="0.0"/>
  <flow id="JF186722" begin="240" fromJunction="J5" toJunction="J6" end="300" vehsPerHour="59.27186591858159" departLane="free" arrivalSpeed="0.0"/>
  <flow id="JF186723" begin="240" fromJunction="J5" toJunction="J7" end="300" vehsPerHour="32.02081328193397" departLane="free" arrivalSpeed="0.0"/>
  <flow id="JF186724" begin="240" fromJunction="J6" toJunction="J3" end="300" vehsPerHour="22.744488709741255" departLane="free" arrivalSpeed="0.0"/>
  <flow id="JF186725" begin="240" fromJunction="J6" toJunction="J5" end="300" vehsPerHour="35.25112957854815" departLane="free" arrivalSpeed="0.0"/>
  <flow id="JF186726" begin="240" fromJunction="J6" toJunction="J7" end="300" vehsPerHour="24.304542081972755" departLane="free" arrivalSpeed="0.0"/>
  <flow id="JF186727" begin="240" fromJunction="J7" toJunction="J0" end="300" vehsPerHour="2.0072696788767006" departLane="free" arrivalSpeed="0.0"/>
  <flow id="JF186728" begin="240" fromJunction="J7" toJunction="J3" end="300" vehsPerHour="66.76795126306598" departLane="free" arrivalSpeed="0.0"/>
  <flow id="JF186729" begin="240" fromJunction="J7" toJunction="J4" end="300" vehsPerHour="3.0184145337146844" departLane="free" arrivalSpeed="0.0"/>
  <flow id="JF186730" begin="240" fromJunction="J7" toJunction="J5" end="300" vehsPerHour="60.086932776954875" departLane="free" arrivalSpeed="0.0"/>
  <flow id="JF186731" begin="240" fromJunction="J7" toJunction="J6" end="300" vehsPerHour="32.35475180426322" departLane="free" arrivalSpeed="0.0"/>
  <flow id="JF186732" begin="300" fromJunction="J0" toJunction="J3" end="360" vehsPerHour="38.77017809961009" departLane="free" arrivalSpeed="0.0"/>
  <flow id="JF186733" begin="300" fromJunction="J0" toJunction="J6" end="360" vehsPerHour="39.3531248379144" departLane="free" arrivalSpeed="0.0"/>
  <flow id="JF186734" begin="300" fromJunction="J3" toJunction="J0" end="360" vehsPerHour="24.237031562237437" departLane="free" arrivalSpeed="0.0"/>
  <flow id="JF186735" begin="300" fromJunction="J3" toJunction="J4" end="360" vehsPerHour="118.69117432419169" departLane="free" arrivalSpeed="0.0"/>
  <flow id="JF186736" begin="300" fromJunction="J3" toJunction="J5" end="360" vehsPerHour="121.19790374495584" departLane="free" arrivalSpeed="0.0"/>
  <flow id="JF186737" begin="300" fromJunction="J3" toJunction="J6" end="360" vehsPerHour="74.64735784410449" departLane="free" arrivalSpeed="0.0"/>
  <flow id="JF186738" begin="300" fromJunction="J3" toJunction="J7" end="360" vehsPerHour="37.49369590337776" departLane="free" arrivalSpeed="0.0"/>
  <flow id="JF186739" begin="300" fromJunction="J4" toJunction="J0" end="360" vehsPerHour="64.6092901993728" departLane="free" arrivalSpeed="0.0"/>
  <flow id="JF186740" begin="300" fromJunction="J4" toJunction="J5" end="360" vehsPerHour="6.431018892125266" departLane="free" arrivalSpeed="0.0"/>
  <flow id="JF186741" begin="300" fromJunction="J4" toJunction="J6" end="360" vehsPerHour="3.153227239378437" departLane="free" arrivalSpeed="0.0"/>
  <flow id="JF186742" begin="300" fromJunction="J5" toJunction="J7" end="360" vehsPerHour="3.563392931616513" departLane="free" arrivalSpeed="0.0"/>
  <flow id="JF186743" begin="300" fromJunction="J6" toJunction="J0" end="360" vehsPerHour="3.2419131219140294" departLane="free" arrivalSpeed="0.0"/>
  <flow id="JF186744" begin="300" fromJunction="J6" toJunction="J3" end="360" vehsPerHour="25.355416540314025" departLane="free" arrivalSpeed="0.0"/>
  <flow id="JF186745" begin="300" fromJunction="J6" toJunction="J4" end="360" vehsPerHour="21.272400464259004" departLane="free" arrivalSpeed="0.0"/>
  <flow id="JF186746" begin="300" fromJunction="J7" toJunction="J0" end="360" vehsPerHour="60.17213280319116" departLane="free" arrivalSpeed="0.0"/>
  <flow id="JF186747" begin="300" fromJunction="J7" toJunction="J3" end="360" vehsPerHour="61.126870754784065" departLane="free" arrivalSpeed="0.0"/>
  <flow id="JF186748" begin="300" fromJunction="J7" toJunction="J4" end="360" vehsPerHour="16.334493019286008" departLane="free" arrivalSpeed="0.0"/>
  <flow id="JF186749" begin="300" fromJunction="J7" toJunction="J5" end="360" vehsPerHour="35.395995738118295" departLane="free" arrivalSpeed="0.0"/>
  <flow id="JF186750" begin="360" fromJunction="J0" toJunction="J3" end="420" vehsPerHour="134.60303458048332" departLane="free" arrivalSpeed="0.0"/>
  <flow id="JF186751" begin="360" fromJunction="J0" toJunction="J4" end="420" vehsPerHour="120.34655842419491" departLane="free" arrivalSpeed="0.0"/>
  <flow id="JF186752" begin="360" fromJunction="J0" toJunction="J5" end="420" vehsPerHour="27.35901119729825" departLane="free" arrivalSpeed="0.0"/>
  <flow id="JF186753" begin="360" fromJunction="J0" toJunction="J6" end="420" vehsPerHour="101.81175019369026" departLane="free" arrivalSpeed="0.0"/>
  <flow id="JF186754" begin="360" fromJunction="J3" toJunction="J0" end="420" vehsPerHour="94.42348423290771" departLane="free" arrivalSpeed="0.0"/>
  <flow id="JF186755" begin="360" fromJunction="J3" toJunction="J4" end="420" vehsPerHour="90.90292701241135" departLane="free" arrivalSpeed="0.0"/>
  <flow id="JF186756" begin="360" fromJunction="J3" toJunction="J5" end="420" vehsPerHour="73.71545899089092" departLane="free" arrivalSpeed="0.0"/>
  <flow id="JF186757" begin="360" fromJunction="J3" toJunction="J6" end="420" vehsPerHour="60.28807985252183" departLane="free" arrivalSpeed="0.0"/>
  <flow id="JF186758" begin="360" fromJunction="J3" toJunction="J7" end="420" vehsPerHour="126.33294574118699" departLane="free" arrivalSpeed="0.0"/>
  <flow id="JF186759" begin="360" fromJunction="J4" toJunction="J0" end="420" vehsPerHour="26.72382237024285" departLane="free" arrivalSpeed="0.0"/>
  <flow id="JF186760" begin="360" fromJunction="J4" toJunction="J5" end="420" vehsPerHour="1.8546440640813915" departLane="free" arrivalSpeed="0.0"/>
  <flow id="JF186761" begin="360" fromJunction="J4" toJunction="J6" end="420" vehsPerHour="55.97440899738653" departLane="free" arrivalSpeed="0.0"/>
  <flow id="JF186762" begin="360" fromJunction="J5" toJunction="J0" end="420" vehsPerHour="37.944882758841445" departLane="free" arrivalSpeed="0.0"/>
  <flow id="JF186763" begin="360" fromJunction="J5" toJunction="J3" end="420" vehsPerHour="20.55826217969505" departLane="free" arrivalSpeed="0.0"/>
  <flow id="JF186764" begin="360" fromJunction="J5" toJunction="J4" end="420" vehsPerHour="12.108496334676106" departLane="free" arrivalSpeed="0.0"/>
  <flow id="JF186765" begin="360" fromJunction="J5" toJunction="J6" end="420" vehsPerHour="10.358537194983377" departLane="free" arrivalSpeed="0.0"/>
  <flow id="JF186766" begin="360" fromJunction="J6" toJunction="J5" end="420" vehsPerHour="49.762616967602945" departLane="free" arrivalSpeed="0.0"/>
  <flow id="JF186767" begin="360" fromJunction="J7" toJunction="J0" end="420" vehsPerHour="51.508065863608344" departLane="free" arrivalSpeed="0.0"/>
  <flow id="JF186768" begin="360" fromJunction="J7" toJunction="J6" end="420" vehsPerHour="31.852495941874157" departLane="free" arrivalSpeed="0.0"/>
  <flow id="JF186769" begin="420" fromJunction="J0" toJunction="J3" end="480" vehsPerHour="129.19397182843298" departLane="free" arrivalSpeed="0.0"/>
  <flow id="JF186770" begin="420" fromJunction="J0" toJunction="J5" end="480" vehsPerHour="120.83861360119083" departLane="free" arrivalSpeed="0.0"/>
  <flow id="JF186771" begin="420" fromJunction="J0" toJunction="J6" end="480" vehsPerHour="66.52647776358685" departLane="free" arrivalSpeed="0.0"/>
  <flow id="JF186772" begin="420" fromJunction="J0" toJunction="J7" end="480" vehsPerHour="105.67449327177023" departLane="free" arrivalSpeed="0.0"/>
  <flow id="JF186773" begin="420" fromJunction="J3" toJunction="J6" end="480" vehsPerHour="120.77406299633564" departLane="free" arrivalSpeed="0.0"/>
  <flow id="JF186774" begin="420" fromJunction="J4" toJunction="J0" end="480" vehsPerHour="39.34360528220931" departLane="free" arrivalSpeed="0.0"/>
  <flow id="JF186775" begin="420" fromJunction="J4" toJunction="J3" end="480" vehsPerHour="34.45804930342806" departLane="free" arrivalSpeed="0.0"/>
  <flow id="JF186776" begin="420" fromJunction="J4" toJunction="J5" end="480" vehsPerHour="35.5176682563416" departLane="free" arrivalSpeed="0.0"/>
  <flow id="JF186777" begin="420" fromJunction="J4" toJunction="J7" end="480" vehsPerHour="18.23735807283952" departLane="free" arrivalSpeed="0.0"/>
  <flow id="JF186778" begin="420" fromJunction="J5" toJunction="J0" end="480" vehsPerHour="27.70484564506085" departLane="free" arrivalSpeed="0.0"/>
  <flow id="JF186779" begin="420" fromJunction="J5" toJunction="J3" end="480" vehsPerHour="14.038101189847765" departLane="free" arrivalSpeed="0.0"/>
  <flow id="JF186780" begin="420" fromJunction="J5" toJunction="J4" end="480" vehsPerHour="68.57906276711238" departLane="free" arrivalSpeed="0.0"/>
  <flow id="JF186781" begin="420" fromJunction="J5" toJunction="J7" end="480" vehsPerHour="63.852847945908366" departLane="free" arrivalSpeed="0.0"/>
  <flow id="JF186782" begin="420" fromJunction="J6" toJunction="J3" end="480" vehsPerHour="23.738626780980926" departLane="free" arrivalSpeed="0.0"/>
  <flow id="JF186783" begin="420" fromJunction="J6" toJunction="J4" end="480" vehsPerHour="63.27759872102531" departLane="free" arrivalSpeed="0.0"/>
  <flow id="JF186784" begin="420" fromJunction="J6" toJunction="J5" end="480" vehsPerHour="6.2110737727687475" departLane="free" arrivalSpeed="0.0"/>
  <flow id="JF186785" begin="420" fromJunction="J7" toJunction="J0" end="480" vehsPerHour="11.95663900105288" departLane="free" arrivalSpeed="0.0"/>
  <flow id="JF186786" begin="420" fromJunction="J7" toJunction="J3" end="480" vehsPerHour="40.625745439180776" departLane="free" arrivalSpeed="0.0"/>
  <flow id="JF186787" begin="420" fromJunction="J7" toJunction="J5" end="480" vehsPerHour="45.12189423719566" departLane="free" arrivalSpeed="0.0"/>
  <flow id="JF186788" begin="420" fromJunction="J7" toJunction="J6" end="480" vehsPerHour="35.49509239303829" departLane="free" arrivalSpeed="0.0"/>
  <flow id="JF186789" begin="480" fromJunction="J0" toJunction="J4" end="540" vehsPerHour="91.2162332876601" departLane="free" arrivalSpeed="0.0"/>
  <flow id="JF186790" begin="480" fromJunction="J0" toJunction="J6" end="540" vehsPerHour="29.351533911992767" departLane="free" arrivalSpeed="0.0"/>
  <flow id="JF186791" begin="480" fromJunction="J0" toJunction="J7" end="540" vehsPerHour="136.36429320442537" departLane="free" arrivalSpeed="0.0"/>
  <flow id="JF186792" begin="480" fromJunction="J3" toJunction="J0" end="540" vehsPerHour="129.800604593639" departLane="free" arrivalSpeed="0.0"/>
  <flow id="JF186793" begin="480" fromJunction="J3" toJunction="J4" end="540" vehsPerHour="29.22115202937862" departLane="free" arrivalSpeed="0.0"/>
  <flow id="JF186794" begin="480" fromJunction="J3" toJunction="J5" end="540" vehsPerHour="94.08193445195008" departLane="free" arrivalSpeed="0.0"/>
  <flow id="JF186795" begin="480" fromJunction="J3" toJunction="J6" end="540" vehsPerHour="50.436117899542396" departLane="free" arrivalSpeed="0.0"/>
  <flow id="JF186796" begin="480" fromJunction="J3" toJunction="J7" end="540" vehsPerHour="135.18880012528427" departLane="free" arrivalSpeed="0.0"/>
  <flow id="JF186797" begin="480" fromJunction="J4" toJunction="J3" end="540" vehsPerHour="43.16261581557611" departLane="free" arrivalSpeed="0.0"/>
  <flow id="JF186798" begin="480" fromJunction="J4" toJunction="J5" end="540" vehsPerHour="51.351243039495365" departLane="free" arrivalSpeed="0.0"/>
  <flow id="JF186799" begin="480" fromJunction="J4" toJunction="J6" end="540" vehsPerHour="68.49665031138429" departLane="free" arrivalSpeed="0.0"/>
  <flow id="JF186800" begin="480" fromJunction="J4" toJunction="J7" end="540" vehsPerHour="41.00113266081032" departLane="free" arrivalSpeed="0.0"/>
  <flow id="JF186801" begin="480" fromJunction="J5" toJunction="J0" end="540" vehsPerHour="32.46238679537392" departLane="free" arrivalSpeed="0.0"/>
  <flow id="JF186802" begin="480" fromJunction="J5" toJunction="J3" end="540" vehsPerHour="1.6400584564148781" departLane="free" arrivalSpeed="0.0"/>
  <flow id="JF186803" begin="480" fromJunction="J5" toJunction="J4" end="540" vehsPerHour="16.395446679837512" departLane="free" arrivalSpeed="0.0"/>
  <flow id="JF186804" begin="480" fromJunction="J5" toJunction="J6" end="540" vehsPerHour="45.29229344576211" departLane="free" arrivalSpeed="0.0"/>
  <flow id="JF186805" begin="480" fromJunction="J5" toJunction="J7" end="540" vehsPerHour="19.97387713466006" departLane="free" arrivalSpeed="0.0"/>
  <flow id="JF186806" begin="480" fromJunction="J6" toJunction="J0" end="540" vehsPerHour="52.914307618087115" departLane="free" arrivalSpeed="0.0"/>
  <flow id="JF186807" begin="480" fromJunction="J6" toJunction="J4" end="540" vehsPerHour="27.94828802990204" departLane="free" arrivalSpeed="0.0"/>
  <flow id="JF186808" begin="480" fromJunction="J6" toJunction="J5" end="540" vehsPerHour="44.13239501822327" departLane="free" arrivalSpeed="0.0"/>
  <flow id="JF186809" begin="480" fromJunction="J6" toJunction="J7" end="540" vehsPerHour="44.15448298290093" departLane="free" arrivalSpeed="0.0"/>
  <flow id="JF186810" begin="480" fromJunction="J7" toJunction="J0" end="540" vehsPerHour="54.80651619946759" departLane="free" arrivalSpeed="0.0"/>
  <flow id="JF186811" begin="480" fromJunction="J7" toJunction="J3" end="540" vehsPerHour="42.68053335196513" departLane="free" arrivalSpeed="0.0"/>
  <flow id="JF186812" begin="480" fromJunction="J7" toJunction="J6" end="540" vehsPerHour="40.89925208844581" departLane="free" arrivalSpeed="0.0"/>
  <flow id="JF186813" begin="540" fromJunction="J0" toJunction="J3" end="600" vehsPerHour="60.221079210971496" departLane="free" arrivalSpeed="0.0"/>
  <flow id="JF186814" begin="540" fromJunction="J0" toJunction="J6" end="600" vehsPerHour="100.84693736789039" departLane="free" arrivalSpeed="0.0"/>
  <flow id="JF186815" begin="540" fromJunction="J0" toJunction="J7" end="600" vehsPerHour="110.69208633990209" departLane="free" arrivalSpeed="0.0"/>
  <flow id="JF186816" begin="540" fromJunction="J3" toJunction="J0" end="600" vehsPerHour="85.85354106340748" departLane="free" arrivalSpeed="0.0"/>
  <flow id="JF186817" begin="540" fromJunction="J3" toJunction="J4" end="600" vehsPerHour="20.606931298662428" departLane="free" arrivalSpeed="0.0"/>
  <flow id="JF186818" begin="540" fromJunction="J3" toJunction="J5" end="600" vehsPerHour="76.89148335795247" departLane="free" arrivalSpeed="0.0"/>
  <flow id="JF186819" begin="540" fromJunction="J3" toJunction="J6" end="600" vehsPerHour="2.588873542855992" departLane="free" arrivalSpeed="0.0"/>
  <flow id="JF186820" begin="540" fromJunction="J4" toJunction="J0" end="600" vehsPerHour="48.04502196535084" departLane="free" arrivalSpeed="0.0"/>
  <flow id="JF186821" begin="540" fromJunction="J4" toJunction="J3" end="600" vehsPerHour="29.10394032671088" departLane="free" arrivalSpeed="0.0"/>
  <flow id="JF186822" begin="540" fromJunction="J4" toJunction="J5" end="600" vehsPerHour="66.86573941294327" departLane="free" arrivalSpeed="0.0"/>
  <flow id="JF186823" begin="540" fromJunction="J4" toJunction="J6" end="600" vehsPerHour="7.188374926031366" departLane="free" arrivalSpeed="0.0"/>
  <flow id="JF186824" begin="540" fromJunction="J4" toJunction="J7" end="600" vehsPerHour="8.458039449341861" departLane="free" arrivalSpeed="0.0"/>
  <flow id="JF186825" begin="540" fromJunction="J5" toJunction="J4" end="600" vehsPerHour="63.669049459603194" departLane="free" arrivalSpeed="0.0"/>
  <flow id="JF186826" begin="540" fromJunction="J6" toJunction="J3" end="600" vehsPerHour="16.40997775289526" departLane="free" arrivalSpeed="0.0"/>
  <flow id="JF186827" begin="540" fromJunction="J6" toJunction="J4" end="600" vehsPerHour="7.567459398155091" departLane="free" arrivalSpeed="0.0"/>
  <flow id="JF186828" begin="540" fromJunction="J6" toJunction="J5" end="600" vehsPerHour="42.468459263265146" departLane="free" arrivalSpeed="0.0"/>
  <flow id="JF186829" begin="540" fromJunction="J6" toJunction="J7" end="600" vehsPerHour="58.01245845625481" departLane="free" arrivalSpeed="0.0"/>
  <flow id="JF186830" begin="540" fromJunction="J7" toJunction="J0" end="600" vehsPerHour="62.6360458984903" departLane="free" arrivalSpeed="0.0"/>
  <flow id="JF186831" begin="540" fromJunction="J7" toJunction="J3" end="600" vehsPerHour="60.087564909254695" departLane="free" arrivalSpeed="0.0"/>