<?xml version="1.0" encoding="UTF-8"?>
<routes xmlns:xsi="http://www.w3.org/2001/XMLSchema-instance" xsi:noNamespaceSchemaLocation="http://sumo.dlr.de/xsd/routes_file.xsd">
  <flow id="JF190118" begin="0" fromJunction="J0" toJunction="J3" end="60" vehsPerHour="119.77651265026053" departLane="free" arrivalSpeed="0.0"/>
  <flow id="JF190119" begin="0" fromJunction="J0" toJunction="J4" end="60" vehsPerHour="136.56269971744763" departLane="free" arrivalSpeed="0.0"/>
  <flow id="JF190120" begin="0" fromJunction="J0" toJunction="J5" end="60" vehsPerHour="136.5152095031344" departLane="free" arrivalSpeed="0.0"/>
  <flow id="JF190121" begin="0" fromJunction="J0" toJunction="J7" end="60" vehsPerHour="117.78897604788934" departLane="free" arrivalSpeed="0.0"/>
  <flow id="JF190122" begin="0" fromJunction="J3" toJunction="J0" end="60" vehsPerHour="100.38037642388821" departLane="free" arrivalSpeed="0.0"/>
  <flow id="JF190123" begin="0" fromJunction="J3" toJunction="J6" end="60" vehsPerHour="59.905297589877044" departLane="free" arrivalSpeed="0.0"/>
  <flow id="JF190124" begin="0" fromJunction="J3" toJunction="J7" end="60" vehsPerHour="29.15836288083625" departLane="free" arrivalSpeed="0.0"/>
  <flow id="JF190125" begin="0" fromJunction="J4" toJunction="J0" end="60" vehsPerHour="16.78688349965356" departLane="free" arrivalSpeed="0.0"/>
  <flow id="JF190126" begin="0" fromJunction="J4" toJunction="J3" end="60" vehsPerHour="45.298208432245076" departLane="free" arrivalSpeed="0.0"/>
  <flow id="JF190127" begin="0" fromJunction="J4" toJunction="J5" end="60" vehsPerHour="34.066121566839314" departLane="free" arrivalSpeed="0.0"/>
  <flow id="JF190128" begin="0" fromJunction="J4" toJunction="J6" end="60" vehsPerHour="37.389133115798835" departLane="free" arrivalSpeed="0.0"/>
  <flow id="JF190129" begin="0" fromJunction="J4" toJunction="J7" end="60" vehsPerHour="60.42796238556325" departLane="free" arrivalSpeed="0.0"/>
  <flow id="JF190130" begin="0" fromJunction="J5" toJunction="J0" end="60" vehsPerHour="19.77313328401317" departLane="free" arrivalSpeed="0.0"/>
  <flow id="JF190131" begin="0" fromJunction="J5" toJunction="J3" end="60" vehsPerHour="36.02059928341394" departLane="free" arrivalSpeed="0.0"/>
  <flow id="JF190132" begin="0" fromJunction="J5" toJunction="J4" end="60" vehsPerHour="66.28570300305933" departLane="free" arrivalSpeed="0.0"/>
  <flow id="JF190133" begin="0" fromJunction="J5" toJunction="J6" end="60" vehsPerHour="63.453961459452664" departLane="free" arrivalSpeed="0.0"/>
  <flow id="JF190134" begin="0" fromJunction="J6" toJunction="J0" end="60" vehsPerHour="50.248791928887236" departLane="free" arrivalSpeed="0.0"/>
  <flow id="JF190135" begin="0" fromJunction="J6" toJunction="J3" end="60" vehsPerHour="60.35577316930318" departLane="free" arrivalSpeed="0.0"/>
  <flow id="JF190136" begin="0" fromJunction="J6" toJunction="J4" end="60" vehsPerHour="35.81151264253803" departLane="free" arrivalSpeed="0.0"/>
  <flow id="JF190137" begin="0" fromJunction="J6" toJunction="J5" end="60" vehsPerHour="25.18357438174051" departLane="free" arrivalSpeed="0.0"/>
  <flow id="JF190138" begin="0" fromJunction="J6" toJunction="J7" end="60" vehsPerHour="7.445186443349355" departLane="free" arrivalSpeed="0.0"/>
  <flow id="JF190139" begin="0" fromJunction="J7" toJunction="J0" end="60" vehsPerHour="4.702272821020062" departLane="free" arrivalSpeed="0.0"/>
  <flow id="JF190140" begin="0" fromJunction="J7" toJunction="J5" end="60" vehsPerHour="47.979785489374365" departLane="free" arrivalSpeed="0.0"/>
  <flow id="JF190141" begin="60" fromJunction="J0" toJunction="J3" end="120" vehsPerHour="108.71463941850985" departLane="free" arrivalSpeed="0.0"/>
  <flow id="JF190142" begin="60" fromJunction="J0" toJunction="J4" end="120" vehsPerHour="131.45532369654484" departLane="free" arrivalSpeed="0.0"/>
  <flow id="JF190143" begin="60" fromJunction="J0" toJunction="J5" end="120" vehsPerHour="119.85666005175037" departLane="free" arrivalSpeed="0.0"/>
  <flow id="JF190144" begin="60" fromJunction="J0" toJunction="J6" end="120" vehsPerHour="13.349688974847195" departLane="free" arrivalSpeed="0.0"/>
  <flow id="JF190145" begin="60" fromJunction="J0" toJunction="J7" end="120" vehsPerHour="136.62609918400673" departLane="free" arrivalSpeed="0.0"/>
  <flow id="JF190146" begin="60" fromJunction="J3" toJunction="J0" end="120" vehsPerHour="65.3039366521433" departLane="free" arrivalSpeed="0.0"/>
  <flow id="JF190147" begin="60" fromJunction="J3" toJunction="J4" end="120" vehsPerHour="97.79627269527894" departLane="free" arrivalSpeed="0.0"/>
  <flow id="JF190148" begin="60" fromJunction="J3" toJunction="J6" end="120" vehsPerHour="27.197389179308196" departLane="free" arrivalSpeed="0.0"/>
  <flow id="JF190149" begin="60" fromJunction="J4" toJunction="J5" end="120" vehsPerHour="16.570320132685342" departLane="free" arrivalSpeed="0.0"/>
  <flow id="JF190150" begin="60" fromJunction="J4" toJunction="J7" end="120" vehsPerHour="52.692063958495076" departLane="free" arrivalSpeed="0.0"/>
  <flow id="JF190151" begin="60" fromJunction="J5" toJunction="J0" end="120" vehsPerHour="25.398536310257434" departLane="free" arrivalSpeed="0.0"/>
  <flow id="JF190152" begin="60" fromJunction="J5" toJunction="J3" end="120" vehsPerHour="43.19853113162938" departLane="free" arrivalSpeed="0.0"/>
  <flow id="JF190153" begin="60" fromJunction="J5" toJunction="J4" end="120" vehsPerHour="50.94724661909223" departLane="free" arrivalSpeed="0.0"/>
  <flow id="JF190154" begin="60" fromJunction="J5" toJunction="J6" end="120" vehsPerHour="60.51210916795648" departLane="free" arrivalSpeed="0.0"/>
  <flow id="JF190155" begin="60" fromJunction="J5" toJunction="J7" end="120" vehsPerHour="68.26871680435463" departLane="free" arrivalSpeed="0.0"/>
  <flow id="JF190156" begin="60" fromJunction="J6" toJunction="J0" end="120" vehsPerHour="46.803640509009114" departLane="free" arrivalSpeed="0.0"/>
  <flow id="JF190157" begin="60" fromJunction="J6" toJunction="J3" end="120" vehsPerHour="10.312318035194643" departLane="free" arrivalSpeed="0.0"/>
  <flow id="JF190158" begin="60" fromJunction="J6" toJunction="J4" end="120" vehsPerHour="13.614307594142836" departLane="free" arrivalSpeed="0.0"/>
  <flow id="JF190159" begin="60" fromJunction="J6" toJunction="J5" end="120" vehsPerHour="33.51733469388393" departLane="free" arrivalSpeed="0.0"/>
  <flow id="JF190160" begin="60" fromJunction="J6" toJunction="J7" end="120" vehsPerHour="33.02707881285693" departLane="free" arrivalSpeed="0.0"/>
  <flow id="JF190161" begin="60" fromJunction="J7" toJunction="J0" end="120" vehsPerHour="44.306574768182486" departLane="free" arrivalSpeed="0.0"/>
  <flow id="JF190162" begin="60" fromJunction="J7" toJunction="J4" end="120" vehsPerHour="12.80493185953277" departLane="free" arrivalSpeed="0.0"/>
  <flow id="JF190163" begin="60" fromJunction="J7" toJunction="J5" end="120" vehsPerHour="62.35691163059119" departLane="free" arrivalSpeed="0.0"/>
  <flow id="JF190164" begin="60" fromJunction="J7" toJunction="J6" end="120" vehsPerHour="46.62306132926974" departLane="free" arrivalSpeed="0.0"/>
  <flow id="JF190165" begin="120" fromJunction="J0" toJunction="J3" end="180" vehsPerHour="69.62167974653997" departLane="free" arrivalSpeed="0.0"/>
  <flow id="JF190166" begin="120" fromJunction="J0" toJunction="J5" end="180" vehsPerHour="11.717664362731366" departLane="free" arrivalSpeed="0.0"/>
  <flow id="JF190167" begin="120" fromJunction="J0" toJunction="J6" end="180" vehsPerHour="127.73131789200767" departLane="free" arrivalSpeed="0.0"/>
  <flow id="JF190168" begin="120" fromJunction="J0" toJunction="J7" end="180" vehsPerHour="100.5237024723266" departLane="free" arrivalSpeed="0.0"/>
  <flow id="JF190169" begin="120" fromJunction="J3" toJunction="J0" end="180" vehsPerHour="106.23156730670567" departLane="free" arrivalSpeed="0.0"/>
  <flow id="JF190170" begin="120" fromJunction="J3" toJunction="J4" end="180" vehsPerHour="19.52690281454098" departLane="free" arrivalSpeed="0.0"/>
  <flow id="JF190171" begin="120" fromJunction="J3" toJunction="J5" end="180" vehsPerHour="6.277291403808804" departLane="free" arrivalSpeed="0.0"/>
  <flow id="JF190172" begin="120" fromJunction="J3" toJunction="J6" end="180" vehsPerHour="11.83298530944038" departLane="free" arrivalSpeed="0.0"/>
  <flow id="JF190173" begin="120" fromJunction="J3" toJunction="J7" end="180" vehsPerHour="1.3391901885111253" departLane="free" arrivalSpeed="0.0"/>
  <flow id="JF190174" begin="120" fromJunction="J4" toJunction="J0" end="180" vehsPerHour="48.86377469970147" departLane="free" arrivalSpeed="0.0"/>
  <flow id="JF190175" begin="120" fromJunction="J4" toJunction="J5" end="180" vehsPerHour="63.81214870785503" departLane="free" arrivalSpeed="0.0"/>
  <flow id="JF190176" begin="120" fromJunction="J4" toJunction="J6" end="180" vehsPerHour="19.704645414871877" departLane="free" arrivalSpeed="0.0"/>
  <flow id="JF190177" begin="120" fromJunction="J5" toJunction="J3" end="180" vehsPerHour="8.763044982961464" departLane="free" arrivalSpeed="0.0"/>
  <flow id="JF190178" begin="120" fromJunction="J5" toJunction="J4" end="180" vehsPerHour="9.310086970205967" departLane="free" arrivalSpeed="0.0"/>
  <flow id="JF190179" begin="120" fromJunction="J5" toJunction="J6" end="180" vehsPerHour="40.583587558618625" departLane="free" arrivalSpeed="0.0"/>
  <flow id="JF190180" begin="120" fromJunction="J5" toJunction="J7" end="180" vehsPerHour="15.525902616444737" departLane="free" arrivalSpeed="0.0"/>
  <flow id="JF190181" begin="120" fromJunction="J6" toJunction="J3" end="180" vehsPerHour="64.78465608820758" departLane="free" arrivalSpeed="0.0"/>
  <flow id="JF190182" begin="120" fromJunction="J6" toJunction="J4" end="180" vehsPerHour="60.38787854585402" departLane="free" arrivalSpeed="0.0"/>
  <flow id="JF190183" begin="120" fromJunction="J6" toJunction="J5" end="180" vehsPerHour="6.783000924741089" departLane="free" arrivalSpeed="0.0"/>
  <flow id="JF190184" begin="120" fromJunction="J6" toJunction="J7" end="180" vehsPerHour="21.68756990869205" departLane="free" arrivalSpeed="0.0"/>
  <flow id="JF190185" begin="120" fromJunction="J7" toJunction="J0" end="180" vehsPerHour="9.91434806873495" departLane="free" arrivalSpeed="0.0"/>
  <flow id="JF190186" begin="120" fromJunction="J7" toJunction="J3" end="180" vehsPerHour="27.515099222801346" departLane="free" arrivalSpeed="0.0"/>
  <flow id="JF190187" begin="120" fromJunction="J7" toJunction="J5" end="180" vehsPerHour="31.91093633370273" departLane="free" arrivalSpeed="0.0"/>
  <flow id="JF190188" begin="120" fromJunction="J7" toJunction="J6" end="180" vehsPerHour="66.25135592829719" departLane="free" arrivalSpeed="0.0"/>
  <flow id="JF190189" begin="180" fromJunction="J0" toJunction="J3" end="240" vehsPerHour="99.8566308216191" departLane="free" arrivalSpeed="0.0"/>
  <flow id="JF190190" begin="180" fromJunction="J0" toJunction="J5" end="240" vehsPerHour="95.91063669745901" departLane="free" arrivalSpeed="0.0"/>
  <flow id="JF190191" begin="180" fromJunction="J0" toJunction="J6" end="240" vehsPerHour="49.78687231922514" departLane="free" arrivalSpeed="0.0"/>
  <flow id="JF190192" begin="180" fromJunction="J0" toJunction="J7" end="240" vehsPerHour="81.63689997978746" departLane="free" arrivalSpeed="0.0"/>
  <flow id="JF190193" begin="180" fromJunction="J3" toJunction="J0" end="240" vehsPerHour="107.3754252541036" departLane="free" arrivalSpeed="0.0"/>
  <flow id="JF190194" begin="180" fromJunction="J3" toJunction="J4" end="240" vehsPerHour="53.954271112780056" departLane="free" arrivalSpeed="0.0"/>
  <flow id="JF190195" begin="180" fromJunction="J3" toJunction="J5" end="240" vehsPerHour="23.186629533791958" departLane="free" arrivalSpeed="0.0"/>
  <flow id="JF190196" begin="180" fromJunction="J3" toJunction="J6" end="240" vehsPerHour="60.374492560635936" departLane="free" arrivalSpeed="0.0"/>
  <flow id="JF190197" begin="180" fromJunction="J3" toJunction="J7" end="240" vehsPerHour="41.3923846247413" departLane="free" arrivalSpeed="0.0"/>
  <flow id="JF190198" begin="180" fromJunction="J4" toJunction="J0" end="240" vehsPerHour="8.783498541732092" departLane="free" arrivalSpeed="0.0"/>
  <flow id="JF190199" begin="180" fromJunction="J4" toJunction="J3" end="240" vehsPerHour="33.31369947785755" departLane="free" arrivalSpeed="0.0"/>
  <flow id="JF190200" begin="180" fromJunction="J4" toJunction="J6" end="240" vehsPerHour="61.47739232499882" departLane="free" arrivalSpeed="0.0"/>
  <flow id="JF190201" begin="180" fromJunction="J4" toJunction="J7" end="240" vehsPerHour="63.39517962228168" departLane="free" arrivalSpeed="0.0"/>
  <flow id="JF190202" begin="180" fromJunction="J5" toJunction="J4" end="240" vehsPerHour="62.04393143733195" departLane="free" arrivalSpeed="0.0"/>
  <flow id="JF190203" begin="180" fromJunction="J5" toJunction="J7" end="240" vehsPerHour="44.65544488727301" departLane="free" arrivalSpeed="0.0"/>
  <flow id="JF190204" begin="180" fromJunction="J6" toJunction="J3" end="240" vehsPerHour="55.019715310191515" departLane="free" arrivalSpeed="0.0"/>
  <flow id="JF190205" begin="180" fromJunction="J6" toJunction="J4" end="240" vehsPerHour="17.00616984690976" departLane="free" arrivalSpeed="0.0"/>
  <flow id="JF190206" begin="180" fromJunction="J6" toJunction="J5" end="240" vehsPerHour="38.68276126615934" departLane="free" arrivalSpeed="0.0"/>
  <flow id="JF190207" begin="180" fromJunction="J7" toJunction="J3" end="240" vehsPerHour="46.52938225983842" departLane="free" arrivalSpeed="0.0"/>
  <flow id="JF190208" begin="240" fromJunction="J0" toJunction="J5" end="300" vehsPerHour="117.15285238153328" departLane="free" arrivalSpeed="0.0"/>
  <flow id="JF190209" begin="240" fromJunction="J3" toJunction="J0" end="300" vehsPerHour="35.06999131009698" departLane="free" arrivalSpeed="0.0"/>
  <flow id="JF190210" begin="240" fromJunction="J3" toJunction="J4" end="300" vehsPerHour="40.44093739361394" departLane="free" arrivalSpeed="0.0"/>
  <flow id="JF190211" begin="240" fromJunction="J3" toJunction="J5" end="300" vehsPerHour="136.23976738898085" departLane="free" arrivalSpeed="0.0"/>
  <flow id="JF190212" begin="240" fromJunction="J3" toJunction="J6" end="300" vehsPerHour="84.0500687829792" departLane="free" arrivalSpeed="0.0"/>
  <flow id="JF190213" begin="240" fromJunction="J3" toJunction="J7" end="300" vehsPerHour="131.5547771683856" departLane="free" arrivalSpeed="0.0"/>
  <flow id="JF190214" begin="240" fromJunction="J4" toJunction="J0" end="300" vehsPerHour="25.407605987841936" departLane="free" arrivalSpeed="0.0"/>
  <flow id="JF190215" begin="240" fromJunction="J4" toJunction="J5" end="300" vehsPerHour="13.57849820252103" departLane="free" arrivalSpeed="0.0"/>
  <flow id="JF190216" begin="240" fromJunction="J4" toJunction="J7" end="300" vehsPerHour="6.7425175180331145" departLane="free" arrivalSpeed="0.0"/>
  <flow id="JF190217" begin="240" fromJunction="J5" toJunction="J0" end="300" vehsPerHour="37.31163106967215" departLane="free" arrivalSpeed="0.0"/>
  <flow id="JF190218" begin="240" fromJunction="J5" toJunction="J6" end="300" vehsPerHour="10.955523978267573" departLane="free" arrivalSpeed="0.0"/>
  <flow id="JF190219" begin="240" fromJunction="J5" toJunction="J7" end="300" vehsPerHour="31.974917271477235" departLane="free" arrivalSpeed="0.0"/>
  <flow id="JF190220" begin="240" fromJunction="J6" toJunction="J0" end="300" vehsPerHour="59.18358940831213" departLane="free" arrivalSpeed="0.0"/>
  <flow id="JF190221" begin="240" fromJunction="J6" toJunction="J4" end="300" vehsPerHour="34.13265661073499" departLane="free" arrivalSpeed="0.0"/>
  <flow id="JF190222" begin="240" fromJunction="J6" toJunction="J7" end="300" vehsPerHour="22.937837444352496" departLane="free" arrivalSpeed="0.0"/>
  <flow id="JF190223" begin="240" fromJunction="J7" toJunction="J5" end="300" vehsPerHour="35.04579958883362" departLane="free" arrivalSpeed="0.0"/>
  <flow id="JF190224" begin="240" fromJunction="J7" toJunction="J6" end="300" vehsPerHour="61.744682614865305" departLane="free" arrivalSpeed="0.0"/>
  <flow id="JF190225" begin="300" fromJunction="J0" toJunction="J3" end="360" vehsPerHour="69.98123255903079" departLane="free" arrivalSpeed="0.0"/>
  <flow id="JF190226" begin="300" fromJunction="J0" toJunction="J5" end="360" vehsPerHour="6.257811322620404" departLane="free" arrivalSpeed="0.0"/>
  <flow id="JF190227" begin="300" fromJunction="J3" toJunction="J4" end="360" vehsPerHour="22.310016813951595" departLane="free" arrivalSpeed="0.0"/>
  <flow id="JF190228" begin="300" fromJunction="J3" toJunction="J5" end="360" vehsPerHour="8.694213122223934" departLane="free" arrivalSpeed="0.0"/>
  <flow id="JF190229" begin="300" fromJunction="J3" toJunction="J6" end="360" vehsPerHour="14.440544275929076" departLane="free" arrivalSpeed="0.0"/>
  <flow id="JF190230" begin="300" fromJunction="J4" toJunction="J3" end="360" vehsPerHour="18.366084017656867" departLane="free" arrivalSpeed="0.0"/>
  <flow id="JF190231" begin="300" fromJunction="J4" toJunction="J5" end="360" vehsPerHour="17.208640581321493" departLane="free" arrivalSpeed="0.0"/>
  <flow id="JF190232" begin="300" fromJunction="J4" toJunction="J7" end="360" vehsPerHour="22.720741368969176" departLane="free" arrivalSpeed="0.0"/>
  <flow id="JF190233" begin="300" fromJunction="J5" toJunction="J0" end="360" vehsPerHour="64.92569107180654" departLane="free" arrivalSpeed="0.0"/>
  <flow id="JF190234" begin="300" fromJunction="J5" toJunction="J3" end="360" vehsPerHour="36.70149027886086" departLane="free" arrivalSpeed="0.0"/>
  <flow id="JF190235" begin="300" fromJunction="J5" toJunction="J4" end="360" vehsPerHour="7.267677406322156" departLane="free" arrivalSpeed="0.0"/>
  <flow id="JF190236" begin="300" fromJunction="J5" toJunction="J6" end="360" vehsPerHour="34.331573861860726" departLane="free" arrivalSpeed="0.0"/>
  <flow id="JF190237" begin="300" fromJunction="J5" toJunction="J7" end="360" vehsPerHour="30.707382954338133" departLane="free" arrivalSpeed="0.0"/>
  <flow id="JF190238" begin="300" fromJunction="J6" toJunction="J0" end="360" vehsPerHour="58.407368333692716" departLane="free" arrivalSpeed="0.0"/>
  <flow id="JF190239" begin="300" fromJunction="J6" toJunction="J5" end="360" vehsPerHour="33.85341530805166" departLane="free" arrivalSpeed="0.0"/>
  <flow id="JF190240" begin="300" fromJunction="J6" toJunction="J7" end="360" vehsPerHour="13.53456849690549" departLane="free" arrivalSpeed="0.0"/>
  <flow id="JF190241" begin="300" fromJunction="J7" toJunction="J4" end="360" vehsPerHour="67.95667771932108" departLane="free" arrivalSpeed="0.0"/>
  <flow id="JF190242" begin="300" fromJunction="J7" toJunction="J5" end="360" vehsPerHour="7.270143309330538" departLane="free" arrivalSpeed="0.0"/>
  <flow id="JF190243" begin="300" fromJunction="J7" toJunction="J6" end="360" vehsPerHour="24.307682113070413" departLane="free" arrivalSpeed="0.0"/>
  <flow id="JF190244" begin="360" fromJunction="J0" toJunction="J3" end="420" vehsPerHour="105.65581301613746" departLane="free" arrivalSpeed="0.0"/>
  <flow id="JF190245" begin="360" fromJunction="J0" toJunction="J4" end="420" vehsPerHour="14.36511926091409" departLane="free" arrivalSpeed="0.0"/>
  <flow id="JF190246" begin="360" fromJunction="J0" toJunction="J5" end="420" vehsPerHour="100.63892619720538" departLane="free" arrivalSpeed="0.0"/>
  <flow id="JF190247" begin="360" fromJunction="J0" toJunction="J7" end="420" vehsPerHour="24.31314110213675" departLane="free" arrivalSpeed="0.0"/>
  <flow id="JF190248" begin="360" fromJunction="J3" toJunction="J4" end="420" vehsPerHour="43.86622526560204" departLane="free" arrivalSpeed="0.0"/>
  <flow id="JF190249" begin="360" fromJunction="J3" toJunction="J5" end="420" vehsPerHour="88.48858158742411" departLane="free" arrivalSpeed="0.0"/>
  <flow id="JF190250" begin="360" fromJunction="J3" toJunction="J6" end="420" vehsPerHour="53.27874314950661" departLane="free" arrivalSpeed="0.0"/>
  <flow id="JF190251" begin="360" fromJunction="J3" toJunction="J7" end="420" vehsPerHour="63.78865919649556" departLane="free" arrivalSpeed="0.0"/>
  <flow id="JF190252" begin="360" fromJunction="J4" toJunction="J0" end="420" vehsPerHour="48.355937589537895" departLane="free" arrivalSpeed="0.0"/>
  <flow id="JF190253" begin="360" fromJunction="J4" toJunction="J5" end="420" vehsPerHour="1.0150126942909152" departLane="free" arrivalSpeed="0.0"/>
  <flow id="JF190254" begin="360" fromJunction="J4" toJunction="J7" end="420" vehsPerHour="1.7762728784736728" departLane="free" arrivalSpeed="0.0"/>
  <flow id="JF190255" begin="360" fromJunction="J5" toJunction="J3" end="420" vehsPerHour="58.858934618069256" departLane="free" arrivalSpeed="0.0"/>
  <flow id="JF190256" begin="360" fromJunction="J5" toJunction="J6" end="420" vehsPerHour="53.09227457461298" departLane="free" arrivalSpeed="0.0"/>
  <flow id="JF190257" begin="360" fromJunction="J5" toJunction="J7" end="420" vehsPerHour="35.75896060228757" departLane="free" arrivalSpeed="0.0"/>
  <flow id="JF190258" begin="360" fromJunction="J6" toJunction="J3" end="420" vehsPerHour="40.718404600947274" departLane="free" arrivalSpeed="0.0"/>
  <flow id="JF190259" begin="360" fromJunction="J6" toJunction="J4" end="420" vehsPerHour="2.968348263501069" departLane="free" arrivalSpeed="0.0"/>
  <flow id="JF190260" begin="360" fromJunction="J6" toJunction="J5" end="420" vehsPerHour="12.844986264848457" departLane="free" arrivalSpeed="0.0"/>
  <flow id="JF190261" begin="360" fromJunction="J7" toJunction="J0" end="420" vehsPerHour="60.80420413437334" departLane="free" arrivalSpeed="0.0"/>
  <flow id="JF190262" begin="360" fromJunction="J7" toJunction="J3" end="420" vehsPerHour="33.75318688989157" departLane="free" arrivalSpeed="0.0"/>
  <flow id="JF190263" begin="420" fromJunction="J0" toJunction="J3" end="480" vehsPerHour="93.79484220544569" departLane="free" arrivalSpeed="0.0"/>
  <flow id="JF190264" begin="420" fromJunction="J0" toJunction="J4" end="480" vehsPerHour="2.6666374594719535" departLane="free" arrivalSpeed="0.0"/>
  <flow id="JF190265" begin="420" fromJunction="J0" toJunction="J5" end="480" vehsPerHour="49.97489220783696" departLane="free" arrivalSpeed="0.0"/>
  <flow id="JF190266" begin="420" fromJunction="J0" toJunction="J6" end="480" vehsPerHour="81.91138854101386" departLane="free" arrivalSpeed="0.0"/>
  <flow id="JF190267" begin="420" fromJunction="J0" toJunction="J7" end="480" vehsPerHour="115.3068884533248" departLane="free" arrivalSpeed="0.0"/>
  <flow id="JF190268" begin="420" fromJunction="J3" toJunction="J0" end="480" vehsPerHour="118.93094348967841" departLane="free" arrivalSpeed="0.0"/>
  <flow id="JF190269" begin="420" fromJunction="J3" toJunction="J4" end="480" vehsPerHour="59.72510226893904" departLane="free" arrivalSpeed="0.0"/>
  <flow id="JF190270" begin="420" fromJunction="J3" toJunction="J5" end="480" vehsPerHour="132.56299035005657" departLane="free" arrivalSpeed="0.0"/>
  <flow id="JF190271" begin="420" fromJunction="J3" toJunction="J6" end="480" vehsPerHour="92.18394766361786" departLane="free" arrivalSpeed="0.0"/>
  <flow id="JF190272" begin="420" fromJunction="J3" toJunction="J7" end="480" vehsPerHour="53.20686827630737" departLane="free" arrivalSpeed="0.0"/>
  <flow id="JF190273" begin="420" fromJunction="J4" toJunction="J0" end="480" vehsPerHour="34.4582146573734" departLane="free" arrivalSpeed="0.0"/>
  <flow id="JF190274" begin="420" fromJunction="J4" toJunction="J3" end="480" vehsPerHour="25.87759872967117" departLane="free" arrivalSpeed="0.0"/>
  <flow id="JF190275" begin="420" fromJunction="J4" toJunction="J5" end="480" vehsPerHour="34.2046132316465" departLane="free" arrivalSpeed="0.0"/>
  <flow id="JF190276" begin="420" fromJunction="J4" toJunction="J6" end="480" vehsPerHour="31.998336222421752" departLane="free" arrivalSpeed="0.0"/>
  <flow id="JF190277" begin="420" fromJunction="J5" toJunction="J3" end="480" vehsPerHour="30.799436250606934" departLane="free" arrivalSpeed="0.0"/>
  <flow id="JF190278" begin="420" fromJunction="J5" toJunction="J4" end="480" vehsPerHour="18.90977711660165" departLane="free" arrivalSpeed="0.0"/>
  <flow id="JF190279" begin="420" fromJunction="J6" toJunction="J3" end="480" vehsPerHour="49.21599202054349" departLane="free" arrivalSpeed="0.0"/>
  <flow id="JF190280" begin="420" fromJunction="J6" toJunction="J4" end="480" vehsPerHour="15.627841419451414" departLane="free" arrivalSpeed="0.0"/>
  <flow id="JF190281" begin="420" fromJunction="J6" toJunction="J5" end="480" vehsPerHour="18.805553768662218" departLane="free" arrivalSpeed="0.0"/>
  <flow id="JF190282" begin="420" fromJunction="J6" toJunction="J7" end="480" vehsPerHour="23.923327009102433" departLane="free" arrivalSpeed="0.0"/>
  <flow id="JF190283" begin="420" fromJunction="J7" toJunction="J0" end="480" vehsPerHour="38.91307689976802" departLane="free" arrivalSpeed="0.0"/>
  <flow id="JF190284" begin="420" fromJunction="J7" toJunction="J4" end="480" vehsPerHour="11.212859703165044" departLane="free" arrivalSpeed="0.0"/>
  <flow id="JF190285" begin="420" fromJunction="J7" toJunction="J5" end="480" vehsPerHour="29.488874695939998" departLane="free" arrivalSpeed="0.0"/>
  <flow id="JF190286" begin="480" fromJunction="J0" toJunction="J3" end="540" vehsPerHour="28.888558783240196" departLane="free" arrivalSpeed="0.0"/>
  <flow id="JF190287" begin="480" fromJunction="J0" toJunction="J4" end="540" vehsPerHour="19.480047553112826" departLane="free" arrivalSpeed="0.0"/>
  <flow id="JF190288" begin="480" fromJunction="J0" toJunction="J5" end="540" vehsPerHour="55.99801533200101" departLane="free" arrivalSpeed="0.0"/>
  <flow id="JF190289" begin="480" fromJunction="J0" toJunction="J7" end="540" vehsPerHour="77.68667337651864" departLane="free" arrivalSpeed="0.0"/>
  <flow id="JF190290" begin="480" fromJunction="J3" toJunction="J6" end="540" vehsPerHour="125.83433820713704" departLane="free" arrivalSpeed="0.0"/>
  <flow id="JF190291" begin="480" fromJunction="J3" toJunction="J7" end="540" vehsPerHour="94.80022645456025" departLane="free" arrivalSpeed="0.0"/>
  <flow id="JF190292" begin="480" fromJunction="J4" toJunction="J0" end="540" vehsPerHour="56.49908924514897" departLane="free" arrivalSpeed="0.0"/>
  <flow id="JF190293" begin="480" fromJunction="J4" toJunction="J5" end="540" vehsPerHour="39.91618925622363" departLane="free" arrivalSpeed="0.0"/>
  <flow id="JF190294" begin="480" fromJunction="J4" toJunction="J7" end="540" vehsPerHour="17.2925854117196" departLane="free" arrivalSpeed="0.0"/>
  <flow id="JF190295" begin="480" fromJunction="J5" toJunction="J0" end="540" vehsPerHour="2.8628749636245403" departLane="free" arrivalSpeed="0.0"/>
  <flow id="JF190296" begin="480" fromJunction="J5" toJunction="J4" end="540" vehsPerHour="45.996514508291305" departLane="free" arrivalSpeed="0.0"/>
  <flow id="JF190297" begin="480" fromJunction="J5" toJunction="J7" end="540" vehsPerHour="58.05863876001461" departLane="free" arrivalSpeed="0.0"/>
  <flow id="JF190298" begin="480" fromJunction="J6" toJunction="J0" end="540" vehsPerHour="16.513282177221306" departLane="free" arrivalSpeed="0.0"/>
  <flow id="JF190299" begin="480" fromJunction="J6" toJunction="J3" end="540" vehsPerHour="39.61293599256181" departLane="free" arrivalSpeed="0.0"/>
  <flow id="JF190300" begin="480" fromJunction="J6" toJunction="J4" end="540" vehsPerHour="46.28212792610384" departLane="free" arrivalSpeed="0.0"/>
  <flow id="JF190301" begin="480" fromJunction="J6" toJunction="J7" end="540" vehsPerHour="22.997699821418177" departLane="free" arrivalSpeed="0.0"/>
  <flow id="JF190302" begin="480" fromJunction="J7" toJunction="J0" end="540" vehsPerHour="44.48406953301844" departLane="free" arrivalSpeed="0.0"/>
  <flow id="JF190303" begin="480" fromJunction="J7" toJunction="J3" end="540" vehsPerHour="28.417109291771236" departLane="free" arrivalSpeed="0.0"/>
  <flow id="JF190304" begin="480" fromJunction="J7" toJunction="J4" end="540" vehsPerHour="11.657305455993551" departLane="free" arrivalSpeed="0.0"/>
  <flow id="JF190305" begin="480" fromJunction="J7" toJunction="J6" end="540" vehsPerHour="52.15798761083788" departLane="free" arrivalSpeed="0.0"/>
  <flow id="JF190306" begin="540" fromJunction="J0" toJunction="J3" end="600" vehsPerHour="16.825721465384348" departLane="free" arrivalSpeed="0.0"/>
  <flow id="JF190307" begin="540" fromJunction="J0" toJunction="J4" end="600" vehsPerHour="16.04098954376476" departLane="free" arrivalSpeed="0.0"/>
  <flow id="JF190308" begin="540" fromJunction="J0" toJunction="J5" end="600" vehsPerHour="47.578989742923625" departLane="free" arrivalSpeed="0.0"/>
  <flow id="JF190309" begin="540" fromJunction="J0" toJunction="J6" end="600" vehsPerHour="85.0590769495426" departLane="free" arrivalSpeed="0.0"/>
  <flow id="JF190310" begin="540" fromJunction="J0" toJunction="J7" end="600" vehsPerHour="106.39339531971686" departLane="free" arrivalSpeed="0.0"/>
  <flow id="JF190311" begin="540" fromJunction="J3" toJunction="J0" end="600" vehsPerHour="1.2921046317621037" departLane="free" arrivalSpeed="0.0"/>
  <flow id="JF190312" begin="540" fromJunction="J3" toJunction="J4" end="600" vehsPerHour="55.98484993567669" departLane="free" arrivalSpeed="0.0"/>
  <flow id="JF190313" begin="540" fromJunction="J3" toJunction="J6" end="600" vehsPerHour="135.5897775205465" departLane="free" arrivalSpeed="0.0"/>
  <flow id="JF190314" begin="540" fromJunction="J3" toJunction="J7" end="600" vehsPerHour="118.33064347033611" departLane="free" arrivalSpeed="0.0"/>
  <flow id="JF190315" begin="540" fromJunction="J4" toJunction="J3" end="600" vehsPerHour="3.386304136126801" departLane="free" arrivalSpeed="0.0"/>
  <flow id="JF190316" begin="540" fromJunction="J4" toJunction="J7" end="600" vehsPerHour="11.558900938125928" departLane="free" arrivalSpeed="0.0"/>
  <flow id="JF190317" begin="540" fromJunction="J5" toJunction="J0" end="600" vehsPerHour="42.58745889797293" departLane="free" arrivalSpeed="0.0"/>