<?xml version="1.0" encoding="UTF-8"?>
<routes xmlns:xsi="http://www.w3.org/2001/XMLSchema-instance" xsi:noNamespaceSchemaLocation="http://sumo.dlr.de/xsd/routes_file.xsd">
  <flow id="JF193602" begin="0" fromJunction="J0" toJunction="J3" end="60" vehsPerHour="15.361158834791961" departLane="free" arrivalSpeed="0.0"/>
  <flow id="JF193603" begin="0" fromJunction="J0" toJunction="J4" end="60" vehsPerHour="109.72610696287735" departLane="free" arrivalSpeed="0.0"/>
  <flow id="JF193604" begin="0" fromJunction="J0" toJunction="J5" end="60" vehsPerHour="30.818883136995108" departLane="free" arrivalSpeed="0.0"/>
  <flow id="JF193605" begin="0" fromJunction="J0" toJunction="J6" end="60" vehsPerHour="134.72084108552093" departLane="free" arrivalSpeed="0.0"/>
  <flow id="JF193606" begin="0" fromJunction="J3" toJunction="J0" end="60" vehsPerHour="89.85370675188271" departLane="free" arrivalSpeed="0.0"/>
  <flow id="JF193607" begin="0" fromJunction="J3" toJunction="J4" end="60" vehsPerHour="126.16815789302792" departLane="free" arrivalSpeed="0.0"/>
  <flow id="JF193608" begin="0" fromJunction="J3" toJunction="J6" end="60" vehsPerHour="106.77839032013438" departLane="free" arrivalSpeed="0.0"/>
  <flow id="JF193609" begin="0" fromJunction="J3" toJunction="J7" end="60" vehsPerHour="50.6992977469729" departLane="free" arrivalSpeed="0.0"/>
  <flow id="JF193610" begin="0" fromJunction="J4" toJunction="J0" end="60" vehsPerHour="31.42951619833828" departLane="free" arrivalSpeed="0.0"/>
  <flow id="JF193611" begin="0" fromJunction="J4" toJunction="J3" end="60" vehsPerHour="1.7928001364029542" departLane="free" arrivalSpeed="0.0"/>
  <flow id="JF193612" begin="0" fromJunction="J4" toJunction="J5" end="60" vehsPerHour="56.85310736518312" departLane="free" arrivalSpeed="0.0"/>
  <flow id="JF193613" begin="0" fromJunction="J4" toJunction="J6" end="60" vehsPerHour="17.372092170526862" departLane="free" arrivalSpeed="0.0"/>
  <flow id="JF193614" begin="0" fromJunction="J4" toJunction="J7" end="60" vehsPerHour="56.08886336639975" departLane="free" arrivalSpeed="0.0"/>
  <flow id="JF193615" begin="0" fromJunction="J5" toJunction="J3" end="60" vehsPerHour="38.7395795298391" departLane="free" arrivalSpeed="0.0"/>
  <flow id="JF193616" begin="0" fromJunction="J5" toJunction="J4" end="60" vehsPerHour="42.51362177718001" departLane="free" arrivalSpeed="0.0"/>
  <flow id="JF193617" begin="0" fromJunction="J5" toJunction="J7" end="60" vehsPerHour="63.86232232634524" departLane="free" arrivalSpeed="0.0"/>
  <flow id="JF193618" begin="0" fromJunction="J6" toJunction="J0" end="60" vehsPerHour="49.98884005055923" departLane="free" arrivalSpeed="0.0"/>
  <flow id="JF193619" begin="0" fromJunction="J6" toJunction="J3" end="60" vehsPerHour="6.0925064455894855" departLane="free" arrivalSpeed="0.0"/>
  <flow id="JF193620" begin="0" fromJunction="J6" toJunction="J4" end="60" vehsPerHour="34.29304022301776" departLane="free" arrivalSpeed="0.0"/>
  <flow id="JF193621" begin="0" fromJunction="J6" toJunction="J5" end="60" vehsPerHour="57.740850574847755" departLane="free" arrivalSpeed="0.0"/>
  <flow id="JF193622" begin="0" fromJunction="J6" toJunction="J7" end="60" vehsPerHour="25.31960539139919" departLane="free" arrivalSpeed="0.0"/>
  <flow id="JF193623" begin="0" fromJunction="J7" toJunction="J0" end="60" vehsPerHour="28.89509126336535" departLane="free" arrivalSpeed="0.0"/>
  <flow id="JF193624" begin="0" fromJunction="J7" toJunction="J4" end="60" vehsPerHour="10.122306205030087" departLane="free" arrivalSpeed="0.0"/>
  <flow id="JF193625" begin="0" fromJunction="J7" toJunction="J5" end="60" vehsPerHour="21.645619268699495" departLane="free" arrivalSpeed="0.0"/>
  <flow id="JF193626" begin="60" fromJunction="J0" toJunction="J3" end="120" vehsPerHour="121.79879668903305" departLane="free" arrivalSpeed="0.0"/>
  <flow id="JF193627" begin="60" fromJunction="J0" toJunction="J4" end="120" vehsPerHour="102.34282546810012" departLane="free" arrivalSpeed="0.0"/>
  <flow id="JF193628" begin="60" fromJunction="J0" toJunction="J5" end="120" vehsPerHour="30.782437958572793" departLane="free" arrivalSpeed="0.0"/>
  <flow id="JF193629" begin="60" fromJunction="J0" toJunction="J6" end="120" vehsPerHour="96.2895930289662" departLane="free" arrivalSpeed="0.0"/>
  <flow id="JF193630" begin="60" fromJunction="J0" toJunction="J7" end="120" vehsPerHour="21.594019093608388" departLane="free" arrivalSpeed="0.0"/>
  <flow id="JF193631" begin="60" fromJunction="J3" toJunction="J4" end="120" vehsPerHour="91.13069703955739" departLane="free" arrivalSpeed="0.0"/>
  <flow id="JF193632" begin="60" fromJunction="J3" toJunction="J5" end="120" vehsPerHour="4.240479536057184" departLane="free" arrivalSpeed="0.0"/>
  <flow id="JF193633" begin="60" fromJunction="J3" toJunction="J6" end="120" vehsPerHour="31.01224600363284" departLane="free" arrivalSpeed="0.0"/>
  <flow id="JF193634" begin="60" fromJunction="J3" toJunction="J7" end="120" vehsPerHour="2.3650569149983998" departLane="free" arrivalSpeed="0.0"/>
  <flow id="JF193635" begin="60" fromJunction="J4" toJunction="J0" end="120" vehsPerHour="38.3269179095638" departLane="free" arrivalSpeed="0.0"/>
  <flow id="JF193636" begin="60" fromJunction="J4" toJunction="J3" end="120" vehsPerHour="33.35860875156607" departLane="free" arrivalSpeed="0.0"/>
  <flow id="JF193637" begin="60" fromJunction="J4" toJunction="J5" end="120" vehsPerHour="41.47334531314973" departLane="free" arrivalSpeed="0.0"/>
  <flow id="JF193638" begin="60" fromJunction="J4" toJunction="J6" end="120" vehsPerHour="49.17526989924192" departLane="free" arrivalSpeed="0.0"/>
  <flow id="JF193639" begin="60" fromJunction="J5" toJunction="J0" end="120" vehsPerHour="56.909280887859694" departLane="free" arrivalSpeed="0.0"/>
  <flow id="JF193640" begin="60" fromJunction="J5" toJunction="J6" end="120" vehsPerHour="31.158964289489667" departLane="free" arrivalSpeed="0.0"/>
  <flow id="JF193641" begin="60" fromJunction="J5" toJunction="J7" end="120" vehsPerHour="19.021002125431668" departLane="free" arrivalSpeed="0.0"/>
  <flow id="JF193642" begin="60" fromJunction="J6" toJunction="J0" end="120" vehsPerHour="35.81131512183493" departLane="free" arrivalSpeed="0.0"/>
  <flow id="JF193643" begin="60" fromJunction="J6" toJunction="J3" end="120" vehsPerHour="57.418239160041914" departLane="free" arrivalSpeed="0.0"/>
  <flow id="JF193644" begin="60" fromJunction="J6" toJunction="J4" end="120" vehsPerHour="53.59251493853614" departLane="free" arrivalSpeed="0.0"/>
  <flow id="JF193645" begin="60" fromJunction="J6" toJunction="J5" end="120" vehsPerHour="52.346151501432786" departLane="free" arrivalSpeed="0.0"/>
  <flow id="JF193646" begin="60" fromJunction="J6" toJunction="J7" end="120" vehsPerHour="8.957974196744562" departLane="free" arrivalSpeed="0.0"/>
  <flow id="JF193647" begin="60" fromJunction="J7" toJunction="J3" end="120" vehsPerHour="33.448634659515626" departLane="free" arrivalSpeed="0.0"/>
  <flow id="JF193648" begin="60" fromJunction="J7" toJunction="J4" end="120" vehsPerHour="47.986444859368106" departLane="free" arrivalSpeed="0.0"/>
  <flow id="JF193649" begin="60" fromJunction="J7" toJunction="J5" end="120" vehsPerHour="29.99935187048604" departLane="free" arrivalSpeed="0.0"/>
  <flow id="JF193650" begin="120" fromJunction="J0" toJunction="J3" end="180" vehsPerHour="87.76747177929087" departLane="free" arrivalSpeed="0.0"/>
  <flow id="JF193651" begin="120" fromJunction="J0" toJunction="J6" end="180" vehsPerHour="87.7073085496969" departLane="free" arrivalSpeed="0.0"/>
  <flow id="JF193652" begin="120" fromJunction="J3" toJunction="J4" end="180" vehsPerHour="26.480808425150204" departLane="free" arrivalSpeed="0.0"/>
  <flow id="JF193653" begin="120" fromJunction="J3" toJunction="J5" end="180" vehsPerHour="16.084661914878566" departLane="free" arrivalSpeed="0.0"/>
  <flow id="JF193654" begin="120" fromJunction="J3" toJunction="J6" end="180" vehsPerHour="99.59620511876881" departLane="free" arrivalSpeed="0.0"/>
  <flow id="JF193655" begin="120" fromJunction="J3" toJunction="J7" end="180" vehsPerHour="102.03245898953948" departLane="free" arrivalSpeed="0.0"/>
  <flow id="JF193656" begin="120" fromJunction="J4" toJunction="J5" end="180" vehsPerHour="48.89908290571818" departLane="free" arrivalSpeed="0.0"/>
  <flow id="JF193657" begin="120" fromJunction="J4" toJunction="J7" end="180" vehsPerHour="49.39331190762482" departLane="free" arrivalSpeed="0.0"/>
  <flow id="JF193658" begin="120" fromJunction="J5" toJunction="J0" end="180" vehsPerHour="7.61656087949634" departLane="free" arrivalSpeed="0.0"/>
  <flow id="JF193659" begin="120" fromJunction="J5" toJunction="J4" end="180" vehsPerHour="42.57707385938093" departLane="free" arrivalSpeed="0.0"/>
  <flow id="JF193660" begin="120" fromJunction="J5" toJunction="J6" end="180" vehsPerHour="55.590941995938444" departLane="free" arrivalSpeed="0.0"/>
  <flow id="JF193661" begin="120" fromJunction="J6" toJunction="J0" end="180" vehsPerHour="8.779928297635209" departLane="free" arrivalSpeed="0.0"/>
  <flow id="JF193662" begin="120" fromJunction="J6" toJunction="J3" end="180" vehsPerHour="41.42625095292159" departLane="free" arrivalSpeed="0.0"/>
  <flow id="JF193663" begin="120" fromJunction="J6" toJunction="J4" end="180" vehsPerHour="59.25647822467108" departLane="free" arrivalSpeed="0.0"/>
  <flow id="JF193664" begin="120" fromJunction="J6" toJunction="J7" end="180" vehsPerHour="68.22972488717609" departLane="free" arrivalSpeed="0.0"/>
  <flow id="JF193665" begin="120" fromJunction="J7" toJunction="J0" end="180" vehsPerHour="63.23525803174706" departLane="free" arrivalSpeed="0.0"/>
  <flow id="JF193666" begin="120" fromJunction="J7" toJunction="J3" end="180" vehsPerHour="60.1753158059354" departLane="free" arrivalSpeed="0.0"/>
  <flow id="JF193667" begin="120" fromJunction="J7" toJunction="J4" end="180" vehsPerHour="4.637602386779239" departLane="free" arrivalSpeed="0.0"/>
  <flow id="JF193668" begin="120" fromJunction="J7" toJunction="J5" end="180" vehsPerHour="68.59699634300696" departLane="free" arrivalSpeed="0.0"/>
  <flow id="JF193669" begin="120" fromJunction="J7" toJunction="J6" end="180" vehsPerHour="1.9025462691777515" departLane="free" arrivalSpeed="0.0"/>
  <flow id="JF193670" begin="180" fromJunction="J0" toJunction="J3" end="240" vehsPerHour="13.976076369677802" departLane="free" arrivalSpeed="0.0"/>
  <flow id="JF193671" begin="180" fromJunction="J0" toJunction="J4" end="240" vehsPerHour="57.11941853545805" departLane="free" arrivalSpeed="0.0"/>
  <flow id="JF193672" begin="180" fromJunction="J0" toJunction="J6" end="240" vehsPerHour="68.92564424257606" departLane="free" arrivalSpeed="0.0"/>
  <flow id="JF193673" begin="180" fromJunction="J0" toJunction="J7" end="240" vehsPerHour="70.7395175169833" departLane="free" arrivalSpeed="0.0"/>
  <flow id="JF193674" begin="180" fromJunction="J3" toJunction="J0" end="240" vehsPerHour="82.45945463578298" departLane="free" arrivalSpeed="0.0"/>
  <flow id="JF193675" begin="180" fromJunction="J3" toJunction="J4" end="240" vehsPerHour="40.404133431993046" departLane="free" arrivalSpeed="0.0"/>
  <flow id="JF193676" begin="180" fromJunction="J3" toJunction="J5" end="240" vehsPerHour="24.818532930423242" departLane="free" arrivalSpeed="0.0"/>
  <flow id="JF193677" begin="180" fromJunction="J3" toJunction="J6" end="240" vehsPerHour="78.33392834300183" departLane="free" arrivalSpeed="0.0"/>
  <flow id="JF193678" begin="180" fromJunction="J4" toJunction="J3" end="240" vehsPerHour="6.981887589034858" departLane="free" arrivalSpeed="0.0"/>
  <flow id="JF193679" begin="180" fromJunction="J4" toJunction="J5" end="240" vehsPerHour="17.188397866174814" departLane="free" arrivalSpeed="0.0"/>
  <flow id="JF193680" begin="180" fromJunction="J5" toJunction="J0" end="240" vehsPerHour="3.429827352543515" departLane="free" arrivalSpeed="0.0"/>
  <flow id="JF193681" begin="180" fromJunction="J5" toJunction="J3" end="240" vehsPerHour="57.476184170329" departLane="free" arrivalSpeed="0.0"/>
  <flow id="JF193682" begin="180" fromJunction="J5" toJunction="J6" end="240" vehsPerHour="6.075870978950998" departLane="free" arrivalSpeed="0.0"/>
  <flow id="JF193683" begin="180" fromJunction="J5" toJunction="J7" end="240" vehsPerHour="9.449189182492265" departLane="free" arrivalSpeed="0.0"/>
  <flow id="JF193684" begin="180" fromJunction="J6" toJunction="J0" end="240" vehsPerHour="12.771280174988137" departLane="free" arrivalSpeed="0.0"/>
  <flow id="JF193685" begin="180" fromJunction="J6" toJunction="J3" end="240" vehsPerHour="44.9082274523625" departLane="free" arrivalSpeed="0.0"/>
  <flow id="JF193686" begin="180" fromJunction="J6" toJunction="J4" end="240" vehsPerHour="9.821804985628994" departLane="free" arrivalSpeed="0.0"/>
  <flow id="JF193687" begin="180" fromJunction="J6" toJunction="J5" end="240" vehsPerHour="35.2461915042136" departLane="free" arrivalSpeed="0.0"/>
  <flow id="JF193688" begin="180" fromJunction="J6" toJunction="J7" end="240" vehsPerHour="66.76332990912742" departLane="free" arrivalSpeed="0.0"/>
  <flow id="JF193689" begin="180" fromJunction="J7" toJunction="J0" end="240" vehsPerHour="25.360025100242733" departLane="free" arrivalSpeed="0.0"/>
  <flow id="JF193690" begin="180" fromJunction="J7" toJunction="J3" end="240" vehsPerHour="61.182833835533124" departLane="free" arrivalSpeed="0.0"/>
  <flow id="JF193691" begin="180" fromJunction="J7" toJunction="J4" end="240" vehsPerHour="6.189611066078688" departLane="free" arrivalSpeed="0.0"/>
  <flow id="JF193692" begin="180" fromJunction="J7" toJunction="J5" end="240" vehsPerHour="29.606153952469242" departLane="free" arrivalSpeed="0.0"/>
  <flow id="JF193693" begin="240" fromJunction="J0" toJunction="J4" end="300" vehsPerHour="23.575571137350703" departLane="free" arrivalSpeed="0.0"/>
  <flow id="JF193694" begin="240" fromJunction="J0" toJunction="J5" end="300" vehsPerHour="124.29064420578732" departLane="free" arrivalSpeed="0.0"/>
  <flow id="JF193695" begin="240" fromJunction="J0" toJunction="J6" end="300" vehsPerHour="96.70328150439273" departLane="free" arrivalSpeed="0.0"/>
  <flow id="JF193696" begin="240" fromJunction="J0" toJunction="J7" end="300" vehsPerHour="125.42909623069555" departLane="free" arrivalSpeed="0.0"/>
  <flow id="JF193697" begin="240" fromJunction="J3" toJunction="J0" end="300" vehsPerHour="29.77564316638957" departLane="free" arrivalSpeed="0.0"/>
  <flow id="JF193698" begin="240" fromJunction="J3" toJunction="J4" end="300" vehsPerHour="20.03376433808247" departLane="free" arrivalSpeed="0.0"/>
  <flow id="JF193699" begin="240" fromJunction="J3" toJunction="J5" end="300" vehsPerHour="9.320509293352814" departLane="free" arrivalSpeed="0.0"/>
  <flow id="JF193700" begin="240" fromJunction="J3" toJunction="J7" end="300" vehsPerHour="48.155294171690414" departLane="free" arrivalSpeed="0.0"/>
  <flow id="JF193701" begin="240" fromJunction="J4" toJunction="J5" end="300" vehsPerHour="45.55799794085284" departLane="free" arrivalSpeed="0.0"/>
  <flow id="JF193702" begin="240" fromJunction="J4" toJunction="J7" end="300" vehsPerHour="9.884716911727514" departLane="free" arrivalSpeed="0.0"/>
  <flow id="JF193703" begin="240" fromJunction="J5" toJunction="J0" end="300" vehsPerHour="37.84541273503893" departLane="free" arrivalSpeed="0.0"/>
  <flow id="JF193704" begin="240" fromJunction="J5" toJunction="J3" end="300" vehsPerHour="20.66287341602094" departLane="free" arrivalSpeed="0.0"/>
  <flow id="JF193705" begin="240" fromJunction="J5" toJunction="J7" end="300" vehsPerHour="35.762331494924695" departLane="free" arrivalSpeed="0.0"/>
  <flow id="JF193706" begin="240" fromJunction="J6" toJunction="J0" end="300" vehsPerHour="6.257816920221945" departLane="free" arrivalSpeed="0.0"/>
  <flow id="JF193707" begin="240" fromJunction="J6" toJunction="J3" end="300" vehsPerHour="68.65003639035031" departLane="free" arrivalSpeed="0.0"/>
  <flow id="JF193708" begin="240" fromJunction="J6" toJunction="J5" end="300" vehsPerHour="55.507080253737335" departLane="free" arrivalSpeed="0.0"/>
  <flow id="JF193709" begin="240" fromJunction="J6" toJunction="J7" end="300" vehsPerHour="68.55501868467711" departLane="free" arrivalSpeed="0.0"/>
  <flow id="JF193710" begin="240" fromJunction="J7" toJunction="J0" end="300" vehsPerHour="64.02524988367107" departLane="free" arrivalSpeed="0.0"/>
  <flow id="JF193711" begin="240" fromJunction="J7" toJunction="J3" end="300" vehsPerHour="64.5733648224955" departLane="free" arrivalSpeed="0.0"/>
  <flow id="JF193712" begin="240" fromJunction="J7" toJunction="J4" end="300" vehsPerHour="52.14207749239857" departLane="free" arrivalSpeed="0.0"/>
  <flow id="JF193713" begin="240" fromJunction="J7" toJunction="J5" end="300" vehsPerHour="8.046593824365338" departLane="free" arrivalSpeed="0.0"/>
  <flow id="JF193714" begin="240" fromJunction="J7" toJunction="J6" end="300" vehsPerHour="10.5485635926506" departLane="free" arrivalSpeed="0.0"/>
  <flow id="JF193715" begin="300" fromJunction="J0" toJunction="J4" end="360" vehsPerHour="23.19144405834171" departLane="free" arrivalSpeed="0.0"/>
  <flow id="JF193716" begin="300" fromJunction="J0" toJunction="J5" end="360" vehsPerHour="38.05475839966709" departLane="free" arrivalSpeed="0.0"/>
  <flow id="JF193717" begin="300" fromJunction="J0" toJunction="J7" end="360" vehsPerHour="50.34447441109774" departLane="free" arrivalSpeed="0.0"/>
  <flow id="JF193718" begin="300" fromJunction="J3" toJunction="J0" end="360" vehsPerHour="70.61224274256423" departLane="free" arrivalSpeed="0.0"/>
  <flow id="JF193719" begin="300" fromJunction="J3" toJunction="J4" end="360" vehsPerHour="34.33878735263847" departLane="free" arrivalSpeed="0.0"/>
  <flow id="JF193720" begin="300" fromJunction="J3" toJunction="J5" end="360" vehsPerHour="94.11265340236237" departLane="free" arrivalSpeed="0.0"/>
  <flow id="JF193721" begin="300" fromJunction="J3" toJunction="J6" end="360" vehsPerHour="63.96543281316965" departLane="free" arrivalSpeed="0.0"/>
  <flow id="JF193722" begin="300" fromJunction="J3" toJunction="J7" end="360" vehsPerHour="41.78868222928979" departLane="free" arrivalSpeed="0.0"/>
  <flow id="JF193723" begin="300" fromJunction="J4" toJunction="J0" end="360" vehsPerHour="8.873439315788236" departLane="free" arrivalSpeed="0.0"/>
  <flow id="JF193724" begin="300" fromJunction="J4" toJunction="J5" end="360" vehsPerHour="36.74416758813403" departLane="free" arrivalSpeed="0.0"/>
  <flow id="JF193725" begin="300" fromJunction="J4" toJunction="J6" end="360" vehsPerHour="45.601936374092965" departLane="free" arrivalSpeed="0.0"/>
  <flow id="JF193726" begin="300" fromJunction="J5" toJunction="J0" end="360" vehsPerHour="42.954911991505504" departLane="free" arrivalSpeed="0.0"/>
  <flow id="JF193727" begin="300" fromJunction="J5" toJunction="J6" end="360" vehsPerHour="1.8527945145016589" departLane="free" arrivalSpeed="0.0"/>
  <flow id="JF193728" begin="300" fromJunction="J5" toJunction="J7" end="360" vehsPerHour="12.850316876479262" departLane="free" arrivalSpeed="0.0"/>
  <flow id="JF193729" begin="300" fromJunction="J6" toJunction="J3" end="360" vehsPerHour="20.138399098489035" departLane="free" arrivalSpeed="0.0"/>
  <flow id="JF193730" begin="300" fromJunction="J6" toJunction="J4" end="360" vehsPerHour="68.6086883851602" departLane="free" arrivalSpeed="0.0"/>
  <flow id="JF193731" begin="300" fromJunction="J6" toJunction="J5" end="360" vehsPerHour="4.965383504407985" departLane="free" arrivalSpeed="0.0"/>
  <flow id="JF193732" begin="300" fromJunction="J6" toJunction="J7" end="360" vehsPerHour="26.93113159663967" departLane="free" arrivalSpeed="0.0"/>
  <flow id="JF193733" begin="300" fromJunction="J7" toJunction="J3" end="360" vehsPerHour="40.91129463548803" departLane="free" arrivalSpeed="0.0"/>
  <flow id="JF193734" begin="300" fromJunction="J7" toJunction="J4" end="360" vehsPerHour="37.52759332534942" departLane="free" arrivalSpeed="0.0"/>
  <flow id="JF193735" begin="300" fromJunction="J7" toJunction="J5" end="360" vehsPerHour="30.00922470905393" departLane="free" arrivalSpeed="0.0"/>
  <flow id="JF193736" begin="300" fromJunction="J7" toJunction="J6" end="360" vehsPerHour="62.654518391590145" departLane="free" arrivalSpeed="0.0"/>
  <flow id="JF193737" begin="360" fromJunction="J0" toJunction="J3" end="420" vehsPerHour="74.08755468867315" departLane="free" arrivalSpeed="0.0"/>
  <flow id="JF193738" begin="360" fromJunction="J0" toJunction="J4" end="420" vehsPerHour="58.03172130940632" departLane="free" arrivalSpeed="0.0"/>
  <flow id="JF193739" begin="360" fromJunction="J0" toJunction="J6" end="420" vehsPerHour="103.71270596814279" departLane="free" arrivalSpeed="0.0"/>
  <flow id="JF193740" begin="360" fromJunction="J0" toJunction="J7" end="420" vehsPerHour="133.3959475210027" departLane="free" arrivalSpeed="0.0"/>
  <flow id="JF193741" begin="360" fromJunction="J3" toJunction="J0" end="420" vehsPerHour="117.29394540673131" departLane="free" arrivalSpeed="0.0"/>
  <flow id="JF193742" begin="360" fromJunction="J3" toJunction="J4" end="420" vehsPerHour="30.357702487205326" departLane="free" arrivalSpeed="0.0"/>
  <flow id="JF193743" begin="360" fromJunction="J3" toJunction="J6" end="420" vehsPerHour="130.47488090057328" departLane="free" arrivalSpeed="0.0"/>
  <flow id="JF193744" begin="360" fromJunction="J4" toJunction="J3" end="420" vehsPerHour="9.368193313806824" departLane="free" arrivalSpeed="0.0"/>
  <flow id="JF193745" begin="360" fromJunction="J4" toJunction="J5" end="420" vehsPerHour="65.71401352201879" departLane="free" arrivalSpeed="0.0"/>
  <flow id="JF193746" begin="360" fromJunction="J4" toJunction="J6" end="420" vehsPerHour="43.543202169314455" departLane="free" arrivalSpeed="0.0"/>
  <flow id="JF193747" begin="360" fromJunction="J4" toJunction="J7" end="420" vehsPerHour="32.584758665443836" departLane="free" arrivalSpeed="0.0"/>
  <flow id="JF193748" begin="360" fromJunction="J5" toJunction="J3" end="420" vehsPerHour="16.52271657134543" departLane="free" arrivalSpeed="0.0"/>
  <flow id="JF193749" begin="360" fromJunction="J5" toJunction="J7" end="420" vehsPerHour="50.364826734906345" departLane="free" arrivalSpeed="0.0"/>
  <flow id="JF193750" begin="360" fromJunction="J6" toJunction="J0" end="420" vehsPerHour="16.70624205415424" departLane="free" arrivalSpeed="0.0"/>
  <flow id="JF193751" begin="360" fromJunction="J6" toJunction="J4" end="420" vehsPerHour="28.291700387260455" departLane="free" arrivalSpeed="0.0"/>
  <flow id="JF193752" begin="360" fromJunction="J6" toJunction="J5" end="420" vehsPerHour="41.962218970056156" departLane="free" arrivalSpeed="0.0"/>
  <flow id="JF193753" begin="360" fromJunction="J7" toJunction="J0" end="420" vehsPerHour="63.08894745600582" departLane="free" arrivalSpeed="0.0"/>
  <flow id="JF193754" begin="360" fromJunction="J7" toJunction="J3" end="420" vehsPerHour="48.5432324126593" departLane="free" arrivalSpeed="0.0"/>
  <flow id="JF193755" begin="360" fromJunction="J7" toJunction="J5" end="420" vehsPerHour="29.496002184845814" departLane="free" arrivalSpeed="0.0"/>
  <flow id="JF193756" begin="360" fromJunction="J7" toJunction="J6" end="420" vehsPerHour="59.58649166933007" departLane="free" arrivalSpeed="0.0"/>
  <flow id="JF193757" begin="420" fromJunction="J0" toJunction="J3" end="480" vehsPerHour="123.34137591180263" departLane="free" arrivalSpeed="0.0"/>
  <flow id="JF193758" begin="420" fromJunction="J0" toJunction="J4" end="480" vehsPerHour="114.81733014633235" departLane="free" arrivalSpeed="0.0"/>
  <flow id="JF193759" begin="420" fromJunction="J0" toJunction="J5" end="480" vehsPerHour="130.04723425661973" departLane="free" arrivalSpeed="0.0"/>
  <flow id="JF193760" begin="420" fromJunction="J0" toJunction="J6" end="480" vehsPerHour="59.54664005956143" departLane="free" arrivalSpeed="0.0"/>
  <flow id="JF193761" begin="420" fromJunction="J0" toJunction="J7" end="480" vehsPerHour="31.80204340004923" departLane="free" arrivalSpeed="0.0"/>
  <flow id="JF193762" begin="420" fromJunction="J3" toJunction="J0" end="480" vehsPerHour="50.085952805424306" departLane="free" arrivalSpeed="0.0"/>
  <flow id="JF193763" begin="420" fromJunction="J3" toJunction="J4" end="480" vehsPerHour="91.50561986261349" departLane="free" arrivalSpeed="0.0"/>
  <flow id="JF193764" begin="420" fromJunction="J3" toJunction="J7" end="480" vehsPerHour="7.919911231650951" departLane="free" arrivalSpeed="0.0"/>
  <flow id="JF193765" begin="420" fromJunction="J4" toJunction="J0" end="480" vehsPerHour="60.84835704363153" departLane="free" arrivalSpeed="0.0"/>
  <flow id="JF193766" begin="420" fromJunction="J4" toJunction="J3" end="480" vehsPerHour="32.14295879157742" departLane="free" arrivalSpeed="0.0"/>
  <flow id="JF193767" begin="420" fromJunction="J4" toJunction="J5" end="480" vehsPerHour="23.647511456884054" departLane="free" arrivalSpeed="0.0"/>
  <flow id="JF193768" begin="420" fromJunction="J4" toJunction="J6" end="480" vehsPerHour="15.004211243763903" departLane="free" arrivalSpeed="0.0"/>
  <flow id="JF193769" begin="420" fromJunction="J4" toJunction="J7" end="480" vehsPerHour="44.26076550598014" departLane="free" arrivalSpeed="0.0"/>
  <flow id="JF193770" begin="420" fromJunction="J5" toJunction="J0" end="480" vehsPerHour="41.37517836678345" departLane="free" arrivalSpeed="0.0"/>
  <flow id="JF193771" begin="420" fromJunction="J5" toJunction="J4" end="480" vehsPerHour="27.563650055977046" departLane="free" arrivalSpeed="0.0"/>
  <flow id="JF193772" begin="420" fromJunction="J5" toJunction="J6" end="480" vehsPerHour="52.192664336357154" departLane="free" arrivalSpeed="0.0"/>
  <flow id="JF193773" begin="420" fromJunction="J5" toJunction="J7" end="480" vehsPerHour="11.570296953373488" departLane="free" arrivalSpeed="0.0"/>
  <flow id="JF193774" begin="420" fromJunction="J6" toJunction="J0" end="480" vehsPerHour="17.201657219810176" departLane="free" arrivalSpeed="0.0"/>
  <flow id="JF193775" begin="420" fromJunction="J6" toJunction="J3" end="480" vehsPerHour="60.88828115707044" departLane="free" arrivalSpeed="0.0"/>
  <flow id="JF193776" begin="420" fromJunction="J6" toJunction="J4" end="480" vehsPerHour="48.081267874222085" departLane="free" arrivalSpeed="0.0"/>
  <flow id="JF193777" begin="420" fromJunction="J6" toJunction="J5" end="480" vehsPerHour="17.346335209935496" departLane="free" arrivalSpeed="0.0"/>
  <flow id="JF193778" begin="420" fromJunction="J6" toJunction="J7" end="480" vehsPerHour="66.18210107693818" departLane="free" arrivalSpeed="0.0"/>
  <flow id="JF193779" begin="420" fromJunction="J7" toJunction="J0" end="480" vehsPerHour="35.75800833390482" departLane="free" arrivalSpeed="0.0"/>
  <flow id="JF193780" begin="420" fromJunction="J7" toJunction="J3" end="480" vehsPerHour="18.43647261067152" departLane="free" arrivalSpeed="0.0"/>
  <flow id="JF193781" begin="480" fromJunction="J0" toJunction="J3" end="540" vehsPerHour="97.94661777141376" departLane="free" arrivalSpeed="0.0"/>
  <flow id="JF193782" begin="480" fromJunction="J0" toJunction="J4" end="540" vehsPerHour="23.006232522813782" departLane="free" arrivalSpeed="0.0"/>
  <flow id="JF193783" begin="480" fromJunction="J0" toJunction="J7" end="540" vehsPerHour="6.891106171112816" departLane="free" arrivalSpeed="0.0"/>
  <flow id="JF193784" begin="480" fromJunction="J3" toJunction="J0" end="540" vehsPerHour="3.055372376057659" departLane="free" arrivalSpeed="0.0"/>
  <flow id="JF193785" begin="480" fromJunction="J3" toJunction="J4" end="540" vehsPerHour="127.98023985519325" departLane="free" arrivalSpeed="0.0"/>
  <flow id="JF193786" begin="480" fromJunction="J3" toJunction="J5" end="540" vehsPerHour="67.97380293545598" departLane="free" arrivalSpeed="0.0"/>
  <flow id="JF193787" begin="480" fromJunction="J3" toJunction="J6" end="540" vehsPerHour="96.22688583753762" departLane="free" arrivalSpeed="0.0"/>
  <flow id="JF193788" begin="480" fromJunction="J3" toJunction="J7" end="540" vehsPerHour="63.23109426068877" departLane="free" arrivalSpeed="0.0"/>
  <flow id="JF193789" begin="480" fromJunction="J4" toJunction="J0" end="540" vehsPerHour="54.87782430146074" departLane="free" arrivalSpeed="0.0"/>
  <flow id="JF193790" begin="480" fromJunction="J4" toJunction="J5" end="540" vehsPerHour="40.715620224010976" departLane="free" arrivalSpeed="0.0"/>
  <flow id="JF193791" begin="480" fromJunction="J4" toJunction="J6" end="540" vehsPerHour="50.80692982259374" departLane="free" arrivalSpeed="0.0"/>
  <flow id="JF193792" begin="480" fromJunction="J5" toJunction="J0" end="540" vehsPerHour="58.09753757161899" departLane="free" arrivalSpeed="0.0"/>
  <flow id="JF193793" begin="480" fromJunction="J5" toJunction="J6" end="540" vehsPerHour="40.26714367983675" departLane="free" arrivalSpeed="0.0"/>
  <flow id="JF193794" begin="480" fromJunction="J5" toJunction="J7" end="540" vehsPerHour="13.765277112910415" departLane="free" arrivalSpeed="0.0"/>
  <flow id="JF193795" begin="480" fromJunction="J6" toJunction="J0" end="540" vehsPerHour="22.563152641287722" departLane="free" arrivalSpeed="0.0"/>
  <flow id="JF193796" begin="480" fromJunction="J6" toJunction="J4" end="540" vehsPerHour="25.904756856686337" departLane="free" arrivalSpeed="0.0"/>
  <flow id="JF193797" begin="480" fromJunction="J6" toJunction="J7" end="540" vehsPerHour="63.403288766705415" departLane="free" arrivalSpeed="0.0"/>
  <flow id="JF193798" begin="480" fromJunction="J7" toJunction="J0" end="540" vehsPerHour="55.065864502513804" departLane="free" arrivalSpeed="0.0"/>
  <flow id="JF193799" begin="480" fromJunction="J7" toJunction="J3" end="540" vehsPerHour="28.16943569476621" departLane="free" arrivalSpeed="0.0"/>
  <flow id="JF193800" begin="480" fromJunction="J7" toJunction="J4" end="540" vehsPerHour="28.154751684273887" departLane="free" arrivalSpeed="0.0"/>
  <flow id="JF193801" begin="480" fromJunction="J7" toJunction="J6" end="540" vehsPerHour="55.78976421857703" departLane="free" arrivalSpeed="0.0"/>