<?xml version="1.0" encoding="UTF-8"?>
<routes xmlns:xsi="http://www.w3.org/2001/XMLSchema-instance" xsi:noNamespaceSchemaLocation="http://sumo.dlr.de/xsd/routes_file.xsd">
  <flow id="JF265095" begin="0" fromJunction="J0" toJunction="J3" end="5000" vehsPerHour="202.28185603679853" departLane="free"/>
  <flow id="JF265096" begin="0" fromJunction="J3" toJunction="J0" end="5000" vehsPerHour="390.3260326175545" departLane="free"/>
  <flow id="JF265097" begin="0" fromJunction="J0" toJunction="J5" end="5000" vehsPerHour="129.18190213591205" departLane="free"/>
  <flow id="JF265098" begin="0" fromJunction="J0" toJunction="J4" end="5000" vehsPerHour="4.211882674417667" departLane="free"/>
  <flow id="JF265099" begin="0" fromJunction="J0" toJunction="J6" end="5000" vehsPerHour="64.5004888081442" departLane="free"/>
  <flow id="JF265100" begin="0" fromJunction="J0" toJunction="J7" end="5000" vehsPerHour="43.91934531334953" departLane="free"/>
  <flow id="JF265101" begin="0" fromJunction="J3" toJunction="J5" end="5000" vehsPerHour="6.533138013858879" departLane="free"/>
  <flow id="JF265102" begin="0" fromJunction="J3" toJunction="J4" end="5000" vehsPerHour="75.52741825638854" departLane="free"/>
  <flow id="JF265103" begin="0" fromJunction="J3" toJunction="J6" end="5000" vehsPerHour="53.98423355155974" departLane="free"/>
  <flow id="JF265104" begin="0" fromJunction="J3" toJunction="J7" end="5000" vehsPerHour="133.1861546928334" departLane="free"/>
  <flow id="JF265105" begin="0" fromJunction="J5" toJunction="J4" end="5000" vehsPerHour="55.90489844688891" departLane="free"/>
  <flow id="JF265106" begin="0" fromJunction="J5" toJunction="J6" end="5000" vehsPerHour="1.5715938029932455" departLane="free"/>
  <flow id="JF265107" begin="0" fromJunction="J5" toJunction="J7" end="5000" vehsPerHour="13.217475572704775" departLane="free"/>
  <flow id="JF265108" begin="0" fromJunction="J4" toJunction="J5" end="5000" vehsPerHour="50.398096109489366" departLane="free"/>
  <flow id="JF265109" begin="0" fromJunction="J4" toJunction="J6" end="5000" vehsPerHour="10.444302527404508" departLane="free"/>
  <flow id="JF265110" begin="0" fromJunction="J4" toJunction="J7" end="5000" vehsPerHour="9.138893021639904" departLane="free"/>
  <flow id="JF265111" begin="0" fromJunction="J6" toJunction="J5" end="5000" vehsPerHour="1.8219203748510397" departLane="free"/>
  <flow id="JF265112" begin="0" fromJunction="J6" toJunction="J4" end="5000" vehsPerHour="55.358427633941616" departLane="free"/>
  <flow id="JF265113" begin="0" fromJunction="J6" toJunction="J7" end="5000" vehsPerHour="41.750074696001384" departLane="free"/>
  <flow id="JF265114" begin="0" fromJunction="J7" toJunction="J5" end="5000" vehsPerHour="49.36341088223505" departLane="free"/>
  <flow id="JF265115" begin="0" fromJunction="J7" toJunction="J4" end="5000" vehsPerHour="9.151992864316133" departLane="free"/>
  <flow id="JF265116" begin="0" fromJunction="J7" toJunction="J6" end="5000" vehsPerHour="1.2119686693029268" departLane="free"/>
  <flow id="JF265117" begin="0" fromJunction="J5" toJunction="J0" end="5000" vehsPerHour="52.48322472522831" departLane="free"/>
  <flow id="JF265118" begin="0" fromJunction="J5" toJunction="J3" end="5000" vehsPerHour="23.047913006467557" departLane="free"/>
  <flow id="JF265119" begin="0" fromJunction="J4" toJunction="J0" end="5000" vehsPerHour="21.047203420933947" departLane="free"/>
  <flow id="JF265120" begin="0" fromJunction="J4" toJunction="J3" end="5000" vehsPerHour="36.09912050919649" departLane="free"/>
  <flow id="JF265121" begin="0" fromJunction="J6" toJunction="J0" end="5000" vehsPerHour="24.117705430525298" departLane="free"/>
  <flow id="JF265122" begin="0" fromJunction="J6" toJunction="J3" end="5000" vehsPerHour="11.727449723953116" departLane="free"/>
  <flow id="JF265123" begin="0" fromJunction="J7" toJunction="J0" end="5000" vehsPerHour="43.35009914154953" departLane="free"/>
  <flow id="JF265124" begin="0" fromJunction="J7" toJunction="J3" end="5000" vehsPerHour="49.26821638353725" departLane="free"/>
  <flow id="JF265125" begin="5000" fromJunction="J0" toJunction="J3" end="5060" vehsPerHour="19.653983938791487" departLane="free"/>
  <flow id="JF265126" begin="5000" fromJunction="J0" toJunction="J6" end="5060" vehsPerHour="118.85105769734038" departLane="free"/>
  <flow id="JF265127" begin="5000" fromJunction="J3" toJunction="J0" end="5060" vehsPerHour="8.729937328331538" departLane="free"/>
  <flow id="JF265128" begin="5000" fromJunction="J3" toJunction="J4" end="5060" vehsPerHour="17.172107162538246" departLane="free"/>
  <flow id="JF265129" begin="5000" fromJunction="J3" toJunction="J6" end="5060" vehsPerHour="83.58715123067786" departLane="free"/>
  <flow id="JF265130" begin="5000" fromJunction="J3" toJunction="J7" end="5060" vehsPerHour="128.35261662015398" departLane="free"/>
  <flow id="JF265131" begin="5000" fromJunction="J4" toJunction="J0" end="5060" vehsPerHour="48.72953048233771" departLane="free"/>
  <flow id="JF265132" begin="5000" fromJunction="J4" toJunction="J6" end="5060" vehsPerHour="31.619385331548717" departLane="free"/>
  <flow id="JF265133" begin="5000" fromJunction="J4" toJunction="J7" end="5060" vehsPerHour="13.803779072686858" departLane="free"/>
  <flow id="JF265134" begin="5000" fromJunction="J5" toJunction="J0" end="5060" vehsPerHour="47.75316879944225" departLane="free"/>
  <flow id="JF265135" begin="5000" fromJunction="J5" toJunction="J4" end="5060" vehsPerHour="5.803064981402614" departLane="free"/>
  <flow id="JF265136" begin="5000" fromJunction="J5" toJunction="J7" end="5060" vehsPerHour="13.761566738124637" departLane="free"/>
  <flow id="JF265137" begin="5000" fromJunction="J6" toJunction="J0" end="5060" vehsPerHour="3.6617282485959795" departLane="free"/>
  <flow id="JF265138" begin="5000" fromJunction="J6" toJunction="J3" end="5060" vehsPerHour="64.7453288297348" departLane="free"/>
  <flow id="JF265139" begin="5000" fromJunction="J6" toJunction="J4" end="5060" vehsPerHour="5.817541017836888" departLane="free"/>
  <flow id="JF265140" begin="5000" fromJunction="J6" toJunction="J5" end="5060" vehsPerHour="45.609885858603015" departLane="free"/>
  <flow id="JF265141" begin="5000" fromJunction="J6" toJunction="J7" end="5060" vehsPerHour="13.297665909469808" departLane="free"/>
  <flow id="JF265142" begin="5000" fromJunction="J7" toJunction="J0" end="5060" vehsPerHour="16.828346289519015" departLane="free"/>
  <flow id="JF265143" begin="5000" fromJunction="J7" toJunction="J3" end="5060" vehsPerHour="46.1500781742037" departLane="free"/>
  <flow id="JF265144" begin="5000" fromJunction="J7" toJunction="J4" end="5060" vehsPerHour="28.110168250998818" departLane="free"/>
  <flow id="JF265145" begin="5000" fromJunction="J7" toJunction="J6" end="5060" vehsPerHour="0.9541826824396702" departLane="free"/>
  <flow id="JF265146" begin="5060" fromJunction="J0" toJunction="J4" end="5120" vehsPerHour="56.485541681456894" departLane="free"/>
  <flow id="JF265147" begin="5060" fromJunction="J0" toJunction="J5" end="5120" vehsPerHour="25.339305539685643" departLane="free"/>
  <flow id="JF265148" begin="5060" fromJunction="J0" toJunction="J7" end="5120" vehsPerHour="95.65447941093423" departLane="free"/>
  <flow id="JF265149" begin="5060" fromJunction="J3" toJunction="J0" end="5120" vehsPerHour="15.302565244715296" departLane="free"/>
  <flow id="JF265150" begin="5060" fromJunction="J3" toJunction="J4" end="5120" vehsPerHour="46.63928408413581" departLane="free"/>
  <flow id="JF265151" begin="5060" fromJunction="J3" toJunction="J5" end="5120" vehsPerHour="34.27094777219662" departLane="free"/>
  <flow id="JF265152" begin="5060" fromJunction="J3" toJunction="J6" end="5120" vehsPerHour="45.76544566149163" departLane="free"/>
  <flow id="JF265153" begin="5060" fromJunction="J4" toJunction="J0" end="5120" vehsPerHour="43.61635367401686" departLane="free"/>
  <flow id="JF265154" begin="5060" fromJunction="J4" toJunction="J3" end="5120" vehsPerHour="31.13411954064408" departLane="free"/>
  <flow id="JF265155" begin="5060" fromJunction="J4" toJunction="J5" end="5120" vehsPerHour="47.534021911457025" departLane="free"/>
  <flow id="JF265156" begin="5060" fromJunction="J4" toJunction="J7" end="5120" vehsPerHour="39.20725494731034" departLane="free"/>
  <flow id="JF265157" begin="5060" fromJunction="J5" toJunction="J3" end="5120" vehsPerHour="39.606581454422205" departLane="free"/>
  <flow id="JF265158" begin="5060" fromJunction="J5" toJunction="J4" end="5120" vehsPerHour="40.628348219203865" departLane="free"/>
  <flow id="JF265159" begin="5060" fromJunction="J5" toJunction="J6" end="5120" vehsPerHour="54.75841872677669" departLane="free"/>
  <flow id="JF265160" begin="5060" fromJunction="J6" toJunction="J0" end="5120" vehsPerHour="43.13645346723057" departLane="free"/>
  <flow id="JF265161" begin="5060" fromJunction="J6" toJunction="J4" end="5120" vehsPerHour="5.929357974638733" departLane="free"/>
  <flow id="JF265162" begin="5060" fromJunction="J6" toJunction="J5" end="5120" vehsPerHour="18.97757171949136" departLane="free"/>
  <flow id="JF265163" begin="5060" fromJunction="J6" toJunction="J7" end="5120" vehsPerHour="11.164670986158331" departLane="free"/>
  <flow id="JF265164" begin="5060" fromJunction="J7" toJunction="J3" end="5120" vehsPerHour="10.59376808812008" departLane="free"/>
  <flow id="JF265165" begin="5060" fromJunction="J7" toJunction="J4" end="5120" vehsPerHour="54.303498865404926" departLane="free"/>
  <flow id="JF265166" begin="5120" fromJunction="J0" toJunction="J4" end="5180" vehsPerHour="109.44104988638941" departLane="free"/>
  <flow id="JF265167" begin="5120" fromJunction="J0" toJunction="J6" end="5180" vehsPerHour="67.1032980942319" departLane="free"/>
  <flow id="JF265168" begin="5120" fromJunction="J0" toJunction="J7" end="5180" vehsPerHour="64.10953628246867" departLane="free"/>
  <flow id="JF265169" begin="5120" fromJunction="J3" toJunction="J0" end="5180" vehsPerHour="37.49280015915215" departLane="free"/>
  <flow id="JF265170" begin="5120" fromJunction="J3" toJunction="J4" end="5180" vehsPerHour="50.100981976363" departLane="free"/>
  <flow id="JF265171" begin="5120" fromJunction="J3" toJunction="J5" end="5180" vehsPerHour="57.71827574778754" departLane="free"/>
  <flow id="JF265172" begin="5120" fromJunction="J3" toJunction="J7" end="5180" vehsPerHour="41.884015181874474" departLane="free"/>
  <flow id="JF265173" begin="5120" fromJunction="J4" toJunction="J0" end="5180" vehsPerHour="54.07488759442287" departLane="free"/>
  <flow id="JF265174" begin="5120" fromJunction="J4" toJunction="J3" end="5180" vehsPerHour="29.7514603348512" departLane="free"/>
  <flow id="JF265175" begin="5120" fromJunction="J4" toJunction="J7" end="5180" vehsPerHour="15.93987515837097" departLane="free"/>
  <flow id="JF265176" begin="5120" fromJunction="J5" toJunction="J0" end="5180" vehsPerHour="68.14998170671309" departLane="free"/>
  <flow id="JF265177" begin="5120" fromJunction="J5" toJunction="J3" end="5180" vehsPerHour="32.43010598052349" departLane="free"/>
  <flow id="JF265178" begin="5120" fromJunction="J5" toJunction="J4" end="5180" vehsPerHour="1.2050369048314404" departLane="free"/>
  <flow id="JF265179" begin="5120" fromJunction="J5" toJunction="J6" end="5180" vehsPerHour="55.63887690775454" departLane="free"/>
  <flow id="JF265180" begin="5120" fromJunction="J5" toJunction="J7" end="5180" vehsPerHour="0.2968330583733015" departLane="free"/>
  <flow id="JF265181" begin="5120" fromJunction="J6" toJunction="J0" end="5180" vehsPerHour="2.4816081953696174" departLane="free"/>
  <flow id="JF265182" begin="5120" fromJunction="J6" toJunction="J3" end="5180" vehsPerHour="45.60093403706662" departLane="free"/>
  <flow id="JF265183" begin="5120" fromJunction="J6" toJunction="J4" end="5180" vehsPerHour="3.686549609137552" departLane="free"/>
  <flow id="JF265184" begin="5120" fromJunction="J6" toJunction="J5" end="5180" vehsPerHour="52.11651119015122" departLane="free"/>
  <flow id="JF265185" begin="5120" fromJunction="J7" toJunction="J0" end="5180" vehsPerHour="43.56722918678533" departLane="free"/>
  <flow id="JF265186" begin="5120" fromJunction="J7" toJunction="J4" end="5180" vehsPerHour="61.47686018061176" departLane="free"/>
  <flow id="JF265187" begin="5120" fromJunction="J7" toJunction="J5" end="5180" vehsPerHour="2.4537606320553" departLane="free"/>
  <flow id="JF265188" begin="5120" fromJunction="J7" toJunction="J6" end="5180" vehsPerHour="51.75674572475384" departLane="free"/>
  <flow id="JF265189" begin="5180" fromJunction="J0" toJunction="J5" end="5240" vehsPerHour="15.804871383720814" departLane="free"/>
  <flow id="JF265190" begin="5180" fromJunction="J0" toJunction="J6" end="5240" vehsPerHour="49.852229642410215" departLane="free"/>
  <flow id="JF265191" begin="5180" fromJunction="J0" toJunction="J7" end="5240" vehsPerHour="10.195357651115005" departLane="free"/>
  <flow id="JF265192" begin="5180" fromJunction="J3" toJunction="J0" end="5240" vehsPerHour="50.43780245743966" departLane="free"/>
  <flow id="JF265193" begin="5180" fromJunction="J3" toJunction="J4" end="5240" vehsPerHour="74.45406292800482" departLane="free"/>
  <flow id="JF265194" begin="5180" fromJunction="J3" toJunction="J5" end="5240" vehsPerHour="17.261713158106392" departLane="free"/>
  <flow id="JF265195" begin="5180" fromJunction="J3" toJunction="J7" end="5240" vehsPerHour="21.98715826270492" departLane="free"/>
  <flow id="JF265196" begin="5180" fromJunction="J4" toJunction="J3" end="5240" vehsPerHour="13.630458737313157" departLane="free"/>
  <flow id="JF265197" begin="5180" fromJunction="J4" toJunction="J5" end="5240" vehsPerHour="7.249313719892251" departLane="free"/>
  <flow id="JF265198" begin="5180" fromJunction="J5" toJunction="J0" end="5240" vehsPerHour="47.288140468923885" departLane="free"/>
  <flow id="JF265199" begin="5180" fromJunction="J5" toJunction="J4" end="5240" vehsPerHour="52.91681496745486" departLane="free"/>
  <flow id="JF265200" begin="5180" fromJunction="J5" toJunction="J7" end="5240" vehsPerHour="4.87942902496404" departLane="free"/>
  <flow id="JF265201" begin="5180" fromJunction="J6" toJunction="J3" end="5240" vehsPerHour="11.499236240851323" departLane="free"/>
  <flow id="JF265202" begin="5180" fromJunction="J6" toJunction="J4" end="5240" vehsPerHour="57.12246379210966" departLane="free"/>
  <flow id="JF265203" begin="5180" fromJunction="J6" toJunction="J5" end="5240" vehsPerHour="28.054292003234877" departLane="free"/>
  <flow id="JF265204" begin="5180" fromJunction="J6" toJunction="J7" end="5240" vehsPerHour="64.32697813649777" departLane="free"/>
  <flow id="JF265205" begin="5180" fromJunction="J7" toJunction="J0" end="5240" vehsPerHour="57.58540023095478" departLane="free"/>
  <flow id="JF265206" begin="5180" fromJunction="J7" toJunction="J3" end="5240" vehsPerHour="11.206042105614586" departLane="free"/>
  <flow id="JF265207" begin="5240" fromJunction="J0" toJunction="J3" end="5300" vehsPerHour="123.1268389764128" departLane="free"/>
  <flow id="JF265208" begin="5240" fromJunction="J0" toJunction="J5" end="5300" vehsPerHour="76.92757630284575" departLane="free"/>
  <flow id="JF265209" begin="5240" fromJunction="J0" toJunction="J6" end="5300" vehsPerHour="45.83319086413245" departLane="free"/>
  <flow id="JF265210" begin="5240" fromJunction="J0" toJunction="J7" end="5300" vehsPerHour="28.90831935715504" departLane="free"/>
  <flow id="JF265211" begin="5240" fromJunction="J3" toJunction="J0" end="5300" vehsPerHour="6.357135488895207" departLane="free"/>
  <flow id="JF265212" begin="5240" fromJunction="J3" toJunction="J4" end="5300" vehsPerHour="34.75259321437381" departLane="free"/>
  <flow id="JF265213" begin="5240" fromJunction="J3" toJunction="J5" end="5300" vehsPerHour="38.30356738587011" departLane="free"/>
  <flow id="JF265214" begin="5240" fromJunction="J3" toJunction="J6" end="5300" vehsPerHour="75.01039375790467" departLane="free"/>
  <flow id="JF265215" begin="5240" fromJunction="J4" toJunction="J0" end="5300" vehsPerHour="14.12620853214418" departLane="free"/>
  <flow id="JF265216" begin="5240" fromJunction="J5" toJunction="J0" end="5300" vehsPerHour="33.673918858747314" departLane="free"/>
  <flow id="JF265217" begin="5240" fromJunction="J5" toJunction="J4" end="5300" vehsPerHour="0.03217139868484364" departLane="free"/>
  <flow id="JF265218" begin="5240" fromJunction="J5" toJunction="J6" end="5300" vehsPerHour="56.76406124483149" departLane="free"/>
  <flow id="JF265219" begin="5240" fromJunction="J5" toJunction="J7" end="5300" vehsPerHour="16.521422466365983" departLane="free"/>
  <flow id="JF265220" begin="5240" fromJunction="J6" toJunction="J0" end="5300" vehsPerHour="61.213627797883504" departLane="free"/>
  <flow id="JF265221" begin="5240" fromJunction="J6" toJunction="J3" end="5300" vehsPerHour="15.489038067900964" departLane="free"/>
  <flow id="JF265222" begin="5240" fromJunction="J6" toJunction="J4" end="5300" vehsPerHour="45.75715697981166" departLane="free"/>
  <flow id="JF265223" begin="5240" fromJunction="J6" toJunction="J5" end="5300" vehsPerHour="34.53493047528313" departLane="free"/>
  <flow id="JF265224" begin="5240" fromJunction="J6" toJunction="J7" end="5300" vehsPerHour="29.125388976485645" departLane="free"/>
  <flow id="JF265225" begin="5240" fromJunction="J7" toJunction="J0" end="5300" vehsPerHour="8.342817824325861" departLane="free"/>
  <flow id="JF265226" begin="5240" fromJunction="J7" toJunction="J3" end="5300" vehsPerHour="53.42756800042668" departLane="free"/>
  <flow id="JF265227" begin="5240" fromJunction="J7" toJunction="J4" end="5300" vehsPerHour="27.35227395325453" departLane="free"/>
  <flow id="JF265228" begin="5240" fromJunction="J7" toJunction="J6" end="5300" vehsPerHour="5.073170551753941" departLane="free"/>
  <flow id="JF265229" begin="5300" fromJunction="J0" toJunction="J3" end="5360" vehsPerHour="116.14570191289519" departLane="free"/>
  <flow id="JF265230" begin="5300" fromJunction="J0" toJunction="J4" end="5360" vehsPerHour="33.51558120640607" departLane="free"/>
  <flow id="JF265231" begin="5300" fromJunction="J0" toJunction="J5" end="5360" vehsPerHour="9.44447700073452" departLane="free"/>
  <flow id="JF265232" begin="5300" fromJunction="J0" toJunction="J6" end="5360" vehsPerHour="22.263736219969374" departLane="free"/>
  <flow id="JF265233" begin="5300" fromJunction="J3" toJunction="J0" end="5360" vehsPerHour="31.716860474560782" departLane="free"/>
  <flow id="JF265234" begin="5300" fromJunction="J3" toJunction="J5" end="5360" vehsPerHour="41.05949562117575" departLane="free"/>
  <flow id="JF265235" begin="5300" fromJunction="J3" toJunction="J6" end="5360" vehsPerHour="81.6702078195492" departLane="free"/>
  <flow id="JF265236" begin="5300" fromJunction="J4" toJunction="J0" end="5360" vehsPerHour="38.52298758833262" departLane="free"/>
  <flow id="JF265237" begin="5300" fromJunction="J4" toJunction="J3" end="5360" vehsPerHour="40.725272243647865" departLane="free"/>
  <flow id="JF265238" begin="5300" fromJunction="J4" toJunction="J6" end="5360" vehsPerHour="63.05002947812597" departLane="free"/>
  <flow id="JF265239" begin="5300" fromJunction="J4" toJunction="J7" end="5360" vehsPerHour="54.73248662823195" departLane="free"/>
  <flow id="JF265240" begin="5300" fromJunction="J5" toJunction="J3" end="5360" vehsPerHour="6.517758719438009" departLane="free"/>
  <flow id="JF265241" begin="5300" fromJunction="J5" toJunction="J4" end="5360" vehsPerHour="24.046095343542472" departLane="free"/>
  <flow id="JF265242" begin="5300" fromJunction="J5" toJunction="J6" end="5360" vehsPerHour="53.77642284379947" departLane="free"/>
  <flow id="JF265243" begin="5300" fromJunction="J5" toJunction="J7" end="5360" vehsPerHour="21.669528839731367" departLane="free"/>
  <flow id="JF265244" begin="5300" fromJunction="J6" toJunction="J0" end="5360" vehsPerHour="49.54648609447643" departLane="free"/>
  <flow id="JF265245" begin="5300" fromJunction="J6" toJunction="J3" end="5360" vehsPerHour="66.55799449187622" departLane="free"/>
  <flow id="JF265246" begin="5300" fromJunction="J6" toJunction="J7" end="5360" vehsPerHour="57.111583994442256" departLane="free"/>
  <flow id="JF265247" begin="5300" fromJunction="J7" toJunction="J0" end="5360" vehsPerHour="27.65310698465747" departLane="free"/>
  <flow id="JF265248" begin="5300" fromJunction="J7" toJunction="J3" end="5360" vehsPerHour="4.055604832090828" departLane="free"/>
  <flow id="JF265249" begin="5300" fromJunction="J7" toJunction="J4" end="5360" vehsPerHour="32.42504027636427" departLane="free"/>
  <flow id="JF265250" begin="5300" fromJunction="J7" toJunction="J5" end="5360" vehsPerHour="64.60602104939767" departLane="free"/>
  <flow id="JF265251" begin="5360" fromJunction="J0" toJunction="J4" end="5420" vehsPerHour="72.69667053886269" departLane="free"/>
  <flow id="JF265252" begin="5360" fromJunction="J0" toJunction="J5" end="5420" vehsPerHour="128.25272046552413" departLane="free"/>
  <flow id="JF265253" begin="5360" fromJunction="J0" toJunction="J7" end="5420" vehsPerHour="79.90670243605845" departLane="free"/>
  <flow id="JF265254" begin="5360" fromJunction="J3" toJunction="J0" end="5420" vehsPerHour="22.21713322927775" departLane="free"/>
  <flow id="JF265255" begin="5360" fromJunction="J3" toJunction="J4" end="5420" vehsPerHour="104.11383756652025" departLane="free"/>
  <flow id="JF265256" begin="5360" fromJunction="J3" toJunction="J5" end="5420" vehsPerHour="68.32672295808122" departLane="free"/>
  <flow id="JF265257" begin="5360" fromJunction="J3" toJunction="J7" end="5420" vehsPerHour="33.09282055790631" departLane="free"/>
  <flow id="JF265258" begin="5360" fromJunction="J4" toJunction="J0" end="5420" vehsPerHour="0.6582540374039685" departLane="free"/>
  <flow id="JF265259" begin="5360" fromJunction="J4" toJunction="J3" end="5420" vehsPerHour="23.219849682769013" departLane="free"/>
  <flow id="JF265260" begin="5360" fromJunction="J4" toJunction="J7" end="5420" vehsPerHour="7.044191180282219" departLane="free"/>
  <flow id="JF265261" begin="5360" fromJunction="J5" toJunction="J4" end="5420" vehsPerHour="62.32929283541008" departLane="free"/>
  <flow id="JF265262" begin="5360" fromJunction="J5" toJunction="J6" end="5420" vehsPerHour="31.948456410714503" departLane="free"/>
  <flow id="JF265263" begin="5360" fromJunction="J5" toJunction="J7" end="5420" vehsPerHour="12.077897786081705" departLane="free"/>
  <flow id="JF265264" begin="5360" fromJunction="J6" toJunction="J4" end="5420" vehsPerHour="62.55387814807849" departLane="free"/>
  <flow id="JF265265" begin="5360" fromJunction="J6" toJunction="J5" end="5420" vehsPerHour="13.652444805394937" departLane="free"/>
  <flow id="JF265266" begin="5360" fromJunction="J6" toJunction="J7" end="5420" vehsPerHour="23.2042550307827" departLane="free"/>
  <flow id="JF265267" begin="5360" fromJunction="J7" toJunction="J0" end="5420" vehsPerHour="63.05809125904505" departLane="free"/>
  <flow id="JF265268" begin="5360" fromJunction="J7" toJunction="J4" end="5420" vehsPerHour="13.552084525515586" departLane="free"/>
  <flow id="JF265269" begin="5360" fromJunction="J7" toJunction="J5" end="5420" vehsPerHour="34.378240810669965" departLane="free"/>
  <flow id="JF265270" begin="5360" fromJunction="J7" toJunction="J6" end="5420" vehsPerHour="7.825463109874819" departLane="free"/>
  <flow id="JF265271" begin="5420" fromJunction="J0" toJunction="J3" end="5480" vehsPerHour="97.52309983469164" departLane="free"/>
  <flow id="JF265272" begin="5420" fromJunction="J0" toJunction="J4" end="5480" vehsPerHour="32.77271222983976" departLane="free"/>
  <flow id="JF265273" begin="5420" fromJunction="J0" toJunction="J5" end="5480" vehsPerHour="100.86777817272669" departLane="free"/>
  <flow id="JF265274" begin="5420" fromJunction="J3" toJunction="J0" end="5480" vehsPerHour="6.94932207050109" departLane="free"/>
  <flow id="JF265275" begin="5420" fromJunction="J3" toJunction="J4" end="5480" vehsPerHour="73.29785346923141" departLane="free"/>
  <flow id="JF265276" begin="5420" fromJunction="J3" toJunction="J5" end="5480" vehsPerHour="92.02085075680459" departLane="free"/>
  <flow id="JF265277" begin="5420" fromJunction="J3" toJunction="J6" end="5480" vehsPerHour="96.51994030198813" departLane="free"/>
  <flow id="JF265278" begin="5420" fromJunction="J3" toJunction="J7" end="5480" vehsPerHour="52.88868880135579" departLane="free"/>
  <flow id="JF265279" begin="5420" fromJunction="J4" toJunction="J6" end="5480" vehsPerHour="7.979379046278982" departLane="free"/>
  <flow id="JF265280" begin="5420" fromJunction="J4" toJunction="J7" end="5480" vehsPerHour="59.725666446176184" departLane="free"/>
  <flow id="JF265281" begin="5420" fromJunction="J5" toJunction="J0" end="5480" vehsPerHour="6.674933348286967" departLane="free"/>
  <flow id="JF265282" begin="5420" fromJunction="J5" toJunction="J4" end="5480" vehsPerHour="54.66740711975543" departLane="free"/>
  <flow id="JF265283" begin="5420" fromJunction="J5" toJunction="J7" end="5480" vehsPerHour="62.10352991708124" departLane="free"/>
  <flow id="JF265284" begin="5420" fromJunction="J6" toJunction="J0" end="5480" vehsPerHour="47.05850540066551" departLane="free"/>
  <flow id="JF265285" begin="5420" fromJunction="J6" toJunction="J3" end="5480" vehsPerHour="57.80027281091955" departLane="free"/>
  <flow id="JF265286" begin="5420" fromJunction="J6" toJunction="J7" end="5480" vehsPerHour="30.97886406314953" departLane="free"/>
  <flow id="JF265287" begin="5420" fromJunction="J7" toJunction="J4" end="5480" vehsPerHour="52.574102608727436" departLane="free"/>
  <flow id="JF265288" begin="5480" fromJunction="J0" toJunction="J4" end="5540" vehsPerHour="48.20875447217189" departLane="free"/>
  <flow id="JF265289" begin="5480" fromJunction="J0" toJunction="J5" end="5540" vehsPerHour="115.58611554180584" departLane="free"/>
  <flow id="JF265290" begin="5480" fromJunction="J0" toJunction="J6" end="5540" vehsPerHour="56.788190812188674" departLane="free"/>
  <flow id="JF265291" begin="5480" fromJunction="J0" toJunction="J7" end="5540" vehsPerHour="18.08853185864161" departLane="free"/>
  <flow id="JF265292" begin="5480" fromJunction="J3" toJunction="J0" end="5540" vehsPerHour="80.74211346220417" departLane="free"/>
  <flow id="JF265293" begin="5480" fromJunction="J3" toJunction="J4" end="5540" vehsPerHour="80.50089966679401" departLane="free"/>
  <flow id="JF265294" begin="5480" fromJunction="J3" toJunction="J5" end="5540" vehsPerHour="104.75970843888273" departLane="free"/>
  <flow id="JF265295" begin="5480" fromJunction="J3" toJunction="J6" end="5540" vehsPerHour="42.55531723993736" departLane="free"/>
  <flow id="JF265296" begin="5480" fromJunction="J4" toJunction="J0" end="5540" vehsPerHour="8.718396173559283" departLane="free"/>
  <flow id="JF265297" begin="5480" fromJunction="J4" toJunction="J3" end="5540" vehsPerHour="45.055345857669344" departLane="free"/>
  <flow id="JF265298" begin="5480" fromJunction="J4" toJunction="J5" end="5540" vehsPerHour="46.8301032563831" departLane="free"/>
  <flow id="JF265299" begin="5480" fromJunction="J4" toJunction="J7" end="5540" vehsPerHour="58.65333683102409" departLane="free"/>
  <flow id="JF265300" begin="5480" fromJunction="J5" toJunction="J0" end="5540" vehsPerHour="21.083917393826372" departLane="free"/>
  <flow id="JF265301" begin="5480" fromJunction="J5" toJunction="J4" end="5540" vehsPerHour="19.22682940431245" departLane="free"/>
  <flow id="JF265302" begin="5480" fromJunction="J5" toJunction="J6" end="5540" vehsPerHour="24.375983226518077" departLane="free"/>
  <flow id="JF265303" begin="5480" fromJunction="J5" toJunction="J7" end="5540" vehsPerHour="39.74420872687143" departLane="free"/>
  <flow id="JF265304" begin="5480" fromJunction="J6" toJunction="J3" end="5540" vehsPerHour="55.99327803511276" departLane="free"/>
  <flow id="JF265305" begin="5480" fromJunction="J6" toJunction="J4" end="5540" vehsPerHour="23.51621606215735" departLane="free"/>
  <flow id="JF265306" begin="5480" fromJunction="J7" toJunction="J0" end="5540" vehsPerHour="60.84736282187543" departLane="free"/>
  <flow id="JF265307" begin="5480" fromJunction="J7" toJunction="J3" end="5540" vehsPerHour="38.74014816776414" departLane="free"/>
  <flow id="JF265308" begin="5480" fromJunction="J7" toJunction="J4" end="5540" vehsPerHour="54.57208682992649" departLane="free"/>
  <flow id="JF265309" begin="5480" fromJunction="J7" toJunction="J5" end="5540" vehsPerHour="46.30362155852324" departLane="free"/>
  <flow id="JF265310" begin="5480" fromJunction="J7" toJunction="J6" end="5540" vehsPerHour="38.36239515415602" departLane="free"/>
  <flow id="JF265311" begin="5540" fromJunction="J0" toJunction="J3" end="5600" vehsPerHour="102.77181984706577" departLane="free"/>
  <flow id="JF265312" begin="5540" fromJunction="J0" toJunction="J4" end="5600" vehsPerHour="133.02729520627918" departLane="free"/>
  <flow id="JF265313" begin="5540" fromJunction="J3" toJunction="J4" end="5600" vehsPerHour="30.00995237446989" departLane="free"/>
  <flow id="JF265314" begin="5540" fromJunction="J3" toJunction="J5" end="5600" vehsPerHour="101.2122071434904" departLane="free"/>
  <flow id="JF265315" begin="5540" fromJunction="J3" toJunction="J6" end="5600" vehsPerHour="71.1858057232125" departLane="free"/>
  <flow id="JF265316" begin="5540" fromJunction="J4" toJunction="J0" end="5600" vehsPerHour="53.013621620454956" departLane="free"/>
  <flow id="JF265317" begin="5540" fromJunction="J4" toJunction="J3" end="5600" vehsPerHour="63.616385366421" departLane="free"/>
  <flow id="JF265318" begin="5540" fromJunction="J4" toJunction="J6" end="5600" vehsPerHour="65.63057748031612" departLane="free"/>
  <flow id="JF265319" begin="5540" fromJunction="J5" toJunction="J4" end="5600" vehsPerHour="21.961168052245473" departLane="free"/>
  <flow id="JF265320" begin="5540" fromJunction="J5" toJunction="J7" end="5600" vehsPerHour="32.64020607958183" departLane="free"/>