<?xml version="1.0" encoding="UTF-8"?>
<routes xmlns:xsi="http://www.w3.org/2001/XMLSchema-instance" xsi:noNamespaceSchemaLocation="http://sumo.dlr.de/xsd/routes_file.xsd">
  <flow id="JF266876" begin="0" fromJunction="J0" toJunction="J3" end="5000" vehsPerHour="359.80498268373" departLane="free"/>
  <flow id="JF266877" begin="0" fromJunction="J3" toJunction="J0" end="5000" vehsPerHour="29.253958556416123" departLane="free"/>
  <flow id="JF266878" begin="0" fromJunction="J0" toJunction="J5" end="5000" vehsPerHour="7.913416160603324" departLane="free"/>
  <flow id="JF266879" begin="0" fromJunction="J0" toJunction="J4" end="5000" vehsPerHour="26.21055299780518" departLane="free"/>
  <flow id="JF266880" begin="0" fromJunction="J0" toJunction="J6" end="5000" vehsPerHour="47.25517525842539" departLane="free"/>
  <flow id="JF266881" begin="0" fromJunction="J0" toJunction="J7" end="5000" vehsPerHour="124.58909491931195" departLane="free"/>
  <flow id="JF266882" begin="0" fromJunction="J3" toJunction="J5" end="5000" vehsPerHour="54.82154108934723" departLane="free"/>
  <flow id="JF266883" begin="0" fromJunction="J3" toJunction="J4" end="5000" vehsPerHour="25.306800798297193" departLane="free"/>
  <flow id="JF266884" begin="0" fromJunction="J3" toJunction="J6" end="5000" vehsPerHour="5.240751983060684" departLane="free"/>
  <flow id="JF266885" begin="0" fromJunction="J3" toJunction="J7" end="5000" vehsPerHour="81.18993464633154" departLane="free"/>
  <flow id="JF266886" begin="0" fromJunction="J5" toJunction="J4" end="5000" vehsPerHour="55.65742475047304" departLane="free"/>
  <flow id="JF266887" begin="0" fromJunction="J5" toJunction="J6" end="5000" vehsPerHour="33.36194685163554" departLane="free"/>
  <flow id="JF266888" begin="0" fromJunction="J5" toJunction="J7" end="5000" vehsPerHour="4.14206770239293" departLane="free"/>
  <flow id="JF266889" begin="0" fromJunction="J4" toJunction="J5" end="5000" vehsPerHour="33.95963134883211" departLane="free"/>
  <flow id="JF266890" begin="0" fromJunction="J4" toJunction="J6" end="5000" vehsPerHour="65.43974998375867" departLane="free"/>
  <flow id="JF266891" begin="0" fromJunction="J4" toJunction="J7" end="5000" vehsPerHour="49.95369961463438" departLane="free"/>
  <flow id="JF266892" begin="0" fromJunction="J6" toJunction="J5" end="5000" vehsPerHour="35.305684492171544" departLane="free"/>
  <flow id="JF266893" begin="0" fromJunction="J6" toJunction="J4" end="5000" vehsPerHour="5.625312988550134" departLane="free"/>
  <flow id="JF266894" begin="0" fromJunction="J6" toJunction="J7" end="5000" vehsPerHour="32.06015933963208" departLane="free"/>
  <flow id="JF266895" begin="0" fromJunction="J7" toJunction="J5" end="5000" vehsPerHour="59.28913126290295" departLane="free"/>
  <flow id="JF266896" begin="0" fromJunction="J7" toJunction="J4" end="5000" vehsPerHour="54.268065794284134" departLane="free"/>
  <flow id="JF266897" begin="0" fromJunction="J7" toJunction="J6" end="5000" vehsPerHour="19.44689753143001" departLane="free"/>
  <flow id="JF266898" begin="0" fromJunction="J5" toJunction="J0" end="5000" vehsPerHour="46.47030616368395" departLane="free"/>
  <flow id="JF266899" begin="0" fromJunction="J5" toJunction="J3" end="5000" vehsPerHour="40.59542328393535" departLane="free"/>
  <flow id="JF266900" begin="0" fromJunction="J4" toJunction="J0" end="5000" vehsPerHour="40.88464561378155" departLane="free"/>
  <flow id="JF266901" begin="0" fromJunction="J4" toJunction="J3" end="5000" vehsPerHour="53.59240320217803" departLane="free"/>
  <flow id="JF266902" begin="0" fromJunction="J6" toJunction="J0" end="5000" vehsPerHour="56.022596861610026" departLane="free"/>
  <flow id="JF266903" begin="0" fromJunction="J6" toJunction="J3" end="5000" vehsPerHour="35.73800169125544" departLane="free"/>
  <flow id="JF266904" begin="0" fromJunction="J7" toJunction="J0" end="5000" vehsPerHour="62.128676946424186" departLane="free"/>
  <flow id="JF266905" begin="0" fromJunction="J7" toJunction="J3" end="5000" vehsPerHour="3.5921306670580777" departLane="free"/>
  <flow id="JF266906" begin="5000" fromJunction="J0" toJunction="J4" end="5060" vehsPerHour="7.4624153236035795" departLane="free"/>
  <flow id="JF266907" begin="5000" fromJunction="J0" toJunction="J5" end="5060" vehsPerHour="25.22077800561389" departLane="free"/>
  <flow id="JF266908" begin="5000" fromJunction="J3" toJunction="J4" end="5060" vehsPerHour="70.30601642031374" departLane="free"/>
  <flow id="JF266909" begin="5000" fromJunction="J3" toJunction="J5" end="5060" vehsPerHour="128.5112982090582" departLane="free"/>
  <flow id="JF266910" begin="5000" fromJunction="J3" toJunction="J6" end="5060" vehsPerHour="83.88691083827571" departLane="free"/>
  <flow id="JF266911" begin="5000" fromJunction="J3" toJunction="J7" end="5060" vehsPerHour="125.42492984577846" departLane="free"/>
  <flow id="JF266912" begin="5000" fromJunction="J4" toJunction="J0" end="5060" vehsPerHour="14.711644827659471" departLane="free"/>
  <flow id="JF266913" begin="5000" fromJunction="J4" toJunction="J3" end="5060" vehsPerHour="13.322082237470697" departLane="free"/>
  <flow id="JF266914" begin="5000" fromJunction="J4" toJunction="J5" end="5060" vehsPerHour="56.21445705829744" departLane="free"/>
  <flow id="JF266915" begin="5000" fromJunction="J4" toJunction="J6" end="5060" vehsPerHour="56.31000415404065" departLane="free"/>
  <flow id="JF266916" begin="5000" fromJunction="J4" toJunction="J7" end="5060" vehsPerHour="32.95558433031758" departLane="free"/>
  <flow id="JF266917" begin="5000" fromJunction="J5" toJunction="J0" end="5060" vehsPerHour="46.9791778125829" departLane="free"/>
  <flow id="JF266918" begin="5000" fromJunction="J5" toJunction="J3" end="5060" vehsPerHour="14.560817601033307" departLane="free"/>
  <flow id="JF266919" begin="5000" fromJunction="J5" toJunction="J4" end="5060" vehsPerHour="48.59054513691716" departLane="free"/>
  <flow id="JF266920" begin="5000" fromJunction="J5" toJunction="J6" end="5060" vehsPerHour="41.392441596868814" departLane="free"/>
  <flow id="JF266921" begin="5000" fromJunction="J5" toJunction="J7" end="5060" vehsPerHour="55.63467394087604" departLane="free"/>
  <flow id="JF266922" begin="5000" fromJunction="J6" toJunction="J0" end="5060" vehsPerHour="68.48115520971226" departLane="free"/>
  <flow id="JF266923" begin="5000" fromJunction="J6" toJunction="J3" end="5060" vehsPerHour="45.881644732884055" departLane="free"/>
  <flow id="JF266924" begin="5000" fromJunction="J6" toJunction="J4" end="5060" vehsPerHour="48.11290495123471" departLane="free"/>
  <flow id="JF266925" begin="5000" fromJunction="J6" toJunction="J5" end="5060" vehsPerHour="6.071956351874941" departLane="free"/>
  <flow id="JF266926" begin="5000" fromJunction="J6" toJunction="J7" end="5060" vehsPerHour="36.08470147171811" departLane="free"/>
  <flow id="JF266927" begin="5000" fromJunction="J7" toJunction="J0" end="5060" vehsPerHour="35.74398958759622" departLane="free"/>
  <flow id="JF266928" begin="5000" fromJunction="J7" toJunction="J3" end="5060" vehsPerHour="33.39922325666298" departLane="free"/>
  <flow id="JF266929" begin="5000" fromJunction="J7" toJunction="J6" end="5060" vehsPerHour="7.625191470813428" departLane="free"/>
  <flow id="JF266930" begin="5060" fromJunction="J0" toJunction="J4" end="5120" vehsPerHour="31.545964350875508" departLane="free"/>
  <flow id="JF266931" begin="5060" fromJunction="J0" toJunction="J5" end="5120" vehsPerHour="41.87461688346387" departLane="free"/>
  <flow id="JF266932" begin="5060" fromJunction="J0" toJunction="J6" end="5120" vehsPerHour="130.64977405368384" departLane="free"/>
  <flow id="JF266933" begin="5060" fromJunction="J0" toJunction="J7" end="5120" vehsPerHour="33.28127558292922" departLane="free"/>
  <flow id="JF266934" begin="5060" fromJunction="J3" toJunction="J0" end="5120" vehsPerHour="88.70032835897528" departLane="free"/>
  <flow id="JF266935" begin="5060" fromJunction="J3" toJunction="J4" end="5120" vehsPerHour="98.8919050993982" departLane="free"/>
  <flow id="JF266936" begin="5060" fromJunction="J3" toJunction="J5" end="5120" vehsPerHour="17.30496509977431" departLane="free"/>
  <flow id="JF266937" begin="5060" fromJunction="J3" toJunction="J6" end="5120" vehsPerHour="48.18737430901304" departLane="free"/>
  <flow id="JF266938" begin="5060" fromJunction="J3" toJunction="J7" end="5120" vehsPerHour="16.933724602604837" departLane="free"/>
  <flow id="JF266939" begin="5060" fromJunction="J4" toJunction="J0" end="5120" vehsPerHour="25.473869663040205" departLane="free"/>
  <flow id="JF266940" begin="5060" fromJunction="J4" toJunction="J3" end="5120" vehsPerHour="2.9886608056875903" departLane="free"/>
  <flow id="JF266941" begin="5060" fromJunction="J4" toJunction="J5" end="5120" vehsPerHour="13.74939944818823" departLane="free"/>
  <flow id="JF266942" begin="5060" fromJunction="J4" toJunction="J6" end="5120" vehsPerHour="50.10853449016618" departLane="free"/>
  <flow id="JF266943" begin="5060" fromJunction="J4" toJunction="J7" end="5120" vehsPerHour="48.80255831921537" departLane="free"/>
  <flow id="JF266944" begin="5060" fromJunction="J5" toJunction="J4" end="5120" vehsPerHour="45.87642867039062" departLane="free"/>
  <flow id="JF266945" begin="5060" fromJunction="J6" toJunction="J0" end="5120" vehsPerHour="21.585256544326658" departLane="free"/>
  <flow id="JF266946" begin="5060" fromJunction="J6" toJunction="J3" end="5120" vehsPerHour="7.486647118746436" departLane="free"/>
  <flow id="JF266947" begin="5060" fromJunction="J6" toJunction="J4" end="5120" vehsPerHour="62.97751888061306" departLane="free"/>
  <flow id="JF266948" begin="5060" fromJunction="J6" toJunction="J5" end="5120" vehsPerHour="55.092627871943144" departLane="free"/>
  <flow id="JF266949" begin="5060" fromJunction="J6" toJunction="J7" end="5120" vehsPerHour="29.9368321599443" departLane="free"/>
  <flow id="JF266950" begin="5060" fromJunction="J7" toJunction="J3" end="5120" vehsPerHour="2.5007351258786557" departLane="free"/>
  <flow id="JF266951" begin="5060" fromJunction="J7" toJunction="J4" end="5120" vehsPerHour="29.773701272018833" departLane="free"/>
  <flow id="JF266952" begin="5060" fromJunction="J7" toJunction="J6" end="5120" vehsPerHour="36.54060334685933" departLane="free"/>
  <flow id="JF266953" begin="5120" fromJunction="J0" toJunction="J3" end="5180" vehsPerHour="125.08383819795814" departLane="free"/>
  <flow id="JF266954" begin="5120" fromJunction="J3" toJunction="J0" end="5180" vehsPerHour="35.37838912762372" departLane="free"/>
  <flow id="JF266955" begin="5120" fromJunction="J3" toJunction="J5" end="5180" vehsPerHour="33.29447112704914" departLane="free"/>
  <flow id="JF266956" begin="5120" fromJunction="J4" toJunction="J0" end="5180" vehsPerHour="44.52354131747989" departLane="free"/>
  <flow id="JF266957" begin="5120" fromJunction="J4" toJunction="J5" end="5180" vehsPerHour="34.22637255010406" departLane="free"/>
  <flow id="JF266958" begin="5120" fromJunction="J4" toJunction="J6" end="5180" vehsPerHour="35.172258935489474" departLane="free"/>
  <flow id="JF266959" begin="5120" fromJunction="J4" toJunction="J7" end="5180" vehsPerHour="25.776662510363145" departLane="free"/>
  <flow id="JF266960" begin="5120" fromJunction="J5" toJunction="J3" end="5180" vehsPerHour="13.033088747558025" departLane="free"/>
  <flow id="JF266961" begin="5120" fromJunction="J5" toJunction="J6" end="5180" vehsPerHour="23.191313256252265" departLane="free"/>
  <flow id="JF266962" begin="5120" fromJunction="J5" toJunction="J7" end="5180" vehsPerHour="2.074187728090223" departLane="free"/>
  <flow id="JF266963" begin="5120" fromJunction="J6" toJunction="J0" end="5180" vehsPerHour="47.476469256280105" departLane="free"/>
  <flow id="JF266964" begin="5120" fromJunction="J6" toJunction="J3" end="5180" vehsPerHour="41.065770764276294" departLane="free"/>
  <flow id="JF266965" begin="5120" fromJunction="J6" toJunction="J4" end="5180" vehsPerHour="0.9359773235338732" departLane="free"/>
  <flow id="JF266966" begin="5120" fromJunction="J6" toJunction="J7" end="5180" vehsPerHour="59.11007654645702" departLane="free"/>
  <flow id="JF266967" begin="5120" fromJunction="J7" toJunction="J3" end="5180" vehsPerHour="54.52153112383648" departLane="free"/>
  <flow id="JF266968" begin="5180" fromJunction="J0" toJunction="J4" end="5240" vehsPerHour="85.04347393907993" departLane="free"/>
  <flow id="JF266969" begin="5180" fromJunction="J0" toJunction="J5" end="5240" vehsPerHour="24.508472879086103" departLane="free"/>
  <flow id="JF266970" begin="5180" fromJunction="J0" toJunction="J7" end="5240" vehsPerHour="123.00311190166722" departLane="free"/>
  <flow id="JF266971" begin="5180" fromJunction="J3" toJunction="J0" end="5240" vehsPerHour="53.37263615296324" departLane="free"/>
  <flow id="JF266972" begin="5180" fromJunction="J3" toJunction="J4" end="5240" vehsPerHour="0.6430973043497169" departLane="free"/>
  <flow id="JF266973" begin="5180" fromJunction="J3" toJunction="J5" end="5240" vehsPerHour="47.60743366538601" departLane="free"/>
  <flow id="JF266974" begin="5180" fromJunction="J3" toJunction="J6" end="5240" vehsPerHour="104.16320238033802" departLane="free"/>
  <flow id="JF266975" begin="5180" fromJunction="J3" toJunction="J7" end="5240" vehsPerHour="26.182069774561572" departLane="free"/>
  <flow id="JF266976" begin="5180" fromJunction="J4" toJunction="J0" end="5240" vehsPerHour="44.079714730357104" departLane="free"/>
  <flow id="JF266977" begin="5180" fromJunction="J4" toJunction="J5" end="5240" vehsPerHour="6.11044332640181" departLane="free"/>
  <flow id="JF266978" begin="5180" fromJunction="J4" toJunction="J7" end="5240" vehsPerHour="12.99499746275847" departLane="free"/>
  <flow id="JF266979" begin="5180" fromJunction="J5" toJunction="J0" end="5240" vehsPerHour="52.40775564078926" departLane="free"/>
  <flow id="JF266980" begin="5180" fromJunction="J5" toJunction="J3" end="5240" vehsPerHour="1.8699295978981365" departLane="free"/>
  <flow id="JF266981" begin="5180" fromJunction="J5" toJunction="J4" end="5240" vehsPerHour="59.31535490676172" departLane="free"/>
  <flow id="JF266982" begin="5180" fromJunction="J5" toJunction="J6" end="5240" vehsPerHour="53.48775208476181" departLane="free"/>
  <flow id="JF266983" begin="5180" fromJunction="J5" toJunction="J7" end="5240" vehsPerHour="52.857112018647705" departLane="free"/>
  <flow id="JF266984" begin="5180" fromJunction="J6" toJunction="J0" end="5240" vehsPerHour="9.426386100741432" departLane="free"/>
  <flow id="JF266985" begin="5180" fromJunction="J6" toJunction="J3" end="5240" vehsPerHour="62.12136905015068" departLane="free"/>
  <flow id="JF266986" begin="5180" fromJunction="J6" toJunction="J4" end="5240" vehsPerHour="61.24797051673135" departLane="free"/>
  <flow id="JF266987" begin="5180" fromJunction="J6" toJunction="J5" end="5240" vehsPerHour="55.757363648169104" departLane="free"/>
  <flow id="JF266988" begin="5180" fromJunction="J6" toJunction="J7" end="5240" vehsPerHour="62.454040156521394" departLane="free"/>
  <flow id="JF266989" begin="5180" fromJunction="J7" toJunction="J4" end="5240" vehsPerHour="41.40840942092894" departLane="free"/>
  <flow id="JF266990" begin="5180" fromJunction="J7" toJunction="J5" end="5240" vehsPerHour="50.686684164224346" departLane="free"/>
  <flow id="JF266991" begin="5240" fromJunction="J0" toJunction="J5" end="5300" vehsPerHour="87.03072384254668" departLane="free"/>
  <flow id="JF266992" begin="5240" fromJunction="J0" toJunction="J6" end="5300" vehsPerHour="101.80381838408685" departLane="free"/>
  <flow id="JF266993" begin="5240" fromJunction="J0" toJunction="J7" end="5300" vehsPerHour="130.85691953060322" departLane="free"/>
  <flow id="JF266994" begin="5240" fromJunction="J3" toJunction="J0" end="5300" vehsPerHour="117.20651283582359" departLane="free"/>
  <flow id="JF266995" begin="5240" fromJunction="J3" toJunction="J4" end="5300" vehsPerHour="108.10986177544466" departLane="free"/>
  <flow id="JF266996" begin="5240" fromJunction="J3" toJunction="J5" end="5300" vehsPerHour="26.237112749506803" departLane="free"/>
  <flow id="JF266997" begin="5240" fromJunction="J3" toJunction="J6" end="5300" vehsPerHour="87.21524947538371" departLane="free"/>
  <flow id="JF266998" begin="5240" fromJunction="J3" toJunction="J7" end="5300" vehsPerHour="101.13284418826628" departLane="free"/>
  <flow id="JF266999" begin="5240" fromJunction="J4" toJunction="J0" end="5300" vehsPerHour="23.68443601305986" departLane="free"/>
  <flow id="JF267000" begin="5240" fromJunction="J4" toJunction="J5" end="5300" vehsPerHour="10.188631361907822" departLane="free"/>
  <flow id="JF267001" begin="5240" fromJunction="J4" toJunction="J6" end="5300" vehsPerHour="21.026854207180374" departLane="free"/>
  <flow id="JF267002" begin="5240" fromJunction="J5" toJunction="J0" end="5300" vehsPerHour="40.724659096933" departLane="free"/>
  <flow id="JF267003" begin="5240" fromJunction="J5" toJunction="J3" end="5300" vehsPerHour="7.871863683042498" departLane="free"/>
  <flow id="JF267004" begin="5240" fromJunction="J5" toJunction="J4" end="5300" vehsPerHour="46.356969320202374" departLane="free"/>
  <flow id="JF267005" begin="5240" fromJunction="J5" toJunction="J6" end="5300" vehsPerHour="41.431186583609104" departLane="free"/>
  <flow id="JF267006" begin="5240" fromJunction="J5" toJunction="J7" end="5300" vehsPerHour="40.94761952008717" departLane="free"/>
  <flow id="JF267007" begin="5240" fromJunction="J6" toJunction="J0" end="5300" vehsPerHour="62.86649312851291" departLane="free"/>
  <flow id="JF267008" begin="5240" fromJunction="J6" toJunction="J3" end="5300" vehsPerHour="25.269730260172537" departLane="free"/>
  <flow id="JF267009" begin="5240" fromJunction="J6" toJunction="J4" end="5300" vehsPerHour="24.63706892095076" departLane="free"/>
  <flow id="JF267010" begin="5240" fromJunction="J6" toJunction="J5" end="5300" vehsPerHour="63.242400871606115" departLane="free"/>
  <flow id="JF267011" begin="5240" fromJunction="J7" toJunction="J6" end="5300" vehsPerHour="30.28365290490041" departLane="free"/>
  <flow id="JF267012" begin="5300" fromJunction="J0" toJunction="J4" end="5360" vehsPerHour="19.029929929194342" departLane="free"/>
  <flow id="JF267013" begin="5300" fromJunction="J0" toJunction="J5" end="5360" vehsPerHour="78.27360614913621" departLane="free"/>
  <flow id="JF267014" begin="5300" fromJunction="J0" toJunction="J6" end="5360" vehsPerHour="98.20643582794051" departLane="free"/>
  <flow id="JF267015" begin="5300" fromJunction="J0" toJunction="J7" end="5360" vehsPerHour="45.56971749166251" departLane="free"/>
  <flow id="JF267016" begin="5300" fromJunction="J3" toJunction="J0" end="5360" vehsPerHour="118.91457760802409" departLane="free"/>
  <flow id="JF267017" begin="5300" fromJunction="J3" toJunction="J5" end="5360" vehsPerHour="91.53039235368178" departLane="free"/>
  <flow id="JF267018" begin="5300" fromJunction="J3" toJunction="J6" end="5360" vehsPerHour="14.246214507760646" departLane="free"/>
  <flow id="JF267019" begin="5300" fromJunction="J3" toJunction="J7" end="5360" vehsPerHour="59.84524880367868" departLane="free"/>
  <flow id="JF267020" begin="5300" fromJunction="J4" toJunction="J3" end="5360" vehsPerHour="24.673270172923075" departLane="free"/>
  <flow id="JF267021" begin="5300" fromJunction="J4" toJunction="J5" end="5360" vehsPerHour="21.965546062034143" departLane="free"/>
  <flow id="JF267022" begin="5300" fromJunction="J4" toJunction="J6" end="5360" vehsPerHour="12.256600570560122" departLane="free"/>
  <flow id="JF267023" begin="5300" fromJunction="J4" toJunction="J7" end="5360" vehsPerHour="50.65596652483189" departLane="free"/>
  <flow id="JF267024" begin="5300" fromJunction="J5" toJunction="J0" end="5360" vehsPerHour="15.46059647182689" departLane="free"/>
  <flow id="JF267025" begin="5300" fromJunction="J5" toJunction="J6" end="5360" vehsPerHour="50.698368641110015" departLane="free"/>
  <flow id="JF267026" begin="5300" fromJunction="J5" toJunction="J7" end="5360" vehsPerHour="67.07098862581255" departLane="free"/>
  <flow id="JF267027" begin="5300" fromJunction="J6" toJunction="J0" end="5360" vehsPerHour="68.09693332530352" departLane="free"/>
  <flow id="JF267028" begin="5300" fromJunction="J6" toJunction="J4" end="5360" vehsPerHour="19.025699444160335" departLane="free"/>
  <flow id="JF267029" begin="5300" fromJunction="J6" toJunction="J5" end="5360" vehsPerHour="20.351278221573338" departLane="free"/>
  <flow id="JF267030" begin="5300" fromJunction="J6" toJunction="J7" end="5360" vehsPerHour="11.308868346425283" departLane="free"/>
  <flow id="JF267031" begin="5300" fromJunction="J7" toJunction="J0" end="5360" vehsPerHour="15.010191291465171" departLane="free"/>
  <flow id="JF267032" begin="5300" fromJunction="J7" toJunction="J3" end="5360" vehsPerHour="11.778071242758692" departLane="free"/>
  <flow id="JF267033" begin="5300" fromJunction="J7" toJunction="J4" end="5360" vehsPerHour="53.3811649697195" departLane="free"/>
  <flow id="JF267034" begin="5300" fromJunction="J7" toJunction="J6" end="5360" vehsPerHour="44.92093471892485" departLane="free"/>
  <flow id="JF267035" begin="5360" fromJunction="J0" toJunction="J3" end="5420" vehsPerHour="126.13066538650526" departLane="free"/>
  <flow id="JF267036" begin="5360" fromJunction="J0" toJunction="J5" end="5420" vehsPerHour="44.32260448970704" departLane="free"/>
  <flow id="JF267037" begin="5360" fromJunction="J0" toJunction="J7" end="5420" vehsPerHour="62.58731468483719" departLane="free"/>
  <flow id="JF267038" begin="5360" fromJunction="J3" toJunction="J0" end="5420" vehsPerHour="58.15272325931189" departLane="free"/>
  <flow id="JF267039" begin="5360" fromJunction="J3" toJunction="J4" end="5420" vehsPerHour="13.307466587528591" departLane="free"/>
  <flow id="JF267040" begin="5360" fromJunction="J3" toJunction="J6" end="5420" vehsPerHour="109.66097072412319" departLane="free"/>
  <flow id="JF267041" begin="5360" fromJunction="J3" toJunction="J7" end="5420" vehsPerHour="36.98605171496707" departLane="free"/>
  <flow id="JF267042" begin="5360" fromJunction="J4" toJunction="J0" end="5420" vehsPerHour="58.40014820446612" departLane="free"/>
  <flow id="JF267043" begin="5360" fromJunction="J4" toJunction="J6" end="5420" vehsPerHour="42.53058275542113" departLane="free"/>
  <flow id="JF267044" begin="5360" fromJunction="J4" toJunction="J7" end="5420" vehsPerHour="1.0493794213842973" departLane="free"/>
  <flow id="JF267045" begin="5360" fromJunction="J5" toJunction="J0" end="5420" vehsPerHour="48.15488839347053" departLane="free"/>
  <flow id="JF267046" begin="5360" fromJunction="J5" toJunction="J6" end="5420" vehsPerHour="47.631455848132454" departLane="free"/>
  <flow id="JF267047" begin="5360" fromJunction="J5" toJunction="J7" end="5420" vehsPerHour="64.6072678434403" departLane="free"/>
  <flow id="JF267048" begin="5360" fromJunction="J6" toJunction="J3" end="5420" vehsPerHour="50.03314301246902" departLane="free"/>
  <flow id="JF267049" begin="5360" fromJunction="J6" toJunction="J4" end="5420" vehsPerHour="61.976950670504735" departLane="free"/>
  <flow id="JF267050" begin="5360" fromJunction="J7" toJunction="J0" end="5420" vehsPerHour="50.755413397067734" departLane="free"/>
  <flow id="JF267051" begin="5360" fromJunction="J7" toJunction="J3" end="5420" vehsPerHour="16.57861067462189" departLane="free"/>
  <flow id="JF267052" begin="5360" fromJunction="J7" toJunction="J6" end="5420" vehsPerHour="10.792127781182542" departLane="free"/>
  <flow id="JF267053" begin="5420" fromJunction="J0" toJunction="J3" end="5480" vehsPerHour="9.16017015632078" departLane="free"/>
  <flow id="JF267054" begin="5420" fromJunction="J0" toJunction="J4" end="5480" vehsPerHour="86.35731372148292" departLane="free"/>
  <flow id="JF267055" begin="5420" fromJunction="J0" toJunction="J5" end="5480" vehsPerHour="81.85171673054565" departLane="free"/>
  <flow id="JF267056" begin="5420" fromJunction="J0" toJunction="J7" end="5480" vehsPerHour="103.24456529104508" departLane="free"/>
  <flow id="JF267057" begin="5420" fromJunction="J3" toJunction="J4" end="5480" vehsPerHour="14.314134796500824" departLane="free"/>
  <flow id="JF267058" begin="5420" fromJunction="J3" toJunction="J6" end="5480" vehsPerHour="97.66718296462949" departLane="free"/>
  <flow id="JF267059" begin="5420" fromJunction="J4" toJunction="J0" end="5480" vehsPerHour="39.95185245192418" departLane="free"/>
  <flow id="JF267060" begin="5420" fromJunction="J4" toJunction="J3" end="5480" vehsPerHour="7.523314989007367" departLane="free"/>
  <flow id="JF267061" begin="5420" fromJunction="J4" toJunction="J6" end="5480" vehsPerHour="64.99412010863527" departLane="free"/>
  <flow id="JF267062" begin="5420" fromJunction="J4" toJunction="J7" end="5480" vehsPerHour="15.681811294801918" departLane="free"/>
  <flow id="JF267063" begin="5420" fromJunction="J5" toJunction="J0" end="5480" vehsPerHour="0.2858388502622996" departLane="free"/>
  <flow id="JF267064" begin="5420" fromJunction="J5" toJunction="J3" end="5480" vehsPerHour="11.2320418437317" departLane="free"/>
  <flow id="JF267065" begin="5420" fromJunction="J5" toJunction="J6" end="5480" vehsPerHour="3.566354660907749" departLane="free"/>
  <flow id="JF267066" begin="5420" fromJunction="J5" toJunction="J7" end="5480" vehsPerHour="17.42280116655688" departLane="free"/>
  <flow id="JF267067" begin="5420" fromJunction="J6" toJunction="J0" end="5480" vehsPerHour="44.47620663889993" departLane="free"/>
  <flow id="JF267068" begin="5420" fromJunction="J6" toJunction="J3" end="5480" vehsPerHour="58.49112476615966" departLane="free"/>
  <flow id="JF267069" begin="5420" fromJunction="J6" toJunction="J4" end="5480" vehsPerHour="49.2604319854933" departLane="free"/>
  <flow id="JF267070" begin="5420" fromJunction="J6" toJunction="J5" end="5480" vehsPerHour="58.39743007970382" departLane="free"/>
  <flow id="JF267071" begin="5420" fromJunction="J7" toJunction="J3" end="5480" vehsPerHour="56.563804841809265" departLane="free"/>
  <flow id="JF267072" begin="5420" fromJunction="J7" toJunction="J4" end="5480" vehsPerHour="34.58278851020454" departLane="free"/>
  <flow id="JF267073" begin="5420" fromJunction="J7" toJunction="J6" end="5480" vehsPerHour="6.513259430157365" departLane="free"/>
  <flow id="JF267074" begin="5480" fromJunction="J0" toJunction="J3" end="5540" vehsPerHour="65.1381865974772" departLane="free"/>
  <flow id="JF267075" begin="5480" fromJunction="J0" toJunction="J4" end="5540" vehsPerHour="59.988120604845776" departLane="free"/>
  <flow id="JF267076" begin="5480" fromJunction="J0" toJunction="J5" end="5540" vehsPerHour="29.563373153914046" departLane="free"/>
  <flow id="JF267077" begin="5480" fromJunction="J0" toJunction="J7" end="5540" vehsPerHour="38.7166848676598" departLane="free"/>
  <flow id="JF267078" begin="5480" fromJunction="J3" toJunction="J0" end="5540" vehsPerHour="21.234830014340456" departLane="free"/>
  <flow id="JF267079" begin="5480" fromJunction="J3" toJunction="J4" end="5540" vehsPerHour="75.35026690988052" departLane="free"/>
  <flow id="JF267080" begin="5480" fromJunction="J3" toJunction="J5" end="5540" vehsPerHour="104.73340012333283" departLane="free"/>
  <flow id="JF267081" begin="5480" fromJunction="J3" toJunction="J7" end="5540" vehsPerHour="134.8494816439045" departLane="free"/>
  <flow id="JF267082" begin="5480" fromJunction="J4" toJunction="J6" end="5540" vehsPerHour="11.162289704634718" departLane="free"/>
  <flow id="JF267083" begin="5480" fromJunction="J5" toJunction="J0" end="5540" vehsPerHour="34.66308370463592" departLane="free"/>
  <flow id="JF267084" begin="5480" fromJunction="J5" toJunction="J4" end="5540" vehsPerHour="28.14260544190741" departLane="free"/>
  <flow id="JF267085" begin="5480" fromJunction="J5" toJunction="J6" end="5540" vehsPerHour="5.563781455804808" departLane="free"/>
  <flow id="JF267086" begin="5480" fromJunction="J5" toJunction="J7" end="5540" vehsPerHour="1.3963798765847157" departLane="free"/>
  <flow id="JF267087" begin="5480" fromJunction="J6" toJunction="J0" end="5540" vehsPerHour="14.737245170534646" departLane="free"/>
  <flow id="JF267088" begin="5480" fromJunction="J6" toJunction="J3" end="5540" vehsPerHour="49.06751300443994" departLane="free"/>
  <flow id="JF267089" begin="5480" fromJunction="J6" toJunction="J4" end="5540" vehsPerHour="9.565963933415498" departLane="free"/>
  <flow id="JF267090" begin="5480" fromJunction="J7" toJunction="J3" end="5540" vehsPerHour="44.458707173000974" departLane="free"/>
  <flow id="JF267091" begin="5480" fromJunction="J7" toJunction="J4" end="5540" vehsPerHour="18.321333458775456" departLane="free"/>
  <flow id="JF267092" begin="5480" fromJunction="J7" toJunction="J5" end="5540" vehsPerHour="23.740099283496637" departLane="free"/>
  <flow id="JF267093" begin="5480" fromJunction="J7" toJunction="J6" end="5540" vehsPerHour="58.6219014740902" departLane="free"/>
  <flow id="JF267094" begin="5540" fromJunction="J0" toJunction="J3" end="5600" vehsPerHour="41.688048830028826" departLane="free"/>
  <flow id="JF267095" begin="5540" fromJunction="J0" toJunction="J6" end="5600" vehsPerHour="46.383759612542214" departLane="free"/>
  <flow id="JF267096" begin="5540" fromJunction="J3" toJunction="J0" end="5600" vehsPerHour="73.08814798165812" departLane="free"/>
  <flow id="JF267097" begin="5540" fromJunction="J3" toJunction="J4" end="5600" vehsPerHour="0.6271145540684846" departLane="free"/>
  <flow id="JF267098" begin="5540" fromJunction="J3" toJunction="J5" end="5600" vehsPerHour="98.85011850514519" departLane="free"/>
  <flow id="JF267099" begin="5540" fromJunction="J4" toJunction="J0" end="5600" vehsPerHour="57.45073107655192" departLane="free"/>
  <flow id="JF267100" begin="5540" fromJunction="J4" toJunction="J3" end="5600" vehsPerHour="27.523888760395355" departLane="free"/>
  <flow id="JF267101" begin="5540" fromJunction="J4" toJunction="J6" end="5600" vehsPerHour="48.510489809959964" departLane="free"/>