<?xml version="1.0" encoding="UTF-8"?>
<routes xmlns:xsi="http://www.w3.org/2001/XMLSchema-instance" xsi:noNamespaceSchemaLocation="http://sumo.dlr.de/xsd/routes_file.xsd">
  <flow id="JF268657" begin="0" fromJunction="J0" toJunction="J3" end="5000" vehsPerHour="45.99113236516819" departLane="free"/>
  <flow id="JF268658" begin="0" fromJunction="J3" toJunction="J0" end="5000" vehsPerHour="125.43848480131864" departLane="free"/>
  <flow id="JF268659" begin="0" fromJunction="J0" toJunction="J5" end="5000" vehsPerHour="110.16043149092185" departLane="free"/>
  <flow id="JF268660" begin="0" fromJunction="J0" toJunction="J4" end="5000" vehsPerHour="102.14614636147537" departLane="free"/>
  <flow id="JF268661" begin="0" fromJunction="J0" toJunction="J6" end="5000" vehsPerHour="69.98064999986731" departLane="free"/>
  <flow id="JF268662" begin="0" fromJunction="J0" toJunction="J7" end="5000" vehsPerHour="53.20589345369422" departLane="free"/>
  <flow id="JF268663" begin="0" fromJunction="J3" toJunction="J5" end="5000" vehsPerHour="61.67557963749918" departLane="free"/>
  <flow id="JF268664" begin="0" fromJunction="J3" toJunction="J4" end="5000" vehsPerHour="95.51627941494148" departLane="free"/>
  <flow id="JF268665" begin="0" fromJunction="J3" toJunction="J6" end="5000" vehsPerHour="129.55625569329308" departLane="free"/>
  <flow id="JF268666" begin="0" fromJunction="J3" toJunction="J7" end="5000" vehsPerHour="107.77699802850812" departLane="free"/>
  <flow id="JF268667" begin="0" fromJunction="J5" toJunction="J4" end="5000" vehsPerHour="50.83919342541568" departLane="free"/>
  <flow id="JF268668" begin="0" fromJunction="J5" toJunction="J6" end="5000" vehsPerHour="2.8549790438239153" departLane="free"/>
  <flow id="JF268669" begin="0" fromJunction="J5" toJunction="J7" end="5000" vehsPerHour="5.177799518632548" departLane="free"/>
  <flow id="JF268670" begin="0" fromJunction="J4" toJunction="J5" end="5000" vehsPerHour="39.39567912898316" departLane="free"/>
  <flow id="JF268671" begin="0" fromJunction="J4" toJunction="J6" end="5000" vehsPerHour="12.507397227099032" departLane="free"/>
  <flow id="JF268672" begin="0" fromJunction="J4" toJunction="J7" end="5000" vehsPerHour="39.92387980407717" departLane="free"/>
  <flow id="JF268673" begin="0" fromJunction="J6" toJunction="J5" end="5000" vehsPerHour="12.651466577588579" departLane="free"/>
  <flow id="JF268674" begin="0" fromJunction="J6" toJunction="J4" end="5000" vehsPerHour="36.50823623215719" departLane="free"/>
  <flow id="JF268675" begin="0" fromJunction="J6" toJunction="J7" end="5000" vehsPerHour="10.364576913787628" departLane="free"/>
  <flow id="JF268676" begin="0" fromJunction="J7" toJunction="J5" end="5000" vehsPerHour="52.87302242077052" departLane="free"/>
  <flow id="JF268677" begin="0" fromJunction="J7" toJunction="J4" end="5000" vehsPerHour="16.032281550273566" departLane="free"/>
  <flow id="JF268678" begin="0" fromJunction="J7" toJunction="J6" end="5000" vehsPerHour="46.584811278503594" departLane="free"/>
  <flow id="JF268679" begin="0" fromJunction="J5" toJunction="J0" end="5000" vehsPerHour="35.46101162871607" departLane="free"/>
  <flow id="JF268680" begin="0" fromJunction="J5" toJunction="J3" end="5000" vehsPerHour="56.073017351532236" departLane="free"/>
  <flow id="JF268681" begin="0" fromJunction="J4" toJunction="J0" end="5000" vehsPerHour="5.921701366232055" departLane="free"/>
  <flow id="JF268682" begin="0" fromJunction="J4" toJunction="J3" end="5000" vehsPerHour="63.245475024263165" departLane="free"/>
  <flow id="JF268683" begin="0" fromJunction="J6" toJunction="J0" end="5000" vehsPerHour="40.72427389161704" departLane="free"/>
  <flow id="JF268684" begin="0" fromJunction="J6" toJunction="J3" end="5000" vehsPerHour="29.810182850029793" departLane="free"/>
  <flow id="JF268685" begin="0" fromJunction="J7" toJunction="J0" end="5000" vehsPerHour="29.563579223936827" departLane="free"/>
  <flow id="JF268686" begin="0" fromJunction="J7" toJunction="J3" end="5000" vehsPerHour="5.58205083588004" departLane="free"/>
  <flow id="JF268687" begin="5000" fromJunction="J0" toJunction="J3" end="5060" vehsPerHour="95.70357690012833" departLane="free"/>
  <flow id="JF268688" begin="5000" fromJunction="J0" toJunction="J4" end="5060" vehsPerHour="122.72480521525041" departLane="free"/>
  <flow id="JF268689" begin="5000" fromJunction="J0" toJunction="J5" end="5060" vehsPerHour="77.66498974467179" departLane="free"/>
  <flow id="JF268690" begin="5000" fromJunction="J0" toJunction="J6" end="5060" vehsPerHour="5.129919690092968" departLane="free"/>
  <flow id="JF268691" begin="5000" fromJunction="J0" toJunction="J7" end="5060" vehsPerHour="17.449022276337278" departLane="free"/>
  <flow id="JF268692" begin="5000" fromJunction="J3" toJunction="J4" end="5060" vehsPerHour="90.02711621197436" departLane="free"/>
  <flow id="JF268693" begin="5000" fromJunction="J3" toJunction="J5" end="5060" vehsPerHour="96.45869041663326" departLane="free"/>
  <flow id="JF268694" begin="5000" fromJunction="J3" toJunction="J7" end="5060" vehsPerHour="11.49230686229865" departLane="free"/>
  <flow id="JF268695" begin="5000" fromJunction="J4" toJunction="J6" end="5060" vehsPerHour="12.382615938305989" departLane="free"/>
  <flow id="JF268696" begin="5000" fromJunction="J4" toJunction="J7" end="5060" vehsPerHour="21.036230220878355" departLane="free"/>
  <flow id="JF268697" begin="5000" fromJunction="J5" toJunction="J3" end="5060" vehsPerHour="22.91343169581991" departLane="free"/>
  <flow id="JF268698" begin="5000" fromJunction="J5" toJunction="J4" end="5060" vehsPerHour="62.00464325114033" departLane="free"/>
  <flow id="JF268699" begin="5000" fromJunction="J5" toJunction="J6" end="5060" vehsPerHour="54.18141486425266" departLane="free"/>
  <flow id="JF268700" begin="5000" fromJunction="J5" toJunction="J7" end="5060" vehsPerHour="61.7566756154942" departLane="free"/>
  <flow id="JF268701" begin="5000" fromJunction="J6" toJunction="J0" end="5060" vehsPerHour="14.731005516907546" departLane="free"/>
  <flow id="JF268702" begin="5000" fromJunction="J6" toJunction="J3" end="5060" vehsPerHour="14.59684720009812" departLane="free"/>
  <flow id="JF268703" begin="5000" fromJunction="J6" toJunction="J5" end="5060" vehsPerHour="66.44102523549317" departLane="free"/>
  <flow id="JF268704" begin="5000" fromJunction="J6" toJunction="J7" end="5060" vehsPerHour="47.953117526927336" departLane="free"/>
  <flow id="JF268705" begin="5000" fromJunction="J7" toJunction="J4" end="5060" vehsPerHour="45.63280860737549" departLane="free"/>
  <flow id="JF268706" begin="5000" fromJunction="J7" toJunction="J5" end="5060" vehsPerHour="2.9320257069756797" departLane="free"/>
  <flow id="JF268707" begin="5000" fromJunction="J7" toJunction="J6" end="5060" vehsPerHour="5.155921996321337" departLane="free"/>
  <flow id="JF268708" begin="5060" fromJunction="J0" toJunction="J4" end="5120" vehsPerHour="60.366140530396905" departLane="free"/>
  <flow id="JF268709" begin="5060" fromJunction="J0" toJunction="J5" end="5120" vehsPerHour="34.0743260342755" departLane="free"/>
  <flow id="JF268710" begin="5060" fromJunction="J0" toJunction="J7" end="5120" vehsPerHour="92.87718289439707" departLane="free"/>
  <flow id="JF268711" begin="5060" fromJunction="J3" toJunction="J0" end="5120" vehsPerHour="62.71081633499771" departLane="free"/>
  <flow id="JF268712" begin="5060" fromJunction="J3" toJunction="J4" end="5120" vehsPerHour="78.28774937386005" departLane="free"/>
  <flow id="JF268713" begin="5060" fromJunction="J3" toJunction="J6" end="5120" vehsPerHour="42.56358792636241" departLane="free"/>
  <flow id="JF268714" begin="5060" fromJunction="J4" toJunction="J0" end="5120" vehsPerHour="1.1362739499674543" departLane="free"/>
  <flow id="JF268715" begin="5060" fromJunction="J4" toJunction="J3" end="5120" vehsPerHour="21.53246721750207" departLane="free"/>
  <flow id="JF268716" begin="5060" fromJunction="J4" toJunction="J5" end="5120" vehsPerHour="32.287265685705094" departLane="free"/>
  <flow id="JF268717" begin="5060" fromJunction="J4" toJunction="J7" end="5120" vehsPerHour="56.8620878640037" departLane="free"/>
  <flow id="JF268718" begin="5060" fromJunction="J5" toJunction="J3" end="5120" vehsPerHour="44.220576268694835" departLane="free"/>
  <flow id="JF268719" begin="5060" fromJunction="J5" toJunction="J6" end="5120" vehsPerHour="41.13493124190737" departLane="free"/>
  <flow id="JF268720" begin="5060" fromJunction="J6" toJunction="J0" end="5120" vehsPerHour="17.9278782711177" departLane="free"/>
  <flow id="JF268721" begin="5060" fromJunction="J6" toJunction="J3" end="5120" vehsPerHour="40.1594407438495" departLane="free"/>
  <flow id="JF268722" begin="5060" fromJunction="J6" toJunction="J4" end="5120" vehsPerHour="57.18976163103026" departLane="free"/>
  <flow id="JF268723" begin="5060" fromJunction="J6" toJunction="J5" end="5120" vehsPerHour="1.3795640636056763" departLane="free"/>
  <flow id="JF268724" begin="5060" fromJunction="J7" toJunction="J0" end="5120" vehsPerHour="32.77196884592234" departLane="free"/>
  <flow id="JF268725" begin="5060" fromJunction="J7" toJunction="J3" end="5120" vehsPerHour="59.442628656326036" departLane="free"/>
  <flow id="JF268726" begin="5060" fromJunction="J7" toJunction="J5" end="5120" vehsPerHour="29.50683795945835" departLane="free"/>
  <flow id="JF268727" begin="5060" fromJunction="J7" toJunction="J6" end="5120" vehsPerHour="33.53450467074658" departLane="free"/>
  <flow id="JF268728" begin="5120" fromJunction="J0" toJunction="J3" end="5180" vehsPerHour="89.14523622674999" departLane="free"/>
  <flow id="JF268729" begin="5120" fromJunction="J0" toJunction="J5" end="5180" vehsPerHour="68.53352941075794" departLane="free"/>
  <flow id="JF268730" begin="5120" fromJunction="J0" toJunction="J7" end="5180" vehsPerHour="82.5666266241944" departLane="free"/>
  <flow id="JF268731" begin="5120" fromJunction="J3" toJunction="J0" end="5180" vehsPerHour="54.55933827960414" departLane="free"/>
  <flow id="JF268732" begin="5120" fromJunction="J3" toJunction="J4" end="5180" vehsPerHour="70.91985489570968" departLane="free"/>
  <flow id="JF268733" begin="5120" fromJunction="J3" toJunction="J5" end="5180" vehsPerHour="40.055708536729675" departLane="free"/>
  <flow id="JF268734" begin="5120" fromJunction="J4" toJunction="J0" end="5180" vehsPerHour="28.36535058936469" departLane="free"/>
  <flow id="JF268735" begin="5120" fromJunction="J5" toJunction="J3" end="5180" vehsPerHour="23.846950178540073" departLane="free"/>
  <flow id="JF268736" begin="5120" fromJunction="J5" toJunction="J4" end="5180" vehsPerHour="36.15309250621778" departLane="free"/>
  <flow id="JF268737" begin="5120" fromJunction="J5" toJunction="J7" end="5180" vehsPerHour="10.110538581108669" departLane="free"/>
  <flow id="JF268738" begin="5120" fromJunction="J6" toJunction="J0" end="5180" vehsPerHour="57.54239184940826" departLane="free"/>
  <flow id="JF268739" begin="5120" fromJunction="J6" toJunction="J3" end="5180" vehsPerHour="40.26994110537219" departLane="free"/>
  <flow id="JF268740" begin="5120" fromJunction="J6" toJunction="J5" end="5180" vehsPerHour="14.241364426756387" departLane="free"/>
  <flow id="JF268741" begin="5120" fromJunction="J6" toJunction="J7" end="5180" vehsPerHour="42.018526762860304" departLane="free"/>
  <flow id="JF268742" begin="5120" fromJunction="J7" toJunction="J0" end="5180" vehsPerHour="33.17896080028278" departLane="free"/>
  <flow id="JF268743" begin="5120" fromJunction="J7" toJunction="J3" end="5180" vehsPerHour="3.8761675732172933" departLane="free"/>
  <flow id="JF268744" begin="5120" fromJunction="J7" toJunction="J4" end="5180" vehsPerHour="50.967149563340584" departLane="free"/>
  <flow id="JF268745" begin="5120" fromJunction="J7" toJunction="J5" end="5180" vehsPerHour="58.95079747212227" departLane="free"/>
  <flow id="JF268746" begin="5120" fromJunction="J7" toJunction="J6" end="5180" vehsPerHour="0.6115731064353458" departLane="free"/>
  <flow id="JF268747" begin="5180" fromJunction="J0" toJunction="J4" end="5240" vehsPerHour="130.6877239039791" departLane="free"/>
  <flow id="JF268748" begin="5180" fromJunction="J0" toJunction="J5" end="5240" vehsPerHour="63.837166783725436" departLane="free"/>
  <flow id="JF268749" begin="5180" fromJunction="J0" toJunction="J6" end="5240" vehsPerHour="67.88812018227965" departLane="free"/>
  <flow id="JF268750" begin="5180" fromJunction="J0" toJunction="J7" end="5240" vehsPerHour="114.42541389258214" departLane="free"/>
  <flow id="JF268751" begin="5180" fromJunction="J3" toJunction="J5" end="5240" vehsPerHour="5.712637448776627" departLane="free"/>
  <flow id="JF268752" begin="5180" fromJunction="J4" toJunction="J0" end="5240" vehsPerHour="52.55125136996986" departLane="free"/>
  <flow id="JF268753" begin="5180" fromJunction="J4" toJunction="J6" end="5240" vehsPerHour="18.568541290305554" departLane="free"/>
  <flow id="JF268754" begin="5180" fromJunction="J4" toJunction="J7" end="5240" vehsPerHour="40.15669547291332" departLane="free"/>
  <flow id="JF268755" begin="5180" fromJunction="J5" toJunction="J4" end="5240" vehsPerHour="12.559952576036673" departLane="free"/>
  <flow id="JF268756" begin="5180" fromJunction="J5" toJunction="J6" end="5240" vehsPerHour="10.577229223230528" departLane="free"/>
  <flow id="JF268757" begin="5180" fromJunction="J5" toJunction="J7" end="5240" vehsPerHour="4.714885396696334" departLane="free"/>
  <flow id="JF268758" begin="5180" fromJunction="J6" toJunction="J0" end="5240" vehsPerHour="29.964247372599207" departLane="free"/>
  <flow id="JF268759" begin="5180" fromJunction="J6" toJunction="J3" end="5240" vehsPerHour="59.64595503174843" departLane="free"/>
  <flow id="JF268760" begin="5180" fromJunction="J6" toJunction="J4" end="5240" vehsPerHour="13.61925991929422" departLane="free"/>
  <flow id="JF268761" begin="5180" fromJunction="J6" toJunction="J5" end="5240" vehsPerHour="58.061297639813446" departLane="free"/>
  <flow id="JF268762" begin="5180" fromJunction="J6" toJunction="J7" end="5240" vehsPerHour="63.18401474735819" departLane="free"/>
  <flow id="JF268763" begin="5180" fromJunction="J7" toJunction="J3" end="5240" vehsPerHour="0.9111731654125156" departLane="free"/>
  <flow id="JF268764" begin="5180" fromJunction="J7" toJunction="J4" end="5240" vehsPerHour="59.029241321062806" departLane="free"/>
  <flow id="JF268765" begin="5180" fromJunction="J7" toJunction="J6" end="5240" vehsPerHour="2.297957922296351" departLane="free"/>
  <flow id="JF268766" begin="5240" fromJunction="J0" toJunction="J4" end="5300" vehsPerHour="76.11038087131979" departLane="free"/>
  <flow id="JF268767" begin="5240" fromJunction="J0" toJunction="J5" end="5300" vehsPerHour="97.33260962187434" departLane="free"/>
  <flow id="JF268768" begin="5240" fromJunction="J0" toJunction="J6" end="5300" vehsPerHour="6.156837165931439" departLane="free"/>
  <flow id="JF268769" begin="5240" fromJunction="J0" toJunction="J7" end="5300" vehsPerHour="67.52367530331804" departLane="free"/>
  <flow id="JF268770" begin="5240" fromJunction="J3" toJunction="J4" end="5300" vehsPerHour="45.74741033670622" departLane="free"/>
  <flow id="JF268771" begin="5240" fromJunction="J3" toJunction="J6" end="5300" vehsPerHour="74.42576392249477" departLane="free"/>
  <flow id="JF268772" begin="5240" fromJunction="J4" toJunction="J0" end="5300" vehsPerHour="34.75994350858529" departLane="free"/>
  <flow id="JF268773" begin="5240" fromJunction="J4" toJunction="J3" end="5300" vehsPerHour="65.45761997696992" departLane="free"/>
  <flow id="JF268774" begin="5240" fromJunction="J4" toJunction="J5" end="5300" vehsPerHour="57.083190071926175" departLane="free"/>
  <flow id="JF268775" begin="5240" fromJunction="J4" toJunction="J6" end="5300" vehsPerHour="43.826405224408326" departLane="free"/>
  <flow id="JF268776" begin="5240" fromJunction="J5" toJunction="J0" end="5300" vehsPerHour="55.02624990919415" departLane="free"/>
  <flow id="JF268777" begin="5240" fromJunction="J5" toJunction="J3" end="5300" vehsPerHour="56.76831154649933" departLane="free"/>
  <flow id="JF268778" begin="5240" fromJunction="J5" toJunction="J4" end="5300" vehsPerHour="67.71429864229552" departLane="free"/>
  <flow id="JF268779" begin="5240" fromJunction="J5" toJunction="J6" end="5300" vehsPerHour="18.820326154418876" departLane="free"/>
  <flow id="JF268780" begin="5240" fromJunction="J5" toJunction="J7" end="5300" vehsPerHour="38.37897910449066" departLane="free"/>
  <flow id="JF268781" begin="5240" fromJunction="J6" toJunction="J0" end="5300" vehsPerHour="64.21881872386696" departLane="free"/>
  <flow id="JF268782" begin="5240" fromJunction="J6" toJunction="J3" end="5300" vehsPerHour="16.38073690246126" departLane="free"/>
  <flow id="JF268783" begin="5240" fromJunction="J6" toJunction="J4" end="5300" vehsPerHour="46.925994732866855" departLane="free"/>
  <flow id="JF268784" begin="5240" fromJunction="J6" toJunction="J5" end="5300" vehsPerHour="15.72924758765423" departLane="free"/>
  <flow id="JF268785" begin="5240" fromJunction="J6" toJunction="J7" end="5300" vehsPerHour="5.910596258724267" departLane="free"/>
  <flow id="JF268786" begin="5240" fromJunction="J7" toJunction="J0" end="5300" vehsPerHour="54.8697740895737" departLane="free"/>
  <flow id="JF268787" begin="5240" fromJunction="J7" toJunction="J3" end="5300" vehsPerHour="51.04194309357398" departLane="free"/>
  <flow id="JF268788" begin="5240" fromJunction="J7" toJunction="J4" end="5300" vehsPerHour="37.130867192206786" departLane="free"/>
  <flow id="JF268789" begin="5240" fromJunction="J7" toJunction="J5" end="5300" vehsPerHour="63.746354752905205" departLane="free"/>
  <flow id="JF268790" begin="5300" fromJunction="J0" toJunction="J3" end="5360" vehsPerHour="110.45211356339935" departLane="free"/>
  <flow id="JF268791" begin="5300" fromJunction="J0" toJunction="J5" end="5360" vehsPerHour="74.29431256320389" departLane="free"/>
  <flow id="JF268792" begin="5300" fromJunction="J0" toJunction="J6" end="5360" vehsPerHour="0.26688757131169766" departLane="free"/>
  <flow id="JF268793" begin="5300" fromJunction="J0" toJunction="J7" end="5360" vehsPerHour="10.977688957531203" departLane="free"/>
  <flow id="JF268794" begin="5300" fromJunction="J3" toJunction="J4" end="5360" vehsPerHour="13.627572363960468" departLane="free"/>
  <flow id="JF268795" begin="5300" fromJunction="J3" toJunction="J5" end="5360" vehsPerHour="49.112454707537154" departLane="free"/>
  <flow id="JF268796" begin="5300" fromJunction="J3" toJunction="J6" end="5360" vehsPerHour="50.79032637919752" departLane="free"/>
  <flow id="JF268797" begin="5300" fromJunction="J3" toJunction="J7" end="5360" vehsPerHour="59.7275030498149" departLane="free"/>
  <flow id="JF268798" begin="5300" fromJunction="J4" toJunction="J0" end="5360" vehsPerHour="29.774587131312458" departLane="free"/>
  <flow id="JF268799" begin="5300" fromJunction="J4" toJunction="J5" end="5360" vehsPerHour="15.417529181430016" departLane="free"/>
  <flow id="JF268800" begin="5300" fromJunction="J4" toJunction="J6" end="5360" vehsPerHour="50.37581186027551" departLane="free"/>
  <flow id="JF268801" begin="5300" fromJunction="J4" toJunction="J7" end="5360" vehsPerHour="19.54786503413523" departLane="free"/>
  <flow id="JF268802" begin="5300" fromJunction="J5" toJunction="J0" end="5360" vehsPerHour="3.320897282377551" departLane="free"/>
  <flow id="JF268803" begin="5300" fromJunction="J5" toJunction="J3" end="5360" vehsPerHour="43.028815621798984" departLane="free"/>
  <flow id="JF268804" begin="5300" fromJunction="J5" toJunction="J4" end="5360" vehsPerHour="67.15542597673748" departLane="free"/>
  <flow id="JF268805" begin="5300" fromJunction="J5" toJunction="J6" end="5360" vehsPerHour="35.4669981644295" departLane="free"/>
  <flow id="JF268806" begin="5300" fromJunction="J6" toJunction="J0" end="5360" vehsPerHour="58.193853853668976" departLane="free"/>
  <flow id="JF268807" begin="5300" fromJunction="J6" toJunction="J3" end="5360" vehsPerHour="65.90751550665222" departLane="free"/>
  <flow id="JF268808" begin="5300" fromJunction="J6" toJunction="J4" end="5360" vehsPerHour="57.78166136279643" departLane="free"/>
  <flow id="JF268809" begin="5300" fromJunction="J6" toJunction="J5" end="5360" vehsPerHour="68.6526293321465" departLane="free"/>
  <flow id="JF268810" begin="5300" fromJunction="J6" toJunction="J7" end="5360" vehsPerHour="10.84632977806922" departLane="free"/>
  <flow id="JF268811" begin="5300" fromJunction="J7" toJunction="J0" end="5360" vehsPerHour="44.027766677508545" departLane="free"/>
  <flow id="JF268812" begin="5300" fromJunction="J7" toJunction="J4" end="5360" vehsPerHour="66.6903240142946" departLane="free"/>
  <flow id="JF268813" begin="5300" fromJunction="J7" toJunction="J5" end="5360" vehsPerHour="1.204596756968456" departLane="free"/>
  <flow id="JF268814" begin="5360" fromJunction="J0" toJunction="J4" end="5420" vehsPerHour="128.38607494423636" departLane="free"/>
  <flow id="JF268815" begin="5360" fromJunction="J0" toJunction="J5" end="5420" vehsPerHour="57.33051226681973" departLane="free"/>
  <flow id="JF268816" begin="5360" fromJunction="J0" toJunction="J7" end="5420" vehsPerHour="75.20129673952026" departLane="free"/>
  <flow id="JF268817" begin="5360" fromJunction="J3" toJunction="J5" end="5420" vehsPerHour="127.71745497517836" departLane="free"/>
  <flow id="JF268818" begin="5360" fromJunction="J3" toJunction="J6" end="5420" vehsPerHour="44.43947745409392" departLane="free"/>
  <flow id="JF268819" begin="5360" fromJunction="J4" toJunction="J3" end="5420" vehsPerHour="64.13812092660883" departLane="free"/>
  <flow id="JF268820" begin="5360" fromJunction="J4" toJunction="J5" end="5420" vehsPerHour="3.6021972467851735" departLane="free"/>
  <flow id="JF268821" begin="5360" fromJunction="J4" toJunction="J6" end="5420" vehsPerHour="7.257075975749513" departLane="free"/>
  <flow id="JF268822" begin="5360" fromJunction="J5" toJunction="J0" end="5420" vehsPerHour="4.43799170480645" departLane="free"/>
  <flow id="JF268823" begin="5360" fromJunction="J5" toJunction="J4" end="5420" vehsPerHour="22.58157221356026" departLane="free"/>
  <flow id="JF268824" begin="5360" fromJunction="J5" toJunction="J6" end="5420" vehsPerHour="26.17062166056953" departLane="free"/>
  <flow id="JF268825" begin="5360" fromJunction="J5" toJunction="J7" end="5420" vehsPerHour="33.51502971364494" departLane="free"/>
  <flow id="JF268826" begin="5360" fromJunction="J6" toJunction="J0" end="5420" vehsPerHour="48.30159209704917" departLane="free"/>
  <flow id="JF268827" begin="5360" fromJunction="J6" toJunction="J3" end="5420" vehsPerHour="6.12670874585532" departLane="free"/>
  <flow id="JF268828" begin="5360" fromJunction="J6" toJunction="J4" end="5420" vehsPerHour="25.2369971751056" departLane="free"/>
  <flow id="JF268829" begin="5360" fromJunction="J6" toJunction="J5" end="5420" vehsPerHour="37.90964556511722" departLane="free"/>
  <flow id="JF268830" begin="5360" fromJunction="J6" toJunction="J7" end="5420" vehsPerHour="13.301204904098661" departLane="free"/>
  <flow id="JF268831" begin="5360" fromJunction="J7" toJunction="J4" end="5420" vehsPerHour="66.23653797278924" departLane="free"/>
  <flow id="JF268832" begin="5360" fromJunction="J7" toJunction="J6" end="5420" vehsPerHour="39.79426929470466" departLane="free"/>
  <flow id="JF268833" begin="5420" fromJunction="J0" toJunction="J4" end="5480" vehsPerHour="34.94616026187354" departLane="free"/>
  <flow id="JF268834" begin="5420" fromJunction="J0" toJunction="J5" end="5480" vehsPerHour="23.155505260883032" departLane="free"/>
  <flow id="JF268835" begin="5420" fromJunction="J3" toJunction="J0" end="5480" vehsPerHour="56.76845285591283" departLane="free"/>
  <flow id="JF268836" begin="5420" fromJunction="J3" toJunction="J5" end="5480" vehsPerHour="79.56507960313476" departLane="free"/>
  <flow id="JF268837" begin="5420" fromJunction="J3" toJunction="J6" end="5480" vehsPerHour="79.64887682409798" departLane="free"/>
  <flow id="JF268838" begin="5420" fromJunction="J3" toJunction="J7" end="5480" vehsPerHour="59.78099954120901" departLane="free"/>
  <flow id="JF268839" begin="5420" fromJunction="J4" toJunction="J0" end="5480" vehsPerHour="24.029133840502226" departLane="free"/>
  <flow id="JF268840" begin="5420" fromJunction="J4" toJunction="J3" end="5480" vehsPerHour="62.53638037094746" departLane="free"/>
  <flow id="JF268841" begin="5420" fromJunction="J4" toJunction="J5" end="5480" vehsPerHour="14.13756962961523" departLane="free"/>
  <flow id="JF268842" begin="5420" fromJunction="J4" toJunction="J6" end="5480" vehsPerHour="17.541023983641516" departLane="free"/>
  <flow id="JF268843" begin="5420" fromJunction="J4" toJunction="J7" end="5480" vehsPerHour="34.456509329596514" departLane="free"/>
  <flow id="JF268844" begin="5420" fromJunction="J5" toJunction="J0" end="5480" vehsPerHour="46.40370611277345" departLane="free"/>
  <flow id="JF268845" begin="5420" fromJunction="J5" toJunction="J3" end="5480" vehsPerHour="29.500714139395544" departLane="free"/>
  <flow id="JF268846" begin="5420" fromJunction="J5" toJunction="J7" end="5480" vehsPerHour="29.05023447409304" departLane="free"/>
  <flow id="JF268847" begin="5420" fromJunction="J6" toJunction="J0" end="5480" vehsPerHour="22.038629841103123" departLane="free"/>
  <flow id="JF268848" begin="5420" fromJunction="J6" toJunction="J3" end="5480" vehsPerHour="23.043510864290905" departLane="free"/>
  <flow id="JF268849" begin="5420" fromJunction="J6" toJunction="J7" end="5480" vehsPerHour="58.94153555433067" departLane="free"/>
  <flow id="JF268850" begin="5420" fromJunction="J7" toJunction="J0" end="5480" vehsPerHour="1.8528699297128761" departLane="free"/>
  <flow id="JF268851" begin="5420" fromJunction="J7" toJunction="J4" end="5480" vehsPerHour="7.455098838245905" departLane="free"/>
  <flow id="JF268852" begin="5420" fromJunction="J7" toJunction="J5" end="5480" vehsPerHour="54.890283292121076" departLane="free"/>
  <flow id="JF268853" begin="5480" fromJunction="J0" toJunction="J3" end="5540" vehsPerHour="132.76911495992803" departLane="free"/>
  <flow id="JF268854" begin="5480" fromJunction="J0" toJunction="J6" end="5540" vehsPerHour="133.5736668745327" departLane="free"/>
  <flow id="JF268855" begin="5480" fromJunction="J0" toJunction="J7" end="5540" vehsPerHour="11.429611794797658" departLane="free"/>
  <flow id="JF268856" begin="5480" fromJunction="J3" toJunction="J0" end="5540" vehsPerHour="85.40009389130094" departLane="free"/>
  <flow id="JF268857" begin="5480" fromJunction="J3" toJunction="J6" end="5540" vehsPerHour="75.89679983131519" departLane="free"/>
  <flow id="JF268858" begin="5480" fromJunction="J3" toJunction="J7" end="5540" vehsPerHour="106.48307601540765" departLane="free"/>
  <flow id="JF268859" begin="5480" fromJunction="J4" toJunction="J0" end="5540" vehsPerHour="49.31368258632029" departLane="free"/>
  <flow id="JF268860" begin="5480" fromJunction="J4" toJunction="J5" end="5540" vehsPerHour="59.64471250215958" departLane="free"/>
  <flow id="JF268861" begin="5480" fromJunction="J5" toJunction="J0" end="5540" vehsPerHour="17.142654274377545" departLane="free"/>
  <flow id="JF268862" begin="5480" fromJunction="J5" toJunction="J3" end="5540" vehsPerHour="30.451406253522947" departLane="free"/>
  <flow id="JF268863" begin="5480" fromJunction="J5" toJunction="J6" end="5540" vehsPerHour="14.686493868383762" departLane="free"/>
  <flow id="JF268864" begin="5480" fromJunction="J5" toJunction="J7" end="5540" vehsPerHour="56.81175119930569" departLane="free"/>
  <flow id="JF268865" begin="5480" fromJunction="J6" toJunction="J0" end="5540" vehsPerHour="13.405296514294434" departLane="free"/>
  <flow id="JF268866" begin="5480" fromJunction="J6" toJunction="J3" end="5540" vehsPerHour="2.808233790161372" departLane="free"/>
  <flow id="JF268867" begin="5480" fromJunction="J6" toJunction="J4" end="5540" vehsPerHour="24.325833606818854" departLane="free"/>
  <flow id="JF268868" begin="5480" fromJunction="J6" toJunction="J5" end="5540" vehsPerHour="2.764921131189357" departLane="free"/>
  <flow id="JF268869" begin="5480" fromJunction="J6" toJunction="J7" end="5540" vehsPerHour="24.906023112821913" departLane="free"/>
  <flow id="JF268870" begin="5480" fromJunction="J7" toJunction="J4" end="5540" vehsPerHour="63.77581673940072" departLane="free"/>
  <flow id="JF268871" begin="5480" fromJunction="J7" toJunction="J6" end="5540" vehsPerHour="2.9096099736299847" departLane="free"/>
  <flow id="JF268872" begin="5540" fromJunction="J0" toJunction="J3" end="5600" vehsPerHour="85.78483259747736" departLane="free"/>
  <flow id="JF268873" begin="5540" fromJunction="J0" toJunction="J4" end="5600" vehsPerHour="117.93456493052278" departLane="free"/>
  <flow id="JF268874" begin="5540" fromJunction="J0" toJunction="J5" end="5600" vehsPerHour="128.93851892829127" departLane="free"/>
  <flow id="JF268875" begin="5540" fromJunction="J0" toJunction="J6" end="5600" vehsPerHour="64.03788781057014" departLane="free"/>
  <flow id="JF268876" begin="5540" fromJunction="J3" toJunction="J0" end="5600" vehsPerHour="90.18194903884174" departLane="free"/>
  <flow id="JF268877" begin="5540" fromJunction="J3" toJunction="J5" end="5600" vehsPerHour="110.63999151060987" departLane="free"/>
  <flow id="JF268878" begin="5540" fromJunction="J3" toJunction="J6" end="5600" vehsPerHour="60.44457958772267" departLane="free"/>
  <flow id="JF268879" begin="5540" fromJunction="J4" toJunction="J0" end="5600" vehsPerHour="43.43834482460259" departLane="free"/>
  <flow id="JF268880" begin="5540" fromJunction="J4" toJunction="J3" end="5600" vehsPerHour="66.91021346179392" departLane="free"/>
  <flow id="JF268881" begin="5540" fromJunction="J4" toJunction="J5" end="5600" vehsPerHour="62.6157665548282" departLane="free"/>
  <flow id="JF268882" begin="5540" fromJunction="J4" toJunction="J6" end="5600" vehsPerHour="22.121290049323566" departLane="free"/>