<?xml version="1.0" encoding="UTF-8"?>
<routes xmlns:xsi="http://www.w3.org/2001/XMLSchema-instance" xsi:noNamespaceSchemaLocation="http://sumo.dlr.de/xsd/routes_file.xsd">
  <flow id="JF261518" begin="0" fromJunction="J0" toJunction="J3" end="5000" vehsPerHour="249.08145250935326" departLane="free"/>
  <flow id="JF261519" begin="0" fromJunction="J3" toJunction="J0" end="5000" vehsPerHour="116.25429141535179" departLane="free"/>
  <flow id="JF261520" begin="0" fromJunction="J0" toJunction="J5" end="5000" vehsPerHour="36.68208772366548" departLane="free"/>
  <flow id="JF261521" begin="0" fromJunction="J0" toJunction="J4" end="5000" vehsPerHour="100.04596736402517" departLane="free"/>
  <flow id="JF261522" begin="0" fromJunction="J0" toJunction="J6" end="5000" vehsPerHour="9.71354693376393" departLane="free"/>
  <flow id="JF261523" begin="0" fromJunction="J0" toJunction="J7" end="5000" vehsPerHour="27.74352862457551" departLane="free"/>
  <flow id="JF261524" begin="0" fromJunction="J3" toJunction="J5" end="5000" vehsPerHour="81.07355133969473" departLane="free"/>
  <flow id="JF261525" begin="0" fromJunction="J3" toJunction="J4" end="5000" vehsPerHour="89.7065996598194" departLane="free"/>
  <flow id="JF261526" begin="0" fromJunction="J3" toJunction="J6" end="5000" vehsPerHour="15.958153326012118" departLane="free"/>
  <flow id="JF261527" begin="0" fromJunction="J3" toJunction="J7" end="5000" vehsPerHour="28.167759321844585" departLane="free"/>
  <flow id="JF261528" begin="0" fromJunction="J5" toJunction="J4" end="5000" vehsPerHour="16.49861391355499" departLane="free"/>
  <flow id="JF261529" begin="0" fromJunction="J5" toJunction="J6" end="5000" vehsPerHour="57.71912659753514" departLane="free"/>
  <flow id="JF261530" begin="0" fromJunction="J5" toJunction="J7" end="5000" vehsPerHour="24.033821834193397" departLane="free"/>
  <flow id="JF261531" begin="0" fromJunction="J4" toJunction="J5" end="5000" vehsPerHour="27.930511200519486" departLane="free"/>
  <flow id="JF261532" begin="0" fromJunction="J4" toJunction="J6" end="5000" vehsPerHour="6.197156929443493" departLane="free"/>
  <flow id="JF261533" begin="0" fromJunction="J4" toJunction="J7" end="5000" vehsPerHour="6.57647018303528" departLane="free"/>
  <flow id="JF261534" begin="0" fromJunction="J6" toJunction="J5" end="5000" vehsPerHour="67.24094266200562" departLane="free"/>
  <flow id="JF261535" begin="0" fromJunction="J6" toJunction="J4" end="5000" vehsPerHour="55.235373925086854" departLane="free"/>
  <flow id="JF261536" begin="0" fromJunction="J6" toJunction="J7" end="5000" vehsPerHour="56.793396088324656" departLane="free"/>
  <flow id="JF261537" begin="0" fromJunction="J7" toJunction="J5" end="5000" vehsPerHour="55.85776576365903" departLane="free"/>
  <flow id="JF261538" begin="0" fromJunction="J7" toJunction="J4" end="5000" vehsPerHour="16.00422649591705" departLane="free"/>
  <flow id="JF261539" begin="0" fromJunction="J7" toJunction="J6" end="5000" vehsPerHour="5.424944665906091" departLane="free"/>
  <flow id="JF261540" begin="0" fromJunction="J5" toJunction="J0" end="5000" vehsPerHour="58.602050044919785" departLane="free"/>
  <flow id="JF261541" begin="0" fromJunction="J5" toJunction="J3" end="5000" vehsPerHour="24.08462182416853" departLane="free"/>
  <flow id="JF261542" begin="0" fromJunction="J4" toJunction="J0" end="5000" vehsPerHour="56.92064325066365" departLane="free"/>
  <flow id="JF261543" begin="0" fromJunction="J4" toJunction="J3" end="5000" vehsPerHour="22.871237276433042" departLane="free"/>
  <flow id="JF261544" begin="0" fromJunction="J6" toJunction="J0" end="5000" vehsPerHour="4.576722926954483" departLane="free"/>
  <flow id="JF261545" begin="0" fromJunction="J6" toJunction="J3" end="5000" vehsPerHour="20.99254322404509" departLane="free"/>
  <flow id="JF261546" begin="0" fromJunction="J7" toJunction="J0" end="5000" vehsPerHour="26.1623006290134" departLane="free"/>
  <flow id="JF261547" begin="0" fromJunction="J7" toJunction="J3" end="5000" vehsPerHour="60.089019247269405" departLane="free"/>
  <flow id="JF261548" begin="5000" fromJunction="J0" toJunction="J3" end="5060" vehsPerHour="91.84808812834903" departLane="free"/>
  <flow id="JF261549" begin="5000" fromJunction="J0" toJunction="J4" end="5060" vehsPerHour="95.4379321051754" departLane="free"/>
  <flow id="JF261550" begin="5000" fromJunction="J0" toJunction="J7" end="5060" vehsPerHour="92.63064169324133" departLane="free"/>
  <flow id="JF261551" begin="5000" fromJunction="J3" toJunction="J0" end="5060" vehsPerHour="46.26271491569074" departLane="free"/>
  <flow id="JF261552" begin="5000" fromJunction="J3" toJunction="J5" end="5060" vehsPerHour="134.814480408328" departLane="free"/>
  <flow id="JF261553" begin="5000" fromJunction="J3" toJunction="J7" end="5060" vehsPerHour="113.33963199108244" departLane="free"/>
  <flow id="JF261554" begin="5000" fromJunction="J4" toJunction="J0" end="5060" vehsPerHour="10.646939530832567" departLane="free"/>
  <flow id="JF261555" begin="5000" fromJunction="J4" toJunction="J3" end="5060" vehsPerHour="45.2121926351438" departLane="free"/>
  <flow id="JF261556" begin="5000" fromJunction="J4" toJunction="J6" end="5060" vehsPerHour="63.296395866848805" departLane="free"/>
  <flow id="JF261557" begin="5000" fromJunction="J5" toJunction="J3" end="5060" vehsPerHour="3.190715397651859" departLane="free"/>
  <flow id="JF261558" begin="5000" fromJunction="J5" toJunction="J4" end="5060" vehsPerHour="12.037244557032613" departLane="free"/>
  <flow id="JF261559" begin="5000" fromJunction="J5" toJunction="J6" end="5060" vehsPerHour="18.89435344630332" departLane="free"/>
  <flow id="JF261560" begin="5000" fromJunction="J5" toJunction="J7" end="5060" vehsPerHour="41.6949334665359" departLane="free"/>
  <flow id="JF261561" begin="5000" fromJunction="J6" toJunction="J3" end="5060" vehsPerHour="24.348369434331275" departLane="free"/>
  <flow id="JF261562" begin="5000" fromJunction="J6" toJunction="J4" end="5060" vehsPerHour="9.259050580271671" departLane="free"/>
  <flow id="JF261563" begin="5000" fromJunction="J6" toJunction="J5" end="5060" vehsPerHour="61.62317468521962" departLane="free"/>
  <flow id="JF261564" begin="5000" fromJunction="J7" toJunction="J3" end="5060" vehsPerHour="56.701577105962876" departLane="free"/>
  <flow id="JF261565" begin="5000" fromJunction="J7" toJunction="J4" end="5060" vehsPerHour="48.81484580740741" departLane="free"/>
  <flow id="JF261566" begin="5000" fromJunction="J7" toJunction="J5" end="5060" vehsPerHour="62.669288425399465" departLane="free"/>
  <flow id="JF261567" begin="5000" fromJunction="J7" toJunction="J6" end="5060" vehsPerHour="37.108958556342515" departLane="free"/>
  <flow id="JF261568" begin="5060" fromJunction="J0" toJunction="J3" end="5120" vehsPerHour="25.893096177904994" departLane="free"/>
  <flow id="JF261569" begin="5060" fromJunction="J0" toJunction="J5" end="5120" vehsPerHour="100.3146033735924" departLane="free"/>
  <flow id="JF261570" begin="5060" fromJunction="J0" toJunction="J7" end="5120" vehsPerHour="4.3961764847712725" departLane="free"/>
  <flow id="JF261571" begin="5060" fromJunction="J3" toJunction="J0" end="5120" vehsPerHour="25.044052307993695" departLane="free"/>
  <flow id="JF261572" begin="5060" fromJunction="J3" toJunction="J4" end="5120" vehsPerHour="83.05132880812032" departLane="free"/>
  <flow id="JF261573" begin="5060" fromJunction="J3" toJunction="J5" end="5120" vehsPerHour="3.0163213089712624" departLane="free"/>
  <flow id="JF261574" begin="5060" fromJunction="J3" toJunction="J6" end="5120" vehsPerHour="33.832137851547515" departLane="free"/>
  <flow id="JF261575" begin="5060" fromJunction="J3" toJunction="J7" end="5120" vehsPerHour="92.27576278672929" departLane="free"/>
  <flow id="JF261576" begin="5060" fromJunction="J4" toJunction="J0" end="5120" vehsPerHour="53.885690775504735" departLane="free"/>
  <flow id="JF261577" begin="5060" fromJunction="J4" toJunction="J5" end="5120" vehsPerHour="0.44041803949782704" departLane="free"/>
  <flow id="JF261578" begin="5060" fromJunction="J4" toJunction="J7" end="5120" vehsPerHour="10.375307251884346" departLane="free"/>
  <flow id="JF261579" begin="5060" fromJunction="J5" toJunction="J0" end="5120" vehsPerHour="44.06881292272346" departLane="free"/>
  <flow id="JF261580" begin="5060" fromJunction="J5" toJunction="J3" end="5120" vehsPerHour="54.1102151064391" departLane="free"/>
  <flow id="JF261581" begin="5060" fromJunction="J5" toJunction="J4" end="5120" vehsPerHour="31.647449353026644" departLane="free"/>
  <flow id="JF261582" begin="5060" fromJunction="J5" toJunction="J7" end="5120" vehsPerHour="64.59045509156613" departLane="free"/>
  <flow id="JF261583" begin="5060" fromJunction="J6" toJunction="J4" end="5120" vehsPerHour="62.34717507602097" departLane="free"/>
  <flow id="JF261584" begin="5060" fromJunction="J6" toJunction="J5" end="5120" vehsPerHour="6.521980572243569" departLane="free"/>
  <flow id="JF261585" begin="5060" fromJunction="J6" toJunction="J7" end="5120" vehsPerHour="57.10201703163576" departLane="free"/>
  <flow id="JF261586" begin="5060" fromJunction="J7" toJunction="J0" end="5120" vehsPerHour="43.51879812155197" departLane="free"/>
  <flow id="JF261587" begin="5060" fromJunction="J7" toJunction="J3" end="5120" vehsPerHour="25.77088353137706" departLane="free"/>
  <flow id="JF261588" begin="5060" fromJunction="J7" toJunction="J6" end="5120" vehsPerHour="41.46324931581494" departLane="free"/>
  <flow id="JF261589" begin="5120" fromJunction="J0" toJunction="J4" end="5180" vehsPerHour="80.05243092658094" departLane="free"/>
  <flow id="JF261590" begin="5120" fromJunction="J0" toJunction="J5" end="5180" vehsPerHour="125.08171253516888" departLane="free"/>
  <flow id="JF261591" begin="5120" fromJunction="J0" toJunction="J6" end="5180" vehsPerHour="75.67389934159297" departLane="free"/>
  <flow id="JF261592" begin="5120" fromJunction="J0" toJunction="J7" end="5180" vehsPerHour="65.22564669002738" departLane="free"/>
  <flow id="JF261593" begin="5120" fromJunction="J3" toJunction="J0" end="5180" vehsPerHour="19.425166410263504" departLane="free"/>
  <flow id="JF261594" begin="5120" fromJunction="J3" toJunction="J5" end="5180" vehsPerHour="44.84489032487362" departLane="free"/>
  <flow id="JF261595" begin="5120" fromJunction="J3" toJunction="J6" end="5180" vehsPerHour="82.37611051850887" departLane="free"/>
  <flow id="JF261596" begin="5120" fromJunction="J3" toJunction="J7" end="5180" vehsPerHour="18.527871152375464" departLane="free"/>
  <flow id="JF261597" begin="5120" fromJunction="J4" toJunction="J0" end="5180" vehsPerHour="6.250617577000499" departLane="free"/>
  <flow id="JF261598" begin="5120" fromJunction="J4" toJunction="J5" end="5180" vehsPerHour="60.27503910891054" departLane="free"/>
  <flow id="JF261599" begin="5120" fromJunction="J4" toJunction="J7" end="5180" vehsPerHour="4.306226301179662" departLane="free"/>
  <flow id="JF261600" begin="5120" fromJunction="J5" toJunction="J0" end="5180" vehsPerHour="49.73469021325155" departLane="free"/>
  <flow id="JF261601" begin="5120" fromJunction="J5" toJunction="J3" end="5180" vehsPerHour="61.794155855610114" departLane="free"/>
  <flow id="JF261602" begin="5120" fromJunction="J5" toJunction="J6" end="5180" vehsPerHour="42.882756925840525" departLane="free"/>
  <flow id="JF261603" begin="5120" fromJunction="J6" toJunction="J3" end="5180" vehsPerHour="67.82418391129872" departLane="free"/>
  <flow id="JF261604" begin="5120" fromJunction="J6" toJunction="J4" end="5180" vehsPerHour="24.92057336043872" departLane="free"/>
  <flow id="JF261605" begin="5120" fromJunction="J6" toJunction="J7" end="5180" vehsPerHour="41.045948695951765" departLane="free"/>
  <flow id="JF261606" begin="5120" fromJunction="J7" toJunction="J0" end="5180" vehsPerHour="34.67168697653045" departLane="free"/>
  <flow id="JF261607" begin="5120" fromJunction="J7" toJunction="J4" end="5180" vehsPerHour="66.09764985005235" departLane="free"/>
  <flow id="JF261608" begin="5120" fromJunction="J7" toJunction="J5" end="5180" vehsPerHour="14.722876939125785" departLane="free"/>
  <flow id="JF261609" begin="5180" fromJunction="J0" toJunction="J4" end="5240" vehsPerHour="79.60030981640632" departLane="free"/>
  <flow id="JF261610" begin="5180" fromJunction="J0" toJunction="J5" end="5240" vehsPerHour="81.34415157690887" departLane="free"/>
  <flow id="JF261611" begin="5180" fromJunction="J0" toJunction="J6" end="5240" vehsPerHour="61.6962372812843" departLane="free"/>
  <flow id="JF261612" begin="5180" fromJunction="J0" toJunction="J7" end="5240" vehsPerHour="86.4914428081761" departLane="free"/>
  <flow id="JF261613" begin="5180" fromJunction="J3" toJunction="J0" end="5240" vehsPerHour="74.61693459455041" departLane="free"/>
  <flow id="JF261614" begin="5180" fromJunction="J3" toJunction="J4" end="5240" vehsPerHour="120.33821208004055" departLane="free"/>
  <flow id="JF261615" begin="5180" fromJunction="J3" toJunction="J5" end="5240" vehsPerHour="35.30994273366072" departLane="free"/>
  <flow id="JF261616" begin="5180" fromJunction="J3" toJunction="J6" end="5240" vehsPerHour="77.65359406985908" departLane="free"/>
  <flow id="JF261617" begin="5180" fromJunction="J4" toJunction="J5" end="5240" vehsPerHour="60.687887986498005" departLane="free"/>
  <flow id="JF261618" begin="5180" fromJunction="J4" toJunction="J6" end="5240" vehsPerHour="14.856762864914343" departLane="free"/>
  <flow id="JF261619" begin="5180" fromJunction="J4" toJunction="J7" end="5240" vehsPerHour="40.57486271150857" departLane="free"/>
  <flow id="JF261620" begin="5180" fromJunction="J5" toJunction="J3" end="5240" vehsPerHour="62.15162483898809" departLane="free"/>
  <flow id="JF261621" begin="5180" fromJunction="J5" toJunction="J6" end="5240" vehsPerHour="19.78609759937158" departLane="free"/>
  <flow id="JF261622" begin="5180" fromJunction="J6" toJunction="J3" end="5240" vehsPerHour="39.87989346612354" departLane="free"/>
  <flow id="JF261623" begin="5180" fromJunction="J6" toJunction="J4" end="5240" vehsPerHour="44.89779767842838" departLane="free"/>
  <flow id="JF261624" begin="5180" fromJunction="J6" toJunction="J5" end="5240" vehsPerHour="54.06184108508325" departLane="free"/>
  <flow id="JF261625" begin="5180" fromJunction="J6" toJunction="J7" end="5240" vehsPerHour="60.18721753102153" departLane="free"/>
  <flow id="JF261626" begin="5180" fromJunction="J7" toJunction="J0" end="5240" vehsPerHour="33.18145199913476" departLane="free"/>
  <flow id="JF261627" begin="5180" fromJunction="J7" toJunction="J3" end="5240" vehsPerHour="31.4052643719243" departLane="free"/>
  <flow id="JF261628" begin="5180" fromJunction="J7" toJunction="J5" end="5240" vehsPerHour="16.434803268004313" departLane="free"/>
  <flow id="JF261629" begin="5180" fromJunction="J7" toJunction="J6" end="5240" vehsPerHour="30.588469516380574" departLane="free"/>
  <flow id="JF261630" begin="5240" fromJunction="J0" toJunction="J3" end="5300" vehsPerHour="71.92783904173639" departLane="free"/>
  <flow id="JF261631" begin="5240" fromJunction="J0" toJunction="J4" end="5300" vehsPerHour="73.82336047945081" departLane="free"/>
  <flow id="JF261632" begin="5240" fromJunction="J0" toJunction="J5" end="5300" vehsPerHour="18.193377079580927" departLane="free"/>
  <flow id="JF261633" begin="5240" fromJunction="J0" toJunction="J6" end="5300" vehsPerHour="26.41387855042239" departLane="free"/>
  <flow id="JF261634" begin="5240" fromJunction="J0" toJunction="J7" end="5300" vehsPerHour="135.33590813831103" departLane="free"/>
  <flow id="JF261635" begin="5240" fromJunction="J3" toJunction="J0" end="5300" vehsPerHour="79.85686927166589" departLane="free"/>
  <flow id="JF261636" begin="5240" fromJunction="J3" toJunction="J4" end="5300" vehsPerHour="82.40336571426086" departLane="free"/>
  <flow id="JF261637" begin="5240" fromJunction="J3" toJunction="J5" end="5300" vehsPerHour="135.95870055998273" departLane="free"/>
  <flow id="JF261638" begin="5240" fromJunction="J3" toJunction="J6" end="5300" vehsPerHour="62.49001594644058" departLane="free"/>
  <flow id="JF261639" begin="5240" fromJunction="J4" toJunction="J0" end="5300" vehsPerHour="55.68478583547884" departLane="free"/>
  <flow id="JF261640" begin="5240" fromJunction="J4" toJunction="J5" end="5300" vehsPerHour="57.81003808042049" departLane="free"/>
  <flow id="JF261641" begin="5240" fromJunction="J4" toJunction="J6" end="5300" vehsPerHour="66.45043765380575" departLane="free"/>
  <flow id="JF261642" begin="5240" fromJunction="J5" toJunction="J0" end="5300" vehsPerHour="32.472337866580816" departLane="free"/>
  <flow id="JF261643" begin="5240" fromJunction="J5" toJunction="J6" end="5300" vehsPerHour="67.67400655712092" departLane="free"/>
  <flow id="JF261644" begin="5240" fromJunction="J5" toJunction="J7" end="5300" vehsPerHour="57.33846810552715" departLane="free"/>
  <flow id="JF261645" begin="5240" fromJunction="J6" toJunction="J0" end="5300" vehsPerHour="13.530037052967188" departLane="free"/>
  <flow id="JF261646" begin="5240" fromJunction="J6" toJunction="J4" end="5300" vehsPerHour="23.397231830707" departLane="free"/>
  <flow id="JF261647" begin="5240" fromJunction="J6" toJunction="J5" end="5300" vehsPerHour="27.54563628668672" departLane="free"/>
  <flow id="JF261648" begin="5240" fromJunction="J6" toJunction="J7" end="5300" vehsPerHour="1.1461421657574948" departLane="free"/>
  <flow id="JF261649" begin="5240" fromJunction="J7" toJunction="J0" end="5300" vehsPerHour="23.79272978986044" departLane="free"/>
  <flow id="JF261650" begin="5240" fromJunction="J7" toJunction="J3" end="5300" vehsPerHour="60.95119510254861" departLane="free"/>
  <flow id="JF261651" begin="5300" fromJunction="J0" toJunction="J3" end="5360" vehsPerHour="55.05183817029311" departLane="free"/>
  <flow id="JF261652" begin="5300" fromJunction="J0" toJunction="J5" end="5360" vehsPerHour="70.04383853475282" departLane="free"/>
  <flow id="JF261653" begin="5300" fromJunction="J0" toJunction="J6" end="5360" vehsPerHour="103.34791908403565" departLane="free"/>
  <flow id="JF261654" begin="5300" fromJunction="J0" toJunction="J7" end="5360" vehsPerHour="101.65436073793734" departLane="free"/>
  <flow id="JF261655" begin="5300" fromJunction="J3" toJunction="J4" end="5360" vehsPerHour="106.30175503445446" departLane="free"/>
  <flow id="JF261656" begin="5300" fromJunction="J3" toJunction="J5" end="5360" vehsPerHour="82.97181538752454" departLane="free"/>
  <flow id="JF261657" begin="5300" fromJunction="J3" toJunction="J6" end="5360" vehsPerHour="93.20662300876738" departLane="free"/>
  <flow id="JF261658" begin="5300" fromJunction="J4" toJunction="J0" end="5360" vehsPerHour="5.348521021446727" departLane="free"/>
  <flow id="JF261659" begin="5300" fromJunction="J4" toJunction="J5" end="5360" vehsPerHour="65.56285109872941" departLane="free"/>
  <flow id="JF261660" begin="5300" fromJunction="J4" toJunction="J6" end="5360" vehsPerHour="33.00982116144204" departLane="free"/>
  <flow id="JF261661" begin="5300" fromJunction="J4" toJunction="J7" end="5360" vehsPerHour="61.373921367097324" departLane="free"/>
  <flow id="JF261662" begin="5300" fromJunction="J5" toJunction="J0" end="5360" vehsPerHour="46.11661206878647" departLane="free"/>
  <flow id="JF261663" begin="5300" fromJunction="J5" toJunction="J3" end="5360" vehsPerHour="38.972923353478784" departLane="free"/>
  <flow id="JF261664" begin="5300" fromJunction="J5" toJunction="J6" end="5360" vehsPerHour="16.559614226385992" departLane="free"/>
  <flow id="JF261665" begin="5300" fromJunction="J6" toJunction="J3" end="5360" vehsPerHour="51.485964131747295" departLane="free"/>
  <flow id="JF261666" begin="5300" fromJunction="J6" toJunction="J5" end="5360" vehsPerHour="9.581220715714364" departLane="free"/>
  <flow id="JF261667" begin="5300" fromJunction="J6" toJunction="J7" end="5360" vehsPerHour="12.378123806278102" departLane="free"/>
  <flow id="JF261668" begin="5300" fromJunction="J7" toJunction="J0" end="5360" vehsPerHour="30.49308081466596" departLane="free"/>
  <flow id="JF261669" begin="5300" fromJunction="J7" toJunction="J3" end="5360" vehsPerHour="12.964759555502498" departLane="free"/>
  <flow id="JF261670" begin="5300" fromJunction="J7" toJunction="J5" end="5360" vehsPerHour="31.27896264646813" departLane="free"/>
  <flow id="JF261671" begin="5300" fromJunction="J7" toJunction="J6" end="5360" vehsPerHour="62.511466605634624" departLane="free"/>
  <flow id="JF261672" begin="5360" fromJunction="J0" toJunction="J4" end="5420" vehsPerHour="6.723223424379361" departLane="free"/>
  <flow id="JF261673" begin="5360" fromJunction="J0" toJunction="J5" end="5420" vehsPerHour="128.15179558796618" departLane="free"/>
  <flow id="JF261674" begin="5360" fromJunction="J0" toJunction="J6" end="5420" vehsPerHour="54.703572311786886" departLane="free"/>
  <flow id="JF261675" begin="5360" fromJunction="J0" toJunction="J7" end="5420" vehsPerHour="94.22953414455392" departLane="free"/>
  <flow id="JF261676" begin="5360" fromJunction="J3" toJunction="J0" end="5420" vehsPerHour="126.50815728626932" departLane="free"/>
  <flow id="JF261677" begin="5360" fromJunction="J3" toJunction="J6" end="5420" vehsPerHour="24.51381316851078" departLane="free"/>
  <flow id="JF261678" begin="5360" fromJunction="J4" toJunction="J6" end="5420" vehsPerHour="60.32339247814845" departLane="free"/>
  <flow id="JF261679" begin="5360" fromJunction="J4" toJunction="J7" end="5420" vehsPerHour="59.73789166794483" departLane="free"/>
  <flow id="JF261680" begin="5360" fromJunction="J5" toJunction="J0" end="5420" vehsPerHour="40.98724130389045" departLane="free"/>
  <flow id="JF261681" begin="5360" fromJunction="J5" toJunction="J3" end="5420" vehsPerHour="0.08009867661469273" departLane="free"/>
  <flow id="JF261682" begin="5360" fromJunction="J5" toJunction="J7" end="5420" vehsPerHour="63.61931290449197" departLane="free"/>
  <flow id="JF261683" begin="5360" fromJunction="J6" toJunction="J0" end="5420" vehsPerHour="27.321728318009747" departLane="free"/>
  <flow id="JF261684" begin="5360" fromJunction="J6" toJunction="J3" end="5420" vehsPerHour="26.98457309513793" departLane="free"/>
  <flow id="JF261685" begin="5360" fromJunction="J6" toJunction="J4" end="5420" vehsPerHour="16.083745166108265" departLane="free"/>
  <flow id="JF261686" begin="5360" fromJunction="J6" toJunction="J5" end="5420" vehsPerHour="27.871370320341313" departLane="free"/>
  <flow id="JF261687" begin="5360" fromJunction="J6" toJunction="J7" end="5420" vehsPerHour="32.96927909234521" departLane="free"/>
  <flow id="JF261688" begin="5360" fromJunction="J7" toJunction="J3" end="5420" vehsPerHour="18.79423627273348" departLane="free"/>
  <flow id="JF261689" begin="5360" fromJunction="J7" toJunction="J4" end="5420" vehsPerHour="46.842964736772345" departLane="free"/>
  <flow id="JF261690" begin="5360" fromJunction="J7" toJunction="J5" end="5420" vehsPerHour="4.997452623998527" departLane="free"/>
  <flow id="JF261691" begin="5360" fromJunction="J7" toJunction="J6" end="5420" vehsPerHour="3.505937042840353" departLane="free"/>
  <flow id="JF261692" begin="5420" fromJunction="J0" toJunction="J4" end="5480" vehsPerHour="34.472385382289744" departLane="free"/>
  <flow id="JF261693" begin="5420" fromJunction="J0" toJunction="J6" end="5480" vehsPerHour="41.19790347122481" departLane="free"/>
  <flow id="JF261694" begin="5420" fromJunction="J0" toJunction="J7" end="5480" vehsPerHour="111.33610777406102" departLane="free"/>
  <flow id="JF261695" begin="5420" fromJunction="J3" toJunction="J0" end="5480" vehsPerHour="64.59555464885497" departLane="free"/>
  <flow id="JF261696" begin="5420" fromJunction="J3" toJunction="J4" end="5480" vehsPerHour="134.4025334019395" departLane="free"/>
  <flow id="JF261697" begin="5420" fromJunction="J3" toJunction="J7" end="5480" vehsPerHour="128.28273903846846" departLane="free"/>
  <flow id="JF261698" begin="5420" fromJunction="J4" toJunction="J0" end="5480" vehsPerHour="28.752804558224266" departLane="free"/>
  <flow id="JF261699" begin="5420" fromJunction="J4" toJunction="J3" end="5480" vehsPerHour="47.00585662095773" departLane="free"/>
  <flow id="JF261700" begin="5420" fromJunction="J4" toJunction="J5" end="5480" vehsPerHour="66.59829573701998" departLane="free"/>
  <flow id="JF261701" begin="5420" fromJunction="J4" toJunction="J6" end="5480" vehsPerHour="53.03203126358679" departLane="free"/>
  <flow id="JF261702" begin="5420" fromJunction="J4" toJunction="J7" end="5480" vehsPerHour="12.857090742549632" departLane="free"/>
  <flow id="JF261703" begin="5420" fromJunction="J5" toJunction="J0" end="5480" vehsPerHour="32.51409406969319" departLane="free"/>
  <flow id="JF261704" begin="5420" fromJunction="J5" toJunction="J3" end="5480" vehsPerHour="1.581091618682951" departLane="free"/>
  <flow id="JF261705" begin="5420" fromJunction="J5" toJunction="J6" end="5480" vehsPerHour="6.1189623049080115" departLane="free"/>
  <flow id="JF261706" begin="5420" fromJunction="J5" toJunction="J7" end="5480" vehsPerHour="26.009083479703325" departLane="free"/>
  <flow id="JF261707" begin="5420" fromJunction="J6" toJunction="J3" end="5480" vehsPerHour="58.07572978283603" departLane="free"/>
  <flow id="JF261708" begin="5420" fromJunction="J6" toJunction="J5" end="5480" vehsPerHour="6.254844224762626" departLane="free"/>
  <flow id="JF261709" begin="5420" fromJunction="J7" toJunction="J0" end="5480" vehsPerHour="61.748109690315125" departLane="free"/>
  <flow id="JF261710" begin="5420" fromJunction="J7" toJunction="J3" end="5480" vehsPerHour="52.07769876722136" departLane="free"/>
  <flow id="JF261711" begin="5420" fromJunction="J7" toJunction="J4" end="5480" vehsPerHour="55.53592105932115" departLane="free"/>
  <flow id="JF261712" begin="5420" fromJunction="J7" toJunction="J5" end="5480" vehsPerHour="16.789555228151844" departLane="free"/>
  <flow id="JF261713" begin="5480" fromJunction="J0" toJunction="J3" end="5540" vehsPerHour="128.7810042925671" departLane="free"/>
  <flow id="JF261714" begin="5480" fromJunction="J0" toJunction="J5" end="5540" vehsPerHour="28.36641008573186" departLane="free"/>
  <flow id="JF261715" begin="5480" fromJunction="J0" toJunction="J6" end="5540" vehsPerHour="25.960642304766374" departLane="free"/>
  <flow id="JF261716" begin="5480" fromJunction="J0" toJunction="J7" end="5540" vehsPerHour="100.04689609668142" departLane="free"/>
  <flow id="JF261717" begin="5480" fromJunction="J3" toJunction="J4" end="5540" vehsPerHour="111.64727404336908" departLane="free"/>
  <flow id="JF261718" begin="5480" fromJunction="J3" toJunction="J5" end="5540" vehsPerHour="136.39146698433385" departLane="free"/>
  <flow id="JF261719" begin="5480" fromJunction="J3" toJunction="J6" end="5540" vehsPerHour="135.74336815754563" departLane="free"/>
  <flow id="JF261720" begin="5480" fromJunction="J3" toJunction="J7" end="5540" vehsPerHour="126.04357266514099" departLane="free"/>
  <flow id="JF261721" begin="5480" fromJunction="J4" toJunction="J5" end="5540" vehsPerHour="26.390491288176396" departLane="free"/>
  <flow id="JF261722" begin="5480" fromJunction="J4" toJunction="J6" end="5540" vehsPerHour="39.06227790524054" departLane="free"/>
  <flow id="JF261723" begin="5480" fromJunction="J4" toJunction="J7" end="5540" vehsPerHour="22.06085059080439" departLane="free"/>
  <flow id="JF261724" begin="5480" fromJunction="J5" toJunction="J0" end="5540" vehsPerHour="65.34899450249092" departLane="free"/>
  <flow id="JF261725" begin="5480" fromJunction="J5" toJunction="J4" end="5540" vehsPerHour="27.46096087364874" departLane="free"/>
  <flow id="JF261726" begin="5480" fromJunction="J5" toJunction="J6" end="5540" vehsPerHour="35.768849178135135" departLane="free"/>
  <flow id="JF261727" begin="5480" fromJunction="J6" toJunction="J0" end="5540" vehsPerHour="67.39024488119512" departLane="free"/>
  <flow id="JF261728" begin="5480" fromJunction="J6" toJunction="J4" end="5540" vehsPerHour="45.24634855971802" departLane="free"/>
  <flow id="JF261729" begin="5480" fromJunction="J6" toJunction="J5" end="5540" vehsPerHour="57.363864778713655" departLane="free"/>
  <flow id="JF261730" begin="5480" fromJunction="J6" toJunction="J7" end="5540" vehsPerHour="18.327232502745414" departLane="free"/>
  <flow id="JF261731" begin="5480" fromJunction="J7" toJunction="J0" end="5540" vehsPerHour="62.35696983606078" departLane="free"/>
  <flow id="JF261732" begin="5480" fromJunction="J7" toJunction="J3" end="5540" vehsPerHour="34.64189616618926" departLane="free"/>
  <flow id="JF261733" begin="5480" fromJunction="J7" toJunction="J4" end="5540" vehsPerHour="50.63520643992438" departLane="free"/>
  <flow id="JF261734" begin="5480" fromJunction="J7" toJunction="J5" end="5540" vehsPerHour="35.60568340687937" departLane="free"/>
  <flow id="JF261735" begin="5480" fromJunction="J7" toJunction="J6" end="5540" vehsPerHour="57.65642138604281" departLane="free"/>
  <flow id="JF261736" begin="5540" fromJunction="J0" toJunction="J6" end="5600" vehsPerHour="120.33594025862884" departLane="free"/>
  <flow id="JF261737" begin="5540" fromJunction="J0" toJunction="J7" end="5600" vehsPerHour="75.92768730815773" departLane="free"/>
  <flow id="JF261738" begin="5540" fromJunction="J3" toJunction="J4" end="5600" vehsPerHour="96.01360859690378" departLane="free"/>
  <flow id="JF261739" begin="5540" fromJunction="J3" toJunction="J5" end="5600" vehsPerHour="40.04605102435892" departLane="free"/>
  <flow id="JF261740" begin="5540" fromJunction="J3" toJunction="J6" end="5600" vehsPerHour="101.16775915755018" departLane="free"/>
  <flow id="JF261741" begin="5540" fromJunction="J3" toJunction="J7" end="5600" vehsPerHour="31.14626171977007" departLane="free"/>
  <flow id="JF261742" begin="5540" fromJunction="J4" toJunction="J0" end="5600" vehsPerHour="58.82347715945366" departLane="free"/>
  <flow id="JF261743" begin="5540" fromJunction="J4" toJunction="J3" end="5600" vehsPerHour="49.89937148927246" departLane="free"/>