<?xml version="1.0" encoding="UTF-8"?>
<routes xmlns:xsi="http://www.w3.org/2001/XMLSchema-instance" xsi:noNamespaceSchemaLocation="http://sumo.dlr.de/xsd/routes_file.xsd">
  <flow id="JF263304" begin="0" fromJunction="J0" toJunction="J3" end="5000" vehsPerHour="253.8839890462876" departLane="free"/>
  <flow id="JF263305" begin="0" fromJunction="J3" toJunction="J0" end="5000" vehsPerHour="203.92078100034416" departLane="free"/>
  <flow id="JF263306" begin="0" fromJunction="J0" toJunction="J5" end="5000" vehsPerHour="27.846471144279885" departLane="free"/>
  <flow id="JF263307" begin="0" fromJunction="J0" toJunction="J4" end="5000" vehsPerHour="50.04191016323764" departLane="free"/>
  <flow id="JF263308" begin="0" fromJunction="J0" toJunction="J6" end="5000" vehsPerHour="65.1047956864558" departLane="free"/>
  <flow id="JF263309" begin="0" fromJunction="J0" toJunction="J7" end="5000" vehsPerHour="115.58164379729628" departLane="free"/>
  <flow id="JF263310" begin="0" fromJunction="J3" toJunction="J5" end="5000" vehsPerHour="90.19711819796393" departLane="free"/>
  <flow id="JF263311" begin="0" fromJunction="J3" toJunction="J4" end="5000" vehsPerHour="19.376633086097844" departLane="free"/>
  <flow id="JF263312" begin="0" fromJunction="J3" toJunction="J6" end="5000" vehsPerHour="36.52431858117382" departLane="free"/>
  <flow id="JF263313" begin="0" fromJunction="J3" toJunction="J7" end="5000" vehsPerHour="72.13178878852412" departLane="free"/>
  <flow id="JF263314" begin="0" fromJunction="J5" toJunction="J4" end="5000" vehsPerHour="0.8881939809241274" departLane="free"/>
  <flow id="JF263315" begin="0" fromJunction="J5" toJunction="J6" end="5000" vehsPerHour="31.845482791150772" departLane="free"/>
  <flow id="JF263316" begin="0" fromJunction="J5" toJunction="J7" end="5000" vehsPerHour="8.355184743983267" departLane="free"/>
  <flow id="JF263317" begin="0" fromJunction="J4" toJunction="J5" end="5000" vehsPerHour="1.411336446144086" departLane="free"/>
  <flow id="JF263318" begin="0" fromJunction="J4" toJunction="J6" end="5000" vehsPerHour="40.3582806891588" departLane="free"/>
  <flow id="JF263319" begin="0" fromJunction="J4" toJunction="J7" end="5000" vehsPerHour="45.84998089428124" departLane="free"/>
  <flow id="JF263320" begin="0" fromJunction="J6" toJunction="J5" end="5000" vehsPerHour="31.87824879815497" departLane="free"/>
  <flow id="JF263321" begin="0" fromJunction="J6" toJunction="J4" end="5000" vehsPerHour="36.84068124562206" departLane="free"/>
  <flow id="JF263322" begin="0" fromJunction="J6" toJunction="J7" end="5000" vehsPerHour="47.342789125315285" departLane="free"/>
  <flow id="JF263323" begin="0" fromJunction="J7" toJunction="J5" end="5000" vehsPerHour="25.205749916032513" departLane="free"/>
  <flow id="JF263324" begin="0" fromJunction="J7" toJunction="J4" end="5000" vehsPerHour="1.3086036252840065" departLane="free"/>
  <flow id="JF263325" begin="0" fromJunction="J7" toJunction="J6" end="5000" vehsPerHour="47.53834197578958" departLane="free"/>
  <flow id="JF263326" begin="0" fromJunction="J5" toJunction="J0" end="5000" vehsPerHour="67.0802675567029" departLane="free"/>
  <flow id="JF263327" begin="0" fromJunction="J5" toJunction="J3" end="5000" vehsPerHour="38.689978087008754" departLane="free"/>
  <flow id="JF263328" begin="0" fromJunction="J4" toJunction="J0" end="5000" vehsPerHour="28.121208594525783" departLane="free"/>
  <flow id="JF263329" begin="0" fromJunction="J4" toJunction="J3" end="5000" vehsPerHour="41.47956067293675" departLane="free"/>
  <flow id="JF263330" begin="0" fromJunction="J6" toJunction="J0" end="5000" vehsPerHour="57.30871100443294" departLane="free"/>
  <flow id="JF263331" begin="0" fromJunction="J6" toJunction="J3" end="5000" vehsPerHour="25.021664390233518" departLane="free"/>
  <flow id="JF263332" begin="0" fromJunction="J7" toJunction="J0" end="5000" vehsPerHour="1.104072230799271" departLane="free"/>
  <flow id="JF263333" begin="0" fromJunction="J7" toJunction="J3" end="5000" vehsPerHour="19.21180695612226" departLane="free"/>
  <flow id="JF263334" begin="5000" fromJunction="J0" toJunction="J3" end="5060" vehsPerHour="106.3020032971445" departLane="free"/>
  <flow id="JF263335" begin="5000" fromJunction="J0" toJunction="J4" end="5060" vehsPerHour="101.71378624489567" departLane="free"/>
  <flow id="JF263336" begin="5000" fromJunction="J0" toJunction="J7" end="5060" vehsPerHour="97.11677852078678" departLane="free"/>
  <flow id="JF263337" begin="5000" fromJunction="J3" toJunction="J0" end="5060" vehsPerHour="83.19813059387486" departLane="free"/>
  <flow id="JF263338" begin="5000" fromJunction="J3" toJunction="J5" end="5060" vehsPerHour="1.137909382160834" departLane="free"/>
  <flow id="JF263339" begin="5000" fromJunction="J4" toJunction="J0" end="5060" vehsPerHour="4.229315906186255" departLane="free"/>
  <flow id="JF263340" begin="5000" fromJunction="J4" toJunction="J3" end="5060" vehsPerHour="15.476892688520774" departLane="free"/>
  <flow id="JF263341" begin="5000" fromJunction="J4" toJunction="J5" end="5060" vehsPerHour="40.66517812243018" departLane="free"/>
  <flow id="JF263342" begin="5000" fromJunction="J4" toJunction="J6" end="5060" vehsPerHour="62.93094978887154" departLane="free"/>
  <flow id="JF263343" begin="5000" fromJunction="J4" toJunction="J7" end="5060" vehsPerHour="47.573605607349464" departLane="free"/>
  <flow id="JF263344" begin="5000" fromJunction="J5" toJunction="J0" end="5060" vehsPerHour="5.3922334667452185" departLane="free"/>
  <flow id="JF263345" begin="5000" fromJunction="J5" toJunction="J3" end="5060" vehsPerHour="41.62924622726952" departLane="free"/>
  <flow id="JF263346" begin="5000" fromJunction="J5" toJunction="J4" end="5060" vehsPerHour="9.250962489106739" departLane="free"/>
  <flow id="JF263347" begin="5000" fromJunction="J5" toJunction="J6" end="5060" vehsPerHour="18.672203173034436" departLane="free"/>
  <flow id="JF263348" begin="5000" fromJunction="J5" toJunction="J7" end="5060" vehsPerHour="58.40219958160159" departLane="free"/>
  <flow id="JF263349" begin="5000" fromJunction="J6" toJunction="J0" end="5060" vehsPerHour="44.19545827439401" departLane="free"/>
  <flow id="JF263350" begin="5000" fromJunction="J6" toJunction="J4" end="5060" vehsPerHour="42.13918681262132" departLane="free"/>
  <flow id="JF263351" begin="5000" fromJunction="J6" toJunction="J7" end="5060" vehsPerHour="28.08141669155962" departLane="free"/>
  <flow id="JF263352" begin="5000" fromJunction="J7" toJunction="J3" end="5060" vehsPerHour="34.04514314252085" departLane="free"/>
  <flow id="JF263353" begin="5000" fromJunction="J7" toJunction="J4" end="5060" vehsPerHour="26.256427428397746" departLane="free"/>
  <flow id="JF263354" begin="5060" fromJunction="J0" toJunction="J4" end="5120" vehsPerHour="48.89331507587716" departLane="free"/>
  <flow id="JF263355" begin="5060" fromJunction="J0" toJunction="J5" end="5120" vehsPerHour="5.1629805974493905" departLane="free"/>
  <flow id="JF263356" begin="5060" fromJunction="J0" toJunction="J7" end="5120" vehsPerHour="64.1033375550323" departLane="free"/>
  <flow id="JF263357" begin="5060" fromJunction="J3" toJunction="J0" end="5120" vehsPerHour="49.96269015062793" departLane="free"/>
  <flow id="JF263358" begin="5060" fromJunction="J3" toJunction="J5" end="5120" vehsPerHour="3.5087610123651487" departLane="free"/>
  <flow id="JF263359" begin="5060" fromJunction="J3" toJunction="J6" end="5120" vehsPerHour="82.44979560794343" departLane="free"/>
  <flow id="JF263360" begin="5060" fromJunction="J4" toJunction="J0" end="5120" vehsPerHour="14.725172934211148" departLane="free"/>
  <flow id="JF263361" begin="5060" fromJunction="J4" toJunction="J3" end="5120" vehsPerHour="18.638830106188898" departLane="free"/>
  <flow id="JF263362" begin="5060" fromJunction="J5" toJunction="J0" end="5120" vehsPerHour="23.79762602319621" departLane="free"/>
  <flow id="JF263363" begin="5060" fromJunction="J5" toJunction="J3" end="5120" vehsPerHour="8.151450928927884" departLane="free"/>
  <flow id="JF263364" begin="5060" fromJunction="J5" toJunction="J4" end="5120" vehsPerHour="35.41270946325499" departLane="free"/>
  <flow id="JF263365" begin="5060" fromJunction="J5" toJunction="J6" end="5120" vehsPerHour="37.84406810285953" departLane="free"/>
  <flow id="JF263366" begin="5060" fromJunction="J5" toJunction="J7" end="5120" vehsPerHour="45.0008812050361" departLane="free"/>
  <flow id="JF263367" begin="5060" fromJunction="J6" toJunction="J0" end="5120" vehsPerHour="59.43750253626974" departLane="free"/>
  <flow id="JF263368" begin="5060" fromJunction="J6" toJunction="J3" end="5120" vehsPerHour="11.185080385968678" departLane="free"/>
  <flow id="JF263369" begin="5060" fromJunction="J6" toJunction="J4" end="5120" vehsPerHour="28.28764401867459" departLane="free"/>
  <flow id="JF263370" begin="5060" fromJunction="J6" toJunction="J5" end="5120" vehsPerHour="11.742880896258482" departLane="free"/>
  <flow id="JF263371" begin="5060" fromJunction="J6" toJunction="J7" end="5120" vehsPerHour="56.63122977119724" departLane="free"/>
  <flow id="JF263372" begin="5060" fromJunction="J7" toJunction="J3" end="5120" vehsPerHour="23.032051113245615" departLane="free"/>
  <flow id="JF263373" begin="5060" fromJunction="J7" toJunction="J4" end="5120" vehsPerHour="38.70137540484327" departLane="free"/>
  <flow id="JF263374" begin="5060" fromJunction="J7" toJunction="J5" end="5120" vehsPerHour="38.406485634699166" departLane="free"/>
  <flow id="JF263375" begin="5060" fromJunction="J7" toJunction="J6" end="5120" vehsPerHour="20.759377725357517" departLane="free"/>
  <flow id="JF263376" begin="5120" fromJunction="J0" toJunction="J4" end="5180" vehsPerHour="15.73424613322865" departLane="free"/>
  <flow id="JF263377" begin="5120" fromJunction="J0" toJunction="J6" end="5180" vehsPerHour="16.461297205236157" departLane="free"/>
  <flow id="JF263378" begin="5120" fromJunction="J0" toJunction="J7" end="5180" vehsPerHour="86.59579090347351" departLane="free"/>
  <flow id="JF263379" begin="5120" fromJunction="J3" toJunction="J0" end="5180" vehsPerHour="56.96863161327905" departLane="free"/>
  <flow id="JF263380" begin="5120" fromJunction="J3" toJunction="J4" end="5180" vehsPerHour="78.79806990031011" departLane="free"/>
  <flow id="JF263381" begin="5120" fromJunction="J3" toJunction="J5" end="5180" vehsPerHour="121.78543298478333" departLane="free"/>
  <flow id="JF263382" begin="5120" fromJunction="J3" toJunction="J6" end="5180" vehsPerHour="124.42573240256654" departLane="free"/>
  <flow id="JF263383" begin="5120" fromJunction="J4" toJunction="J0" end="5180" vehsPerHour="8.281632572127666" departLane="free"/>
  <flow id="JF263384" begin="5120" fromJunction="J4" toJunction="J3" end="5180" vehsPerHour="8.02054722285198" departLane="free"/>
  <flow id="JF263385" begin="5120" fromJunction="J4" toJunction="J5" end="5180" vehsPerHour="17.111029891325217" departLane="free"/>
  <flow id="JF263386" begin="5120" fromJunction="J4" toJunction="J6" end="5180" vehsPerHour="28.457418493384765" departLane="free"/>
  <flow id="JF263387" begin="5120" fromJunction="J4" toJunction="J7" end="5180" vehsPerHour="23.00502955676542" departLane="free"/>
  <flow id="JF263388" begin="5120" fromJunction="J5" toJunction="J0" end="5180" vehsPerHour="20.291513980531448" departLane="free"/>
  <flow id="JF263389" begin="5120" fromJunction="J5" toJunction="J6" end="5180" vehsPerHour="19.895235650170015" departLane="free"/>
  <flow id="JF263390" begin="5120" fromJunction="J6" toJunction="J3" end="5180" vehsPerHour="46.25356664649135" departLane="free"/>
  <flow id="JF263391" begin="5120" fromJunction="J6" toJunction="J4" end="5180" vehsPerHour="7.7207487552487635" departLane="free"/>
  <flow id="JF263392" begin="5120" fromJunction="J6" toJunction="J5" end="5180" vehsPerHour="31.15679856065599" departLane="free"/>
  <flow id="JF263393" begin="5120" fromJunction="J6" toJunction="J7" end="5180" vehsPerHour="52.19352520431483" departLane="free"/>
  <flow id="JF263394" begin="5120" fromJunction="J7" toJunction="J3" end="5180" vehsPerHour="30.39661791046777" departLane="free"/>
  <flow id="JF263395" begin="5120" fromJunction="J7" toJunction="J4" end="5180" vehsPerHour="29.08570090062348" departLane="free"/>
  <flow id="JF263396" begin="5120" fromJunction="J7" toJunction="J5" end="5180" vehsPerHour="11.157380343848311" departLane="free"/>
  <flow id="JF263397" begin="5120" fromJunction="J7" toJunction="J6" end="5180" vehsPerHour="5.301818410998396" departLane="free"/>
  <flow id="JF263398" begin="5180" fromJunction="J0" toJunction="J3" end="5240" vehsPerHour="50.94589544768244" departLane="free"/>
  <flow id="JF263399" begin="5180" fromJunction="J0" toJunction="J4" end="5240" vehsPerHour="90.34075165739924" departLane="free"/>
  <flow id="JF263400" begin="5180" fromJunction="J0" toJunction="J6" end="5240" vehsPerHour="42.14299290502742" departLane="free"/>
  <flow id="JF263401" begin="5180" fromJunction="J0" toJunction="J7" end="5240" vehsPerHour="25.77711251872302" departLane="free"/>
  <flow id="JF263402" begin="5180" fromJunction="J3" toJunction="J5" end="5240" vehsPerHour="53.17784887104238" departLane="free"/>
  <flow id="JF263403" begin="5180" fromJunction="J3" toJunction="J6" end="5240" vehsPerHour="41.28493558433832" departLane="free"/>
  <flow id="JF263404" begin="5180" fromJunction="J3" toJunction="J7" end="5240" vehsPerHour="88.46230147868154" departLane="free"/>
  <flow id="JF263405" begin="5180" fromJunction="J4" toJunction="J0" end="5240" vehsPerHour="11.500239793728966" departLane="free"/>
  <flow id="JF263406" begin="5180" fromJunction="J4" toJunction="J3" end="5240" vehsPerHour="54.93754349368021" departLane="free"/>
  <flow id="JF263407" begin="5180" fromJunction="J4" toJunction="J6" end="5240" vehsPerHour="53.28325553480948" departLane="free"/>
  <flow id="JF263408" begin="5180" fromJunction="J4" toJunction="J7" end="5240" vehsPerHour="27.459727278441175" departLane="free"/>
  <flow id="JF263409" begin="5180" fromJunction="J5" toJunction="J0" end="5240" vehsPerHour="29.115197689961764" departLane="free"/>
  <flow id="JF263410" begin="5180" fromJunction="J5" toJunction="J3" end="5240" vehsPerHour="31.154412002003095" departLane="free"/>
  <flow id="JF263411" begin="5180" fromJunction="J5" toJunction="J4" end="5240" vehsPerHour="66.13372206145249" departLane="free"/>
  <flow id="JF263412" begin="5180" fromJunction="J5" toJunction="J7" end="5240" vehsPerHour="50.10073768096046" departLane="free"/>
  <flow id="JF263413" begin="5180" fromJunction="J6" toJunction="J0" end="5240" vehsPerHour="56.66999710833059" departLane="free"/>
  <flow id="JF263414" begin="5180" fromJunction="J6" toJunction="J3" end="5240" vehsPerHour="0.15672544720100448" departLane="free"/>
  <flow id="JF263415" begin="5180" fromJunction="J6" toJunction="J5" end="5240" vehsPerHour="44.40035837386022" departLane="free"/>
  <flow id="JF263416" begin="5180" fromJunction="J6" toJunction="J7" end="5240" vehsPerHour="10.662127577783444" departLane="free"/>
  <flow id="JF263417" begin="5180" fromJunction="J7" toJunction="J0" end="5240" vehsPerHour="52.033018689741596" departLane="free"/>
  <flow id="JF263418" begin="5180" fromJunction="J7" toJunction="J3" end="5240" vehsPerHour="58.762215667029835" departLane="free"/>
  <flow id="JF263419" begin="5180" fromJunction="J7" toJunction="J4" end="5240" vehsPerHour="29.544712986611312" departLane="free"/>
  <flow id="JF263420" begin="5240" fromJunction="J0" toJunction="J3" end="5300" vehsPerHour="71.61613263902744" departLane="free"/>
  <flow id="JF263421" begin="5240" fromJunction="J0" toJunction="J5" end="5300" vehsPerHour="59.60770252392852" departLane="free"/>
  <flow id="JF263422" begin="5240" fromJunction="J0" toJunction="J6" end="5300" vehsPerHour="64.76382155189215" departLane="free"/>
  <flow id="JF263423" begin="5240" fromJunction="J3" toJunction="J4" end="5300" vehsPerHour="131.36752428096915" departLane="free"/>
  <flow id="JF263424" begin="5240" fromJunction="J3" toJunction="J5" end="5300" vehsPerHour="23.18665740173912" departLane="free"/>
  <flow id="JF263425" begin="5240" fromJunction="J3" toJunction="J7" end="5300" vehsPerHour="43.258047322288796" departLane="free"/>
  <flow id="JF263426" begin="5240" fromJunction="J4" toJunction="J0" end="5300" vehsPerHour="9.161312345701486" departLane="free"/>
  <flow id="JF263427" begin="5240" fromJunction="J4" toJunction="J3" end="5300" vehsPerHour="30.847464105170843" departLane="free"/>
  <flow id="JF263428" begin="5240" fromJunction="J4" toJunction="J5" end="5300" vehsPerHour="5.4066635243901615" departLane="free"/>
  <flow id="JF263429" begin="5240" fromJunction="J4" toJunction="J7" end="5300" vehsPerHour="48.22457105199738" departLane="free"/>
  <flow id="JF263430" begin="5240" fromJunction="J5" toJunction="J0" end="5300" vehsPerHour="64.72661132291942" departLane="free"/>
  <flow id="JF263431" begin="5240" fromJunction="J5" toJunction="J3" end="5300" vehsPerHour="14.127197752135952" departLane="free"/>
  <flow id="JF263432" begin="5240" fromJunction="J5" toJunction="J4" end="5300" vehsPerHour="4.734185548265044" departLane="free"/>
  <flow id="JF263433" begin="5240" fromJunction="J5" toJunction="J6" end="5300" vehsPerHour="5.649182087427217" departLane="free"/>
  <flow id="JF263434" begin="5240" fromJunction="J5" toJunction="J7" end="5300" vehsPerHour="22.681005983406532" departLane="free"/>
  <flow id="JF263435" begin="5240" fromJunction="J6" toJunction="J0" end="5300" vehsPerHour="55.822839306471906" departLane="free"/>
  <flow id="JF263436" begin="5240" fromJunction="J6" toJunction="J7" end="5300" vehsPerHour="14.545924046958355" departLane="free"/>
  <flow id="JF263437" begin="5240" fromJunction="J7" toJunction="J0" end="5300" vehsPerHour="12.706336209489793" departLane="free"/>
  <flow id="JF263438" begin="5240" fromJunction="J7" toJunction="J4" end="5300" vehsPerHour="20.43420418842735" departLane="free"/>
  <flow id="JF263439" begin="5240" fromJunction="J7" toJunction="J5" end="5300" vehsPerHour="42.01071210243533" departLane="free"/>
  <flow id="JF263440" begin="5240" fromJunction="J7" toJunction="J6" end="5300" vehsPerHour="45.91588246524474" departLane="free"/>
  <flow id="JF263441" begin="5300" fromJunction="J0" toJunction="J3" end="5360" vehsPerHour="65.72737905356419" departLane="free"/>
  <flow id="JF263442" begin="5300" fromJunction="J0" toJunction="J4" end="5360" vehsPerHour="85.319354394755" departLane="free"/>
  <flow id="JF263443" begin="5300" fromJunction="J0" toJunction="J5" end="5360" vehsPerHour="23.318909353992524" departLane="free"/>
  <flow id="JF263444" begin="5300" fromJunction="J3" toJunction="J4" end="5360" vehsPerHour="50.839718782615755" departLane="free"/>
  <flow id="JF263445" begin="5300" fromJunction="J3" toJunction="J5" end="5360" vehsPerHour="67.96519009173885" departLane="free"/>
  <flow id="JF263446" begin="5300" fromJunction="J3" toJunction="J6" end="5360" vehsPerHour="35.82779466370457" departLane="free"/>
  <flow id="JF263447" begin="5300" fromJunction="J3" toJunction="J7" end="5360" vehsPerHour="4.030420078867996" departLane="free"/>
  <flow id="JF263448" begin="5300" fromJunction="J4" toJunction="J0" end="5360" vehsPerHour="27.821901404358677" departLane="free"/>
  <flow id="JF263449" begin="5300" fromJunction="J4" toJunction="J3" end="5360" vehsPerHour="24.09021505070713" departLane="free"/>
  <flow id="JF263450" begin="5300" fromJunction="J4" toJunction="J6" end="5360" vehsPerHour="13.568986683737137" departLane="free"/>
  <flow id="JF263451" begin="5300" fromJunction="J4" toJunction="J7" end="5360" vehsPerHour="3.512641002959965" departLane="free"/>
  <flow id="JF263452" begin="5300" fromJunction="J5" toJunction="J0" end="5360" vehsPerHour="3.034636238303919" departLane="free"/>
  <flow id="JF263453" begin="5300" fromJunction="J5" toJunction="J6" end="5360" vehsPerHour="19.585675766485444" departLane="free"/>
  <flow id="JF263454" begin="5300" fromJunction="J5" toJunction="J7" end="5360" vehsPerHour="12.16865971099442" departLane="free"/>
  <flow id="JF263455" begin="5300" fromJunction="J6" toJunction="J0" end="5360" vehsPerHour="59.8977533155821" departLane="free"/>
  <flow id="JF263456" begin="5300" fromJunction="J6" toJunction="J3" end="5360" vehsPerHour="48.238458166170105" departLane="free"/>
  <flow id="JF263457" begin="5300" fromJunction="J6" toJunction="J4" end="5360" vehsPerHour="28.502442290454905" departLane="free"/>
  <flow id="JF263458" begin="5300" fromJunction="J6" toJunction="J5" end="5360" vehsPerHour="19.18715480092437" departLane="free"/>
  <flow id="JF263459" begin="5300" fromJunction="J6" toJunction="J7" end="5360" vehsPerHour="1.0747648251270305" departLane="free"/>
  <flow id="JF263460" begin="5300" fromJunction="J7" toJunction="J3" end="5360" vehsPerHour="66.82484776604416" departLane="free"/>
  <flow id="JF263461" begin="5300" fromJunction="J7" toJunction="J4" end="5360" vehsPerHour="35.846133201013586" departLane="free"/>
  <flow id="JF263462" begin="5360" fromJunction="J0" toJunction="J3" end="5420" vehsPerHour="129.1349061068555" departLane="free"/>
  <flow id="JF263463" begin="5360" fromJunction="J0" toJunction="J4" end="5420" vehsPerHour="14.362988770926101" departLane="free"/>
  <flow id="JF263464" begin="5360" fromJunction="J0" toJunction="J5" end="5420" vehsPerHour="18.40342251165523" departLane="free"/>
  <flow id="JF263465" begin="5360" fromJunction="J0" toJunction="J6" end="5420" vehsPerHour="43.465961419083094" departLane="free"/>
  <flow id="JF263466" begin="5360" fromJunction="J0" toJunction="J7" end="5420" vehsPerHour="46.6710732297331" departLane="free"/>
  <flow id="JF263467" begin="5360" fromJunction="J3" toJunction="J0" end="5420" vehsPerHour="0.4689306754232242" departLane="free"/>
  <flow id="JF263468" begin="5360" fromJunction="J3" toJunction="J5" end="5420" vehsPerHour="62.869096084318464" departLane="free"/>
  <flow id="JF263469" begin="5360" fromJunction="J3" toJunction="J6" end="5420" vehsPerHour="103.03938871343728" departLane="free"/>
  <flow id="JF263470" begin="5360" fromJunction="J4" toJunction="J0" end="5420" vehsPerHour="10.803102667447295" departLane="free"/>
  <flow id="JF263471" begin="5360" fromJunction="J4" toJunction="J3" end="5420" vehsPerHour="65.5538628573113" departLane="free"/>
  <flow id="JF263472" begin="5360" fromJunction="J4" toJunction="J7" end="5420" vehsPerHour="44.97871569480758" departLane="free"/>
  <flow id="JF263473" begin="5360" fromJunction="J6" toJunction="J0" end="5420" vehsPerHour="26.858546528659012" departLane="free"/>
  <flow id="JF263474" begin="5360" fromJunction="J6" toJunction="J3" end="5420" vehsPerHour="18.401333449180015" departLane="free"/>
  <flow id="JF263475" begin="5360" fromJunction="J6" toJunction="J4" end="5420" vehsPerHour="63.51553714045039" departLane="free"/>
  <flow id="JF263476" begin="5360" fromJunction="J6" toJunction="J5" end="5420" vehsPerHour="37.89460111813329" departLane="free"/>
  <flow id="JF263477" begin="5360" fromJunction="J6" toJunction="J7" end="5420" vehsPerHour="13.807722651232488" departLane="free"/>
  <flow id="JF263478" begin="5360" fromJunction="J7" toJunction="J3" end="5420" vehsPerHour="56.440728595785075" departLane="free"/>
  <flow id="JF263479" begin="5360" fromJunction="J7" toJunction="J5" end="5420" vehsPerHour="65.17789368184101" departLane="free"/>
  <flow id="JF263480" begin="5420" fromJunction="J0" toJunction="J4" end="5480" vehsPerHour="95.06657990835419" departLane="free"/>
  <flow id="JF263481" begin="5420" fromJunction="J0" toJunction="J5" end="5480" vehsPerHour="15.248259776705249" departLane="free"/>
  <flow id="JF263482" begin="5420" fromJunction="J3" toJunction="J0" end="5480" vehsPerHour="18.164072193873128" departLane="free"/>
  <flow id="JF263483" begin="5420" fromJunction="J3" toJunction="J5" end="5480" vehsPerHour="8.7828983832433" departLane="free"/>
  <flow id="JF263484" begin="5420" fromJunction="J3" toJunction="J6" end="5480" vehsPerHour="111.6760220190251" departLane="free"/>
  <flow id="JF263485" begin="5420" fromJunction="J3" toJunction="J7" end="5480" vehsPerHour="6.723404459518752" departLane="free"/>
  <flow id="JF263486" begin="5420" fromJunction="J4" toJunction="J0" end="5480" vehsPerHour="58.330245434157476" departLane="free"/>
  <flow id="JF263487" begin="5420" fromJunction="J4" toJunction="J3" end="5480" vehsPerHour="34.76502318100126" departLane="free"/>
  <flow id="JF263488" begin="5420" fromJunction="J4" toJunction="J5" end="5480" vehsPerHour="64.52633271740197" departLane="free"/>
  <flow id="JF263489" begin="5420" fromJunction="J4" toJunction="J6" end="5480" vehsPerHour="37.7817997184534" departLane="free"/>
  <flow id="JF263490" begin="5420" fromJunction="J4" toJunction="J7" end="5480" vehsPerHour="45.29771693139118" departLane="free"/>
  <flow id="JF263491" begin="5420" fromJunction="J5" toJunction="J3" end="5480" vehsPerHour="40.936808653830916" departLane="free"/>
  <flow id="JF263492" begin="5420" fromJunction="J5" toJunction="J6" end="5480" vehsPerHour="1.124050549569364" departLane="free"/>
  <flow id="JF263493" begin="5420" fromJunction="J5" toJunction="J7" end="5480" vehsPerHour="29.205236938556396" departLane="free"/>
  <flow id="JF263494" begin="5420" fromJunction="J6" toJunction="J3" end="5480" vehsPerHour="59.15787450938343" departLane="free"/>
  <flow id="JF263495" begin="5420" fromJunction="J6" toJunction="J4" end="5480" vehsPerHour="51.67047776301211" departLane="free"/>
  <flow id="JF263496" begin="5420" fromJunction="J6" toJunction="J5" end="5480" vehsPerHour="39.01155880984291" departLane="free"/>
  <flow id="JF263497" begin="5420" fromJunction="J6" toJunction="J7" end="5480" vehsPerHour="8.376701485685157" departLane="free"/>
  <flow id="JF263498" begin="5420" fromJunction="J7" toJunction="J0" end="5480" vehsPerHour="25.386318788784266" departLane="free"/>
  <flow id="JF263499" begin="5420" fromJunction="J7" toJunction="J3" end="5480" vehsPerHour="67.33279882493575" departLane="free"/>
  <flow id="JF263500" begin="5420" fromJunction="J7" toJunction="J4" end="5480" vehsPerHour="50.26095010913826" departLane="free"/>
  <flow id="JF263501" begin="5420" fromJunction="J7" toJunction="J5" end="5480" vehsPerHour="39.22632217981385" departLane="free"/>
  <flow id="JF263502" begin="5420" fromJunction="J7" toJunction="J6" end="5480" vehsPerHour="61.09343018645591" departLane="free"/>
  <flow id="JF263503" begin="5480" fromJunction="J0" toJunction="J4" end="5540" vehsPerHour="93.63432579432002" departLane="free"/>
  <flow id="JF263504" begin="5480" fromJunction="J0" toJunction="J5" end="5540" vehsPerHour="94.47242407168442" departLane="free"/>
  <flow id="JF263505" begin="5480" fromJunction="J0" toJunction="J7" end="5540" vehsPerHour="92.51160802289827" departLane="free"/>
  <flow id="JF263506" begin="5480" fromJunction="J3" toJunction="J0" end="5540" vehsPerHour="131.81727356327448" departLane="free"/>
  <flow id="JF263507" begin="5480" fromJunction="J3" toJunction="J5" end="5540" vehsPerHour="22.478513475405205" departLane="free"/>
  <flow id="JF263508" begin="5480" fromJunction="J4" toJunction="J0" end="5540" vehsPerHour="2.0415333216192493" departLane="free"/>
  <flow id="JF263509" begin="5480" fromJunction="J4" toJunction="J3" end="5540" vehsPerHour="35.408492759115695" departLane="free"/>
  <flow id="JF263510" begin="5480" fromJunction="J4" toJunction="J5" end="5540" vehsPerHour="53.39539002529683" departLane="free"/>
  <flow id="JF263511" begin="5480" fromJunction="J4" toJunction="J6" end="5540" vehsPerHour="57.73755952328739" departLane="free"/>
  <flow id="JF263512" begin="5480" fromJunction="J5" toJunction="J0" end="5540" vehsPerHour="28.886455956862648" departLane="free"/>
  <flow id="JF263513" begin="5480" fromJunction="J5" toJunction="J3" end="5540" vehsPerHour="44.77091550344272" departLane="free"/>
  <flow id="JF263514" begin="5480" fromJunction="J5" toJunction="J4" end="5540" vehsPerHour="36.998505114559435" departLane="free"/>
  <flow id="JF263515" begin="5480" fromJunction="J5" toJunction="J6" end="5540" vehsPerHour="0.9419457624695277" departLane="free"/>
  <flow id="JF263516" begin="5480" fromJunction="J5" toJunction="J7" end="5540" vehsPerHour="3.3051735885513103" departLane="free"/>
  <flow id="JF263517" begin="5480" fromJunction="J6" toJunction="J0" end="5540" vehsPerHour="22.102997639054237" departLane="free"/>
  <flow id="JF263518" begin="5480" fromJunction="J6" toJunction="J3" end="5540" vehsPerHour="31.563060824190153" departLane="free"/>
  <flow id="JF263519" begin="5480" fromJunction="J6" toJunction="J4" end="5540" vehsPerHour="22.671420957199338" departLane="free"/>
  <flow id="JF263520" begin="5480" fromJunction="J7" toJunction="J4" end="5540" vehsPerHour="55.867245362496966" departLane="free"/>
  <flow id="JF263521" begin="5480" fromJunction="J7" toJunction="J5" end="5540" vehsPerHour="20.129246002016203" departLane="free"/>
  <flow id="JF263522" begin="5480" fromJunction="J7" toJunction="J6" end="5540" vehsPerHour="39.89568503313698" departLane="free"/>
  <flow id="JF263523" begin="5540" fromJunction="J0" toJunction="J3" end="5600" vehsPerHour="41.72153876510615" departLane="free"/>
  <flow id="JF263524" begin="5540" fromJunction="J0" toJunction="J4" end="5600" vehsPerHour="67.17736929403205" departLane="free"/>
  <flow id="JF263525" begin="5540" fromJunction="J0" toJunction="J5" end="5600" vehsPerHour="120.61931061640833" departLane="free"/>
  <flow id="JF263526" begin="5540" fromJunction="J0" toJunction="J6" end="5600" vehsPerHour="25.68693773048714" departLane="free"/>
  <flow id="JF263527" begin="5540" fromJunction="J0" toJunction="J7" end="5600" vehsPerHour="105.2044578368495" departLane="free"/>
  <flow id="JF263528" begin="5540" fromJunction="J3" toJunction="J4" end="5600" vehsPerHour="89.2045273392065" departLane="free"/>
  <flow id="JF263529" begin="5540" fromJunction="J3" toJunction="J5" end="5600" vehsPerHour="40.16858208288136" departLane="free"/>