<?xml version="1.0" encoding="UTF-8"?>
<routes xmlns:xsi="http://www.w3.org/2001/XMLSchema-instance" xsi:noNamespaceSchemaLocation="http://sumo.dlr.de/xsd/routes_file.xsd">
  <flow id="JF354200" begin="0" fromJunction="J0" toJunction="J3" end="60" vehsPerHour="529.2227319214579" departLane="free" arrivalSpeed="0.0"/>
  <flow id="JF354201" begin="0" fromJunction="J0" toJunction="J4" end="60" vehsPerHour="467.969772472751" departLane="free" arrivalSpeed="0.0"/>
  <flow id="JF354202" begin="0" fromJunction="J0" toJunction="J5" end="60" vehsPerHour="109.20748384891931" departLane="free" arrivalSpeed="0.0"/>
  <flow id="JF354203" begin="0" fromJunction="J0" toJunction="J6" end="60" vehsPerHour="101.36227571074505" departLane="free" arrivalSpeed="0.0"/>
  <flow id="JF354204" begin="0" fromJunction="J3" toJunction="J0" end="60" vehsPerHour="520.3708453126801" departLane="free" arrivalSpeed="0.0"/>
  <flow id="JF354205" begin="0" fromJunction="J3" toJunction="J7" end="60" vehsPerHour="155.25505563361205" departLane="free" arrivalSpeed="0.0"/>
  <flow id="JF354206" begin="0" fromJunction="J4" toJunction="J0" end="60" vehsPerHour="67.17085874250385" departLane="free" arrivalSpeed="0.0"/>
  <flow id="JF354207" begin="0" fromJunction="J4" toJunction="J3" end="60" vehsPerHour="15.662037401819418" departLane="free" arrivalSpeed="0.0"/>
  <flow id="JF354208" begin="0" fromJunction="J4" toJunction="J5" end="60" vehsPerHour="259.6836259888722" departLane="free" arrivalSpeed="0.0"/>
  <flow id="JF354209" begin="0" fromJunction="J4" toJunction="J6" end="60" vehsPerHour="221.56956958300913" departLane="free" arrivalSpeed="0.0"/>
  <flow id="JF354210" begin="0" fromJunction="J4" toJunction="J7" end="60" vehsPerHour="43.95083223931984" departLane="free" arrivalSpeed="0.0"/>
  <flow id="JF354211" begin="0" fromJunction="J5" toJunction="J0" end="60" vehsPerHour="127.18094070961718" departLane="free" arrivalSpeed="0.0"/>
  <flow id="JF354212" begin="0" fromJunction="J5" toJunction="J3" end="60" vehsPerHour="184.1517228636179" departLane="free" arrivalSpeed="0.0"/>
  <flow id="JF354213" begin="0" fromJunction="J5" toJunction="J6" end="60" vehsPerHour="58.18534516259221" departLane="free" arrivalSpeed="0.0"/>
  <flow id="JF354214" begin="0" fromJunction="J5" toJunction="J7" end="60" vehsPerHour="250.89247594373325" departLane="free" arrivalSpeed="0.0"/>
  <flow id="JF354215" begin="0" fromJunction="J6" toJunction="J0" end="60" vehsPerHour="54.991701280994036" departLane="free" arrivalSpeed="0.0"/>
  <flow id="JF354216" begin="0" fromJunction="J6" toJunction="J3" end="60" vehsPerHour="73.22392470616019" departLane="free" arrivalSpeed="0.0"/>
  <flow id="JF354217" begin="0" fromJunction="J6" toJunction="J4" end="60" vehsPerHour="246.4094464443367" departLane="free" arrivalSpeed="0.0"/>
  <flow id="JF354218" begin="0" fromJunction="J6" toJunction="J7" end="60" vehsPerHour="34.53405657166375" departLane="free" arrivalSpeed="0.0"/>
  <flow id="JF354219" begin="0" fromJunction="J7" toJunction="J0" end="60" vehsPerHour="162.9789258261308" departLane="free" arrivalSpeed="0.0"/>
  <flow id="JF354220" begin="0" fromJunction="J7" toJunction="J3" end="60" vehsPerHour="29.474743260966903" departLane="free" arrivalSpeed="0.0"/>
  <flow id="JF354221" begin="0" fromJunction="J7" toJunction="J4" end="60" vehsPerHour="168.22698375035247" departLane="free" arrivalSpeed="0.0"/>
  <flow id="JF354222" begin="0" fromJunction="J7" toJunction="J5" end="60" vehsPerHour="258.8153249609369" departLane="free" arrivalSpeed="0.0"/>
  <flow id="JF354223" begin="60" fromJunction="J0" toJunction="J3" end="120" vehsPerHour="426.4558836654684" departLane="free" arrivalSpeed="0.0"/>
  <flow id="JF354224" begin="60" fromJunction="J0" toJunction="J5" end="120" vehsPerHour="436.29089872509564" departLane="free" arrivalSpeed="0.0"/>
  <flow id="JF354225" begin="60" fromJunction="J0" toJunction="J6" end="120" vehsPerHour="522.6224890633348" departLane="free" arrivalSpeed="0.0"/>
  <flow id="JF354226" begin="60" fromJunction="J0" toJunction="J7" end="120" vehsPerHour="223.62815707381145" departLane="free" arrivalSpeed="0.0"/>
  <flow id="JF354227" begin="60" fromJunction="J3" toJunction="J0" end="120" vehsPerHour="177.5662322011368" departLane="free" arrivalSpeed="0.0"/>
  <flow id="JF354228" begin="60" fromJunction="J3" toJunction="J4" end="120" vehsPerHour="1.9964467727822544" departLane="free" arrivalSpeed="0.0"/>
  <flow id="JF354229" begin="60" fromJunction="J3" toJunction="J5" end="120" vehsPerHour="37.76033105022889" departLane="free" arrivalSpeed="0.0"/>
  <flow id="JF354230" begin="60" fromJunction="J3" toJunction="J6" end="120" vehsPerHour="475.0731316299492" departLane="free" arrivalSpeed="0.0"/>
  <flow id="JF354231" begin="60" fromJunction="J3" toJunction="J7" end="120" vehsPerHour="498.7394652559942" departLane="free" arrivalSpeed="0.0"/>
  <flow id="JF354232" begin="60" fromJunction="J4" toJunction="J3" end="120" vehsPerHour="98.95535899497166" departLane="free" arrivalSpeed="0.0"/>
  <flow id="JF354233" begin="60" fromJunction="J4" toJunction="J6" end="120" vehsPerHour="100.07645894613353" departLane="free" arrivalSpeed="0.0"/>
  <flow id="JF354234" begin="60" fromJunction="J4" toJunction="J7" end="120" vehsPerHour="181.55486269044943" departLane="free" arrivalSpeed="0.0"/>
  <flow id="JF354235" begin="60" fromJunction="J5" toJunction="J0" end="120" vehsPerHour="47.2389069554974" departLane="free" arrivalSpeed="0.0"/>
  <flow id="JF354236" begin="60" fromJunction="J5" toJunction="J3" end="120" vehsPerHour="185.88465873902393" departLane="free" arrivalSpeed="0.0"/>
  <flow id="JF354237" begin="60" fromJunction="J5" toJunction="J4" end="120" vehsPerHour="34.00083117718758" departLane="free" arrivalSpeed="0.0"/>
  <flow id="JF354238" begin="60" fromJunction="J6" toJunction="J3" end="120" vehsPerHour="175.87649413101715" departLane="free" arrivalSpeed="0.0"/>
  <flow id="JF354239" begin="60" fromJunction="J6" toJunction="J4" end="120" vehsPerHour="161.75401973942698" departLane="free" arrivalSpeed="0.0"/>
  <flow id="JF354240" begin="60" fromJunction="J6" toJunction="J5" end="120" vehsPerHour="16.82274019154987" departLane="free" arrivalSpeed="0.0"/>
  <flow id="JF354241" begin="60" fromJunction="J6" toJunction="J7" end="120" vehsPerHour="142.88193512711558" departLane="free" arrivalSpeed="0.0"/>
  <flow id="JF354242" begin="60" fromJunction="J7" toJunction="J0" end="120" vehsPerHour="43.24491449737251" departLane="free" arrivalSpeed="0.0"/>
  <flow id="JF354243" begin="60" fromJunction="J7" toJunction="J4" end="120" vehsPerHour="15.345733176148096" departLane="free" arrivalSpeed="0.0"/>
  <flow id="JF354244" begin="60" fromJunction="J7" toJunction="J5" end="120" vehsPerHour="259.00611397972284" departLane="free" arrivalSpeed="0.0"/>
  <flow id="JF354245" begin="60" fromJunction="J7" toJunction="J6" end="120" vehsPerHour="90.37836322581374" departLane="free" arrivalSpeed="0.0"/>
  <flow id="JF354246" begin="120" fromJunction="J0" toJunction="J3" end="180" vehsPerHour="171.50802447733616" departLane="free" arrivalSpeed="0.0"/>
  <flow id="JF354247" begin="120" fromJunction="J0" toJunction="J4" end="180" vehsPerHour="142.04910785560892" departLane="free" arrivalSpeed="0.0"/>
  <flow id="JF354248" begin="120" fromJunction="J0" toJunction="J5" end="180" vehsPerHour="390.27437286521143" departLane="free" arrivalSpeed="0.0"/>
  <flow id="JF354249" begin="120" fromJunction="J0" toJunction="J6" end="180" vehsPerHour="389.99976567758705" departLane="free" arrivalSpeed="0.0"/>
  <flow id="JF354250" begin="120" fromJunction="J0" toJunction="J7" end="180" vehsPerHour="506.1512669187471" departLane="free" arrivalSpeed="0.0"/>
  <flow id="JF354251" begin="120" fromJunction="J3" toJunction="J0" end="180" vehsPerHour="420.7906767590568" departLane="free" arrivalSpeed="0.0"/>
  <flow id="JF354252" begin="120" fromJunction="J3" toJunction="J4" end="180" vehsPerHour="119.4245275701276" departLane="free" arrivalSpeed="0.0"/>
  <flow id="JF354253" begin="120" fromJunction="J3" toJunction="J5" end="180" vehsPerHour="22.97601712350497" departLane="free" arrivalSpeed="0.0"/>
  <flow id="JF354254" begin="120" fromJunction="J3" toJunction="J6" end="180" vehsPerHour="377.45019708508636" departLane="free" arrivalSpeed="0.0"/>
  <flow id="JF354255" begin="120" fromJunction="J3" toJunction="J7" end="180" vehsPerHour="37.1230537793353" departLane="free" arrivalSpeed="0.0"/>
  <flow id="JF354256" begin="120" fromJunction="J4" toJunction="J0" end="180" vehsPerHour="155.01229457725492" departLane="free" arrivalSpeed="0.0"/>
  <flow id="JF354257" begin="120" fromJunction="J4" toJunction="J5" end="180" vehsPerHour="174.8843835486721" departLane="free" arrivalSpeed="0.0"/>
  <flow id="JF354258" begin="120" fromJunction="J4" toJunction="J6" end="180" vehsPerHour="263.12884873197595" departLane="free" arrivalSpeed="0.0"/>
  <flow id="JF354259" begin="120" fromJunction="J4" toJunction="J7" end="180" vehsPerHour="58.28199615930571" departLane="free" arrivalSpeed="0.0"/>
  <flow id="JF354260" begin="120" fromJunction="J5" toJunction="J0" end="180" vehsPerHour="237.24112108107155" departLane="free" arrivalSpeed="0.0"/>
  <flow id="JF354261" begin="120" fromJunction="J5" toJunction="J3" end="180" vehsPerHour="23.825558939389868" departLane="free" arrivalSpeed="0.0"/>
  <flow id="JF354262" begin="120" fromJunction="J5" toJunction="J4" end="180" vehsPerHour="217.43598806812295" departLane="free" arrivalSpeed="0.0"/>
  <flow id="JF354263" begin="120" fromJunction="J5" toJunction="J6" end="180" vehsPerHour="83.56245041303589" departLane="free" arrivalSpeed="0.0"/>
  <flow id="JF354264" begin="120" fromJunction="J5" toJunction="J7" end="180" vehsPerHour="171.9446173048649" departLane="free" arrivalSpeed="0.0"/>
  <flow id="JF354265" begin="120" fromJunction="J6" toJunction="J0" end="180" vehsPerHour="59.22796500274244" departLane="free" arrivalSpeed="0.0"/>
  <flow id="JF354266" begin="120" fromJunction="J6" toJunction="J3" end="180" vehsPerHour="158.75057437466128" departLane="free" arrivalSpeed="0.0"/>
  <flow id="JF354267" begin="120" fromJunction="J6" toJunction="J4" end="180" vehsPerHour="210.17426474201613" departLane="free" arrivalSpeed="0.0"/>
  <flow id="JF354268" begin="120" fromJunction="J6" toJunction="J5" end="180" vehsPerHour="112.3985205657954" departLane="free" arrivalSpeed="0.0"/>
  <flow id="JF354269" begin="120" fromJunction="J7" toJunction="J3" end="180" vehsPerHour="47.69322282491283" departLane="free" arrivalSpeed="0.0"/>
  <flow id="JF354270" begin="120" fromJunction="J7" toJunction="J4" end="180" vehsPerHour="207.2103326946562" departLane="free" arrivalSpeed="0.0"/>
  <flow id="JF354271" begin="120" fromJunction="J7" toJunction="J5" end="180" vehsPerHour="233.27406394005385" departLane="free" arrivalSpeed="0.0"/>
  <flow id="JF354272" begin="120" fromJunction="J7" toJunction="J6" end="180" vehsPerHour="61.5702358986338" departLane="free" arrivalSpeed="0.0"/>
  <flow id="JF354273" begin="180" fromJunction="J0" toJunction="J3" end="240" vehsPerHour="247.61788186764934" departLane="free" arrivalSpeed="0.0"/>
  <flow id="JF354274" begin="180" fromJunction="J0" toJunction="J4" end="240" vehsPerHour="357.77480839212507" departLane="free" arrivalSpeed="0.0"/>
  <flow id="JF354275" begin="180" fromJunction="J0" toJunction="J6" end="240" vehsPerHour="293.9686096433894" departLane="free" arrivalSpeed="0.0"/>
  <flow id="JF354276" begin="180" fromJunction="J0" toJunction="J7" end="240" vehsPerHour="312.08321884722926" departLane="free" arrivalSpeed="0.0"/>
  <flow id="JF354277" begin="180" fromJunction="J3" toJunction="J0" end="240" vehsPerHour="528.0132239898815" departLane="free" arrivalSpeed="0.0"/>
  <flow id="JF354278" begin="180" fromJunction="J3" toJunction="J5" end="240" vehsPerHour="423.6608714902794" departLane="free" arrivalSpeed="0.0"/>
  <flow id="JF354279" begin="180" fromJunction="J3" toJunction="J6" end="240" vehsPerHour="423.92712011941086" departLane="free" arrivalSpeed="0.0"/>
  <flow id="JF354280" begin="180" fromJunction="J3" toJunction="J7" end="240" vehsPerHour="32.613162712140365" departLane="free" arrivalSpeed="0.0"/>
  <flow id="JF354281" begin="180" fromJunction="J4" toJunction="J0" end="240" vehsPerHour="229.15789555671353" departLane="free" arrivalSpeed="0.0"/>
  <flow id="JF354282" begin="180" fromJunction="J4" toJunction="J7" end="240" vehsPerHour="181.75326060544717" departLane="free" arrivalSpeed="0.0"/>
  <flow id="JF354283" begin="180" fromJunction="J5" toJunction="J6" end="240" vehsPerHour="82.70819710887346" departLane="free" arrivalSpeed="0.0"/>
  <flow id="JF354284" begin="180" fromJunction="J5" toJunction="J7" end="240" vehsPerHour="156.26556751410644" departLane="free" arrivalSpeed="0.0"/>
  <flow id="JF354285" begin="180" fromJunction="J6" toJunction="J0" end="240" vehsPerHour="214.79082305826063" departLane="free" arrivalSpeed="0.0"/>
  <flow id="JF354286" begin="180" fromJunction="J6" toJunction="J3" end="240" vehsPerHour="148.1007859125169" departLane="free" arrivalSpeed="0.0"/>
  <flow id="JF354287" begin="180" fromJunction="J6" toJunction="J4" end="240" vehsPerHour="81.82659246174389" departLane="free" arrivalSpeed="0.0"/>
  <flow id="JF354288" begin="180" fromJunction="J6" toJunction="J5" end="240" vehsPerHour="145.8513030621109" departLane="free" arrivalSpeed="0.0"/>
  <flow id="JF354289" begin="180" fromJunction="J6" toJunction="J7" end="240" vehsPerHour="101.75378996244571" departLane="free" arrivalSpeed="0.0"/>
  <flow id="JF354290" begin="180" fromJunction="J7" toJunction="J3" end="240" vehsPerHour="142.7742554066394" departLane="free" arrivalSpeed="0.0"/>
  <flow id="JF354291" begin="180" fromJunction="J7" toJunction="J4" end="240" vehsPerHour="142.64172813961488" departLane="free" arrivalSpeed="0.0"/>
  <flow id="JF354292" begin="180" fromJunction="J7" toJunction="J5" end="240" vehsPerHour="135.60898777780758" departLane="free" arrivalSpeed="0.0"/>
  <flow id="JF354293" begin="240" fromJunction="J0" toJunction="J3" end="300" vehsPerHour="370.8819628253398" departLane="free" arrivalSpeed="0.0"/>
  <flow id="JF354294" begin="240" fromJunction="J0" toJunction="J4" end="300" vehsPerHour="205.30564156755358" departLane="free" arrivalSpeed="0.0"/>
  <flow id="JF354295" begin="240" fromJunction="J0" toJunction="J5" end="300" vehsPerHour="391.9318280466426" departLane="free" arrivalSpeed="0.0"/>
  <flow id="JF354296" begin="240" fromJunction="J0" toJunction="J6" end="300" vehsPerHour="337.50059025394324" departLane="free" arrivalSpeed="0.0"/>
  <flow id="JF354297" begin="240" fromJunction="J0" toJunction="J7" end="300" vehsPerHour="489.24998030572453" departLane="free" arrivalSpeed="0.0"/>
  <flow id="JF354298" begin="240" fromJunction="J3" toJunction="J4" end="300" vehsPerHour="91.65892311241205" departLane="free" arrivalSpeed="0.0"/>
  <flow id="JF354299" begin="240" fromJunction="J3" toJunction="J5" end="300" vehsPerHour="135.81015371580884" departLane="free" arrivalSpeed="0.0"/>
  <flow id="JF354300" begin="240" fromJunction="J3" toJunction="J6" end="300" vehsPerHour="274.6629707987431" departLane="free" arrivalSpeed="0.0"/>
  <flow id="JF354301" begin="240" fromJunction="J3" toJunction="J7" end="300" vehsPerHour="236.2705509103588" departLane="free" arrivalSpeed="0.0"/>
  <flow id="JF354302" begin="240" fromJunction="J4" toJunction="J0" end="300" vehsPerHour="65.07420598091186" departLane="free" arrivalSpeed="0.0"/>
  <flow id="JF354303" begin="240" fromJunction="J4" toJunction="J5" end="300" vehsPerHour="182.1046164539618" departLane="free" arrivalSpeed="0.0"/>
  <flow id="JF354304" begin="240" fromJunction="J5" toJunction="J0" end="300" vehsPerHour="65.0413810597618" departLane="free" arrivalSpeed="0.0"/>
  <flow id="JF354305" begin="240" fromJunction="J5" toJunction="J3" end="300" vehsPerHour="111.78779699195951" departLane="free" arrivalSpeed="0.0"/>
  <flow id="JF354306" begin="240" fromJunction="J5" toJunction="J4" end="300" vehsPerHour="80.30220251817182" departLane="free" arrivalSpeed="0.0"/>
  <flow id="JF354307" begin="240" fromJunction="J6" toJunction="J0" end="300" vehsPerHour="9.34719508669112" departLane="free" arrivalSpeed="0.0"/>
  <flow id="JF354308" begin="240" fromJunction="J6" toJunction="J3" end="300" vehsPerHour="265.0676966917896" departLane="free" arrivalSpeed="0.0"/>
  <flow id="JF354309" begin="240" fromJunction="J6" toJunction="J4" end="300" vehsPerHour="44.69802312278444" departLane="free" arrivalSpeed="0.0"/>
  <flow id="JF354310" begin="240" fromJunction="J6" toJunction="J7" end="300" vehsPerHour="12.96676631724962" departLane="free" arrivalSpeed="0.0"/>
  <flow id="JF354311" begin="240" fromJunction="J7" toJunction="J0" end="300" vehsPerHour="269.56577118942397" departLane="free" arrivalSpeed="0.0"/>
  <flow id="JF354312" begin="240" fromJunction="J7" toJunction="J4" end="300" vehsPerHour="27.74086636623118" departLane="free" arrivalSpeed="0.0"/>
  <flow id="JF354313" begin="240" fromJunction="J7" toJunction="J5" end="300" vehsPerHour="59.1692939322583" departLane="free" arrivalSpeed="0.0"/>
  <flow id="JF354314" begin="240" fromJunction="J7" toJunction="J6" end="300" vehsPerHour="98.14954833214748" departLane="free" arrivalSpeed="0.0"/>
  <flow id="JF354315" begin="300" fromJunction="J0" toJunction="J3" end="360" vehsPerHour="228.76852134639893" departLane="free" arrivalSpeed="0.0"/>
  <flow id="JF354316" begin="300" fromJunction="J0" toJunction="J4" end="360" vehsPerHour="441.47403260099964" departLane="free" arrivalSpeed="0.0"/>
  <flow id="JF354317" begin="300" fromJunction="J0" toJunction="J5" end="360" vehsPerHour="54.16853992237805" departLane="free" arrivalSpeed="0.0"/>
  <flow id="JF354318" begin="300" fromJunction="J3" toJunction="J0" end="360" vehsPerHour="95.77861766104199" departLane="free" arrivalSpeed="0.0"/>
  <flow id="JF354319" begin="300" fromJunction="J3" toJunction="J4" end="360" vehsPerHour="343.7246617477962" departLane="free" arrivalSpeed="0.0"/>
  <flow id="JF354320" begin="300" fromJunction="J3" toJunction="J5" end="360" vehsPerHour="53.25981381050765" departLane="free" arrivalSpeed="0.0"/>
  <flow id="JF354321" begin="300" fromJunction="J3" toJunction="J7" end="360" vehsPerHour="139.84076337517925" departLane="free" arrivalSpeed="0.0"/>
  <flow id="JF354322" begin="300" fromJunction="J4" toJunction="J0" end="360" vehsPerHour="229.4226694099457" departLane="free" arrivalSpeed="0.0"/>
  <flow id="JF354323" begin="300" fromJunction="J4" toJunction="J6" end="360" vehsPerHour="77.4139307182341" departLane="free" arrivalSpeed="0.0"/>
  <flow id="JF354324" begin="300" fromJunction="J4" toJunction="J7" end="360" vehsPerHour="210.55839936394764" departLane="free" arrivalSpeed="0.0"/>
  <flow id="JF354325" begin="300" fromJunction="J5" toJunction="J0" end="360" vehsPerHour="266.3931235958529" departLane="free" arrivalSpeed="0.0"/>
  <flow id="JF354326" begin="300" fromJunction="J5" toJunction="J3" end="360" vehsPerHour="42.41984157015018" departLane="free" arrivalSpeed="0.0"/>
  <flow id="JF354327" begin="300" fromJunction="J5" toJunction="J4" end="360" vehsPerHour="61.513318630345076" departLane="free" arrivalSpeed="0.0"/>
  <flow id="JF354328" begin="300" fromJunction="J6" toJunction="J0" end="360" vehsPerHour="226.6450161780748" departLane="free" arrivalSpeed="0.0"/>
  <flow id="JF354329" begin="300" fromJunction="J6" toJunction="J3" end="360" vehsPerHour="31.813454798353135" departLane="free" arrivalSpeed="0.0"/>
  <flow id="JF354330" begin="300" fromJunction="J6" toJunction="J5" end="360" vehsPerHour="13.034378298310845" departLane="free" arrivalSpeed="0.0"/>
  <flow id="JF354331" begin="300" fromJunction="J6" toJunction="J7" end="360" vehsPerHour="92.31887301389195" departLane="free" arrivalSpeed="0.0"/>
  <flow id="JF354332" begin="300" fromJunction="J7" toJunction="J0" end="360" vehsPerHour="20.825298430473204" departLane="free" arrivalSpeed="0.0"/>
  <flow id="JF354333" begin="300" fromJunction="J7" toJunction="J4" end="360" vehsPerHour="110.88983331083284" departLane="free" arrivalSpeed="0.0"/>
  <flow id="JF354334" begin="300" fromJunction="J7" toJunction="J5" end="360" vehsPerHour="48.38731624302532" departLane="free" arrivalSpeed="0.0"/>
  <flow id="JF354335" begin="360" fromJunction="J0" toJunction="J4" end="420" vehsPerHour="236.2707753610165" departLane="free" arrivalSpeed="0.0"/>
  <flow id="JF354336" begin="360" fromJunction="J0" toJunction="J5" end="420" vehsPerHour="1.5412917623628875" departLane="free" arrivalSpeed="0.0"/>
  <flow id="JF354337" begin="360" fromJunction="J0" toJunction="J7" end="420" vehsPerHour="33.20137307566588" departLane="free" arrivalSpeed="0.0"/>
  <flow id="JF354338" begin="360" fromJunction="J3" toJunction="J4" end="420" vehsPerHour="240.6204877517389" departLane="free" arrivalSpeed="0.0"/>
  <flow id="JF354339" begin="360" fromJunction="J3" toJunction="J6" end="420" vehsPerHour="515.2034688069268" departLane="free" arrivalSpeed="0.0"/>
  <flow id="JF354340" begin="360" fromJunction="J3" toJunction="J7" end="420" vehsPerHour="299.6582407678308" departLane="free" arrivalSpeed="0.0"/>
  <flow id="JF354341" begin="360" fromJunction="J4" toJunction="J0" end="420" vehsPerHour="139.24140543531954" departLane="free" arrivalSpeed="0.0"/>
  <flow id="JF354342" begin="360" fromJunction="J4" toJunction="J3" end="420" vehsPerHour="233.90944919115847" departLane="free" arrivalSpeed="0.0"/>
  <flow id="JF354343" begin="360" fromJunction="J4" toJunction="J5" end="420" vehsPerHour="40.07766625874662" departLane="free" arrivalSpeed="0.0"/>
  <flow id="JF354344" begin="360" fromJunction="J5" toJunction="J0" end="420" vehsPerHour="273.9133473213115" departLane="free" arrivalSpeed="0.0"/>
  <flow id="JF354345" begin="360" fromJunction="J5" toJunction="J3" end="420" vehsPerHour="265.9001682085191" departLane="free" arrivalSpeed="0.0"/>
  <flow id="JF354346" begin="360" fromJunction="J5" toJunction="J4" end="420" vehsPerHour="206.92547793142242" departLane="free" arrivalSpeed="0.0"/>
  <flow id="JF354347" begin="360" fromJunction="J6" toJunction="J0" end="420" vehsPerHour="209.8399597209014" departLane="free" arrivalSpeed="0.0"/>
  <flow id="JF354348" begin="360" fromJunction="J6" toJunction="J3" end="420" vehsPerHour="270.2244504426637" departLane="free" arrivalSpeed="0.0"/>
  <flow id="JF354349" begin="360" fromJunction="J6" toJunction="J7" end="420" vehsPerHour="226.84791491022008" departLane="free" arrivalSpeed="0.0"/>
  <flow id="JF354350" begin="360" fromJunction="J7" toJunction="J0" end="420" vehsPerHour="213.67818265291842" departLane="free" arrivalSpeed="0.0"/>
  <flow id="JF354351" begin="360" fromJunction="J7" toJunction="J3" end="420" vehsPerHour="74.7187327843957" departLane="free" arrivalSpeed="0.0"/>
  <flow id="JF354352" begin="360" fromJunction="J7" toJunction="J4" end="420" vehsPerHour="28.43254733407792" departLane="free" arrivalSpeed="0.0"/>
  <flow id="JF354353" begin="360" fromJunction="J7" toJunction="J5" end="420" vehsPerHour="103.74462376138752" departLane="free" arrivalSpeed="0.0"/>
  <flow id="JF354354" begin="360" fromJunction="J7" toJunction="J6" end="420" vehsPerHour="187.59287079975905" departLane="free" arrivalSpeed="0.0"/>
  <flow id="JF354355" begin="420" fromJunction="J0" toJunction="J3" end="480" vehsPerHour="367.52307045957957" departLane="free" arrivalSpeed="0.0"/>
  <flow id="JF354356" begin="420" fromJunction="J0" toJunction="J4" end="480" vehsPerHour="405.9865556221331" departLane="free" arrivalSpeed="0.0"/>
  <flow id="JF354357" begin="420" fromJunction="J0" toJunction="J5" end="480" vehsPerHour="67.38150309608721" departLane="free" arrivalSpeed="0.0"/>
  <flow id="JF354358" begin="420" fromJunction="J0" toJunction="J6" end="480" vehsPerHour="351.4489127386504" departLane="free" arrivalSpeed="0.0"/>
  <flow id="JF354359" begin="420" fromJunction="J3" toJunction="J4" end="480" vehsPerHour="389.9948604691897" departLane="free" arrivalSpeed="0.0"/>
  <flow id="JF354360" begin="420" fromJunction="J3" toJunction="J5" end="480" vehsPerHour="354.3789578023336" departLane="free" arrivalSpeed="0.0"/>
  <flow id="JF354361" begin="420" fromJunction="J3" toJunction="J7" end="480" vehsPerHour="398.0304460657508" departLane="free" arrivalSpeed="0.0"/>
  <flow id="JF354362" begin="420" fromJunction="J4" toJunction="J3" end="480" vehsPerHour="137.00377933268564" departLane="free" arrivalSpeed="0.0"/>
  <flow id="JF354363" begin="420" fromJunction="J4" toJunction="J6" end="480" vehsPerHour="88.58650614457044" departLane="free" arrivalSpeed="0.0"/>
  <flow id="JF354364" begin="420" fromJunction="J5" toJunction="J3" end="480" vehsPerHour="238.81249906304845" departLane="free" arrivalSpeed="0.0"/>
  <flow id="JF354365" begin="420" fromJunction="J5" toJunction="J6" end="480" vehsPerHour="217.09076459524707" departLane="free" arrivalSpeed="0.0"/>
  <flow id="JF354366" begin="420" fromJunction="J6" toJunction="J0" end="480" vehsPerHour="40.56073978391047" departLane="free" arrivalSpeed="0.0"/>
  <flow id="JF354367" begin="420" fromJunction="J7" toJunction="J0" end="480" vehsPerHour="104.98964722103953" departLane="free" arrivalSpeed="0.0"/>
  <flow id="JF354368" begin="420" fromJunction="J7" toJunction="J3" end="480" vehsPerHour="254.71582280628581" departLane="free" arrivalSpeed="0.0"/>
  <flow id="JF354369" begin="420" fromJunction="J7" toJunction="J4" end="480" vehsPerHour="267.63984767575556" departLane="free" arrivalSpeed="0.0"/>
  <flow id="JF354370" begin="420" fromJunction="J7" toJunction="J5" end="480" vehsPerHour="111.63063080495766" departLane="free" arrivalSpeed="0.0"/>
  <flow id="JF354371" begin="480" fromJunction="J0" toJunction="J3" end="540" vehsPerHour="393.11591891474126" departLane="free" arrivalSpeed="0.0"/>
  <flow id="JF354372" begin="480" fromJunction="J0" toJunction="J4" end="540" vehsPerHour="47.45549670276624" departLane="free" arrivalSpeed="0.0"/>
  <flow id="JF354373" begin="480" fromJunction="J0" toJunction="J5" end="540" vehsPerHour="449.0037860035305" departLane="free" arrivalSpeed="0.0"/>
  <flow id="JF354374" begin="480" fromJunction="J0" toJunction="J6" end="540" vehsPerHour="23.922771306281597" departLane="free" arrivalSpeed="0.0"/>
  <flow id="JF354375" begin="480" fromJunction="J3" toJunction="J0" end="540" vehsPerHour="135.19182994037527" departLane="free" arrivalSpeed="0.0"/>
  <flow id="JF354376" begin="480" fromJunction="J3" toJunction="J4" end="540" vehsPerHour="524.211748183238" departLane="free" arrivalSpeed="0.0"/>
  <flow id="JF354377" begin="480" fromJunction="J3" toJunction="J5" end="540" vehsPerHour="467.2264586948623" departLane="free" arrivalSpeed="0.0"/>
  <flow id="JF354378" begin="480" fromJunction="J4" toJunction="J0" end="540" vehsPerHour="134.5843324093365" departLane="free" arrivalSpeed="0.0"/>
  <flow id="JF354379" begin="480" fromJunction="J4" toJunction="J5" end="540" vehsPerHour="172.11929540360842" departLane="free" arrivalSpeed="0.0"/>
  <flow id="JF354380" begin="480" fromJunction="J4" toJunction="J7" end="540" vehsPerHour="178.24664121607873" departLane="free" arrivalSpeed="0.0"/>
  <flow id="JF354381" begin="480" fromJunction="J5" toJunction="J3" end="540" vehsPerHour="36.0924358608388" departLane="free" arrivalSpeed="0.0"/>
  <flow id="JF354382" begin="480" fromJunction="J5" toJunction="J4" end="540" vehsPerHour="205.8048733697925" departLane="free" arrivalSpeed="0.0"/>
  <flow id="JF354383" begin="480" fromJunction="J5" toJunction="J6" end="540" vehsPerHour="62.887680568713535" departLane="free" arrivalSpeed="0.0"/>
  <flow id="JF354384" begin="480" fromJunction="J6" toJunction="J3" end="540" vehsPerHour="232.45292178998815" departLane="free" arrivalSpeed="0.0"/>
  <flow id="JF354385" begin="480" fromJunction="J6" toJunction="J7" end="540" vehsPerHour="185.2010568412709" departLane="free" arrivalSpeed="0.0"/>
  <flow id="JF354386" begin="480" fromJunction="J7" toJunction="J0" end="540" vehsPerHour="8.822943012868963" departLane="free" arrivalSpeed="0.0"/>
  <flow id="JF354387" begin="480" fromJunction="J7" toJunction="J3" end="540" vehsPerHour="231.75621819103293" departLane="free" arrivalSpeed="0.0"/>
  <flow id="JF354388" begin="480" fromJunction="J7" toJunction="J4" end="540" vehsPerHour="44.01214231108223" departLane="free" arrivalSpeed="0.0"/>
  <flow id="JF354389" begin="480" fromJunction="J7" toJunction="J6" end="540" vehsPerHour="23.81656935499" departLane="free" arrivalSpeed="0.0"/>
  <flow id="JF354390" begin="540" fromJunction="J0" toJunction="J3" end="600" vehsPerHour="316.17906409425945" departLane="free" arrivalSpeed="0.0"/>
  <flow id="JF354391" begin="540" fromJunction="J0" toJunction="J4" end="600" vehsPerHour="2.4060188728275054" departLane="free" arrivalSpeed="0.0"/>
  <flow id="JF354392" begin="540" fromJunction="J0" toJunction="J5" end="600" vehsPerHour="82.8840347306779" departLane="free" arrivalSpeed="0.0"/>
  <flow id="JF354393" begin="540" fromJunction="J0" toJunction="J6" end="600" vehsPerHour="359.60361408771274" departLane="free" arrivalSpeed="0.0"/>
  <flow id="JF354394" begin="540" fromJunction="J3" toJunction="J4" end="600" vehsPerHour="25.716661648638706" departLane="free" arrivalSpeed="0.0"/>
  <flow id="JF354395" begin="540" fromJunction="J3" toJunction="J5" end="600" vehsPerHour="163.5208268320608" departLane="free" arrivalSpeed="0.0"/>
  <flow id="JF354396" begin="540" fromJunction="J3" toJunction="J6" end="600" vehsPerHour="230.67305539980842" departLane="free" arrivalSpeed="0.0"/>
  <flow id="JF354397" begin="540" fromJunction="J3" toJunction="J7" end="600" vehsPerHour="236.3252418625782" departLane="free" arrivalSpeed="0.0"/>
  <flow id="JF354398" begin="540" fromJunction="J4" toJunction="J0" end="600" vehsPerHour="78.92955453510993" departLane="free" arrivalSpeed="0.0"/>
  <flow id="JF354399" begin="540" fromJunction="J4" toJunction="J5" end="600" vehsPerHour="194.9658071169681" departLane="free" arrivalSpeed="0.0"/>