<?xml version="1.0" encoding="UTF-8"?>
<routes xmlns:xsi="http://www.w3.org/2001/XMLSchema-instance" xsi:noNamespaceSchemaLocation="http://sumo.dlr.de/xsd/routes_file.xsd">
  <flow id="JF350766" begin="0" fromJunction="J0" toJunction="J3" end="60" vehsPerHour="158.62284002411175" departLane="free" arrivalSpeed="0.0"/>
  <flow id="JF350767" begin="0" fromJunction="J0" toJunction="J4" end="60" vehsPerHour="415.96792009190085" departLane="free" arrivalSpeed="0.0"/>
  <flow id="JF350768" begin="0" fromJunction="J0" toJunction="J5" end="60" vehsPerHour="400.1114822332083" departLane="free" arrivalSpeed="0.0"/>
  <flow id="JF350769" begin="0" fromJunction="J0" toJunction="J6" end="60" vehsPerHour="548.9765696640583" departLane="free" arrivalSpeed="0.0"/>
  <flow id="JF350770" begin="0" fromJunction="J3" toJunction="J0" end="60" vehsPerHour="144.64229544939565" departLane="free" arrivalSpeed="0.0"/>
  <flow id="JF350771" begin="0" fromJunction="J3" toJunction="J4" end="60" vehsPerHour="443.391184617663" departLane="free" arrivalSpeed="0.0"/>
  <flow id="JF350772" begin="0" fromJunction="J3" toJunction="J6" end="60" vehsPerHour="6.486818861996805" departLane="free" arrivalSpeed="0.0"/>
  <flow id="JF350773" begin="0" fromJunction="J3" toJunction="J7" end="60" vehsPerHour="458.29716937457255" departLane="free" arrivalSpeed="0.0"/>
  <flow id="JF350774" begin="0" fromJunction="J4" toJunction="J3" end="60" vehsPerHour="39.87511952009741" departLane="free" arrivalSpeed="0.0"/>
  <flow id="JF350775" begin="0" fromJunction="J4" toJunction="J5" end="60" vehsPerHour="142.7476215639432" departLane="free" arrivalSpeed="0.0"/>
  <flow id="JF350776" begin="0" fromJunction="J4" toJunction="J6" end="60" vehsPerHour="220.12056652809363" departLane="free" arrivalSpeed="0.0"/>
  <flow id="JF350777" begin="0" fromJunction="J5" toJunction="J0" end="60" vehsPerHour="161.0168614543388" departLane="free" arrivalSpeed="0.0"/>
  <flow id="JF350778" begin="0" fromJunction="J5" toJunction="J4" end="60" vehsPerHour="189.23501963725093" departLane="free" arrivalSpeed="0.0"/>
  <flow id="JF350779" begin="0" fromJunction="J5" toJunction="J6" end="60" vehsPerHour="27.222991160248117" departLane="free" arrivalSpeed="0.0"/>
  <flow id="JF350780" begin="0" fromJunction="J5" toJunction="J7" end="60" vehsPerHour="194.01866271781452" departLane="free" arrivalSpeed="0.0"/>
  <flow id="JF350781" begin="0" fromJunction="J6" toJunction="J3" end="60" vehsPerHour="49.366374466769486" departLane="free" arrivalSpeed="0.0"/>
  <flow id="JF350782" begin="0" fromJunction="J6" toJunction="J5" end="60" vehsPerHour="38.64879279724714" departLane="free" arrivalSpeed="0.0"/>
  <flow id="JF350783" begin="0" fromJunction="J6" toJunction="J7" end="60" vehsPerHour="144.43334864556033" departLane="free" arrivalSpeed="0.0"/>
  <flow id="JF350784" begin="0" fromJunction="J7" toJunction="J0" end="60" vehsPerHour="261.2646528845425" departLane="free" arrivalSpeed="0.0"/>
  <flow id="JF350785" begin="0" fromJunction="J7" toJunction="J4" end="60" vehsPerHour="235.09796501858918" departLane="free" arrivalSpeed="0.0"/>
  <flow id="JF350786" begin="60" fromJunction="J0" toJunction="J4" end="120" vehsPerHour="92.72963394522695" departLane="free" arrivalSpeed="0.0"/>
  <flow id="JF350787" begin="60" fromJunction="J0" toJunction="J6" end="120" vehsPerHour="17.90895433405019" departLane="free" arrivalSpeed="0.0"/>
  <flow id="JF350788" begin="60" fromJunction="J3" toJunction="J0" end="120" vehsPerHour="220.6497863322569" departLane="free" arrivalSpeed="0.0"/>
  <flow id="JF350789" begin="60" fromJunction="J3" toJunction="J5" end="120" vehsPerHour="9.197844666412207" departLane="free" arrivalSpeed="0.0"/>
  <flow id="JF350790" begin="60" fromJunction="J3" toJunction="J7" end="120" vehsPerHour="247.5493840895577" departLane="free" arrivalSpeed="0.0"/>
  <flow id="JF350791" begin="60" fromJunction="J4" toJunction="J3" end="120" vehsPerHour="43.497280989130324" departLane="free" arrivalSpeed="0.0"/>
  <flow id="JF350792" begin="60" fromJunction="J4" toJunction="J5" end="120" vehsPerHour="120.73998549579132" departLane="free" arrivalSpeed="0.0"/>
  <flow id="JF350793" begin="60" fromJunction="J4" toJunction="J6" end="120" vehsPerHour="143.1906324527692" departLane="free" arrivalSpeed="0.0"/>
  <flow id="JF350794" begin="60" fromJunction="J4" toJunction="J7" end="120" vehsPerHour="152.37643158001353" departLane="free" arrivalSpeed="0.0"/>
  <flow id="JF350795" begin="60" fromJunction="J5" toJunction="J0" end="120" vehsPerHour="227.3469153343558" departLane="free" arrivalSpeed="0.0"/>
  <flow id="JF350796" begin="60" fromJunction="J5" toJunction="J3" end="120" vehsPerHour="253.20412499437205" departLane="free" arrivalSpeed="0.0"/>
  <flow id="JF350797" begin="60" fromJunction="J5" toJunction="J7" end="120" vehsPerHour="193.3168701634742" departLane="free" arrivalSpeed="0.0"/>
  <flow id="JF350798" begin="60" fromJunction="J6" toJunction="J0" end="120" vehsPerHour="255.34758836974854" departLane="free" arrivalSpeed="0.0"/>
  <flow id="JF350799" begin="60" fromJunction="J6" toJunction="J3" end="120" vehsPerHour="145.84461199026734" departLane="free" arrivalSpeed="0.0"/>
  <flow id="JF350800" begin="60" fromJunction="J6" toJunction="J5" end="120" vehsPerHour="41.39741116181282" departLane="free" arrivalSpeed="0.0"/>
  <flow id="JF350801" begin="60" fromJunction="J6" toJunction="J7" end="120" vehsPerHour="81.12707270245654" departLane="free" arrivalSpeed="0.0"/>
  <flow id="JF350802" begin="60" fromJunction="J7" toJunction="J3" end="120" vehsPerHour="126.6111433635834" departLane="free" arrivalSpeed="0.0"/>
  <flow id="JF350803" begin="60" fromJunction="J7" toJunction="J4" end="120" vehsPerHour="171.79762614656383" departLane="free" arrivalSpeed="0.0"/>
  <flow id="JF350804" begin="60" fromJunction="J7" toJunction="J5" end="120" vehsPerHour="91.90680295294604" departLane="free" arrivalSpeed="0.0"/>
  <flow id="JF350805" begin="60" fromJunction="J7" toJunction="J6" end="120" vehsPerHour="3.40000710654014" departLane="free" arrivalSpeed="0.0"/>
  <flow id="JF350806" begin="120" fromJunction="J0" toJunction="J3" end="180" vehsPerHour="535.5964495309648" departLane="free" arrivalSpeed="0.0"/>
  <flow id="JF350807" begin="120" fromJunction="J0" toJunction="J4" end="180" vehsPerHour="414.9198225850352" departLane="free" arrivalSpeed="0.0"/>
  <flow id="JF350808" begin="120" fromJunction="J0" toJunction="J5" end="180" vehsPerHour="548.5974008682866" departLane="free" arrivalSpeed="0.0"/>
  <flow id="JF350809" begin="120" fromJunction="J0" toJunction="J6" end="180" vehsPerHour="430.9150191060325" departLane="free" arrivalSpeed="0.0"/>
  <flow id="JF350810" begin="120" fromJunction="J0" toJunction="J7" end="180" vehsPerHour="281.61886091275244" departLane="free" arrivalSpeed="0.0"/>
  <flow id="JF350811" begin="120" fromJunction="J3" toJunction="J0" end="180" vehsPerHour="123.32640627287012" departLane="free" arrivalSpeed="0.0"/>
  <flow id="JF350812" begin="120" fromJunction="J3" toJunction="J5" end="180" vehsPerHour="518.5495474502081" departLane="free" arrivalSpeed="0.0"/>
  <flow id="JF350813" begin="120" fromJunction="J3" toJunction="J6" end="180" vehsPerHour="75.96861200197361" departLane="free" arrivalSpeed="0.0"/>
  <flow id="JF350814" begin="120" fromJunction="J4" toJunction="J3" end="180" vehsPerHour="230.8723990287829" departLane="free" arrivalSpeed="0.0"/>
  <flow id="JF350815" begin="120" fromJunction="J4" toJunction="J5" end="180" vehsPerHour="151.5081091056784" departLane="free" arrivalSpeed="0.0"/>
  <flow id="JF350816" begin="120" fromJunction="J4" toJunction="J7" end="180" vehsPerHour="124.81597268064411" departLane="free" arrivalSpeed="0.0"/>
  <flow id="JF350817" begin="120" fromJunction="J5" toJunction="J0" end="180" vehsPerHour="164.76832249145616" departLane="free" arrivalSpeed="0.0"/>
  <flow id="JF350818" begin="120" fromJunction="J5" toJunction="J3" end="180" vehsPerHour="62.27232026002181" departLane="free" arrivalSpeed="0.0"/>
  <flow id="JF350819" begin="120" fromJunction="J5" toJunction="J6" end="180" vehsPerHour="58.338340555178085" departLane="free" arrivalSpeed="0.0"/>
  <flow id="JF350820" begin="120" fromJunction="J5" toJunction="J7" end="180" vehsPerHour="73.69181751324274" departLane="free" arrivalSpeed="0.0"/>
  <flow id="JF350821" begin="120" fromJunction="J6" toJunction="J0" end="180" vehsPerHour="263.67377127508365" departLane="free" arrivalSpeed="0.0"/>
  <flow id="JF350822" begin="120" fromJunction="J6" toJunction="J4" end="180" vehsPerHour="121.7216843458061" departLane="free" arrivalSpeed="0.0"/>
  <flow id="JF350823" begin="120" fromJunction="J6" toJunction="J5" end="180" vehsPerHour="77.37366024718408" departLane="free" arrivalSpeed="0.0"/>
  <flow id="JF350824" begin="120" fromJunction="J6" toJunction="J7" end="180" vehsPerHour="137.72482624824968" departLane="free" arrivalSpeed="0.0"/>
  <flow id="JF350825" begin="120" fromJunction="J7" toJunction="J0" end="180" vehsPerHour="2.2826722489287308" departLane="free" arrivalSpeed="0.0"/>
  <flow id="JF350826" begin="120" fromJunction="J7" toJunction="J4" end="180" vehsPerHour="77.72239134934362" departLane="free" arrivalSpeed="0.0"/>
  <flow id="JF350827" begin="120" fromJunction="J7" toJunction="J5" end="180" vehsPerHour="217.9561986912785" departLane="free" arrivalSpeed="0.0"/>
  <flow id="JF350828" begin="180" fromJunction="J0" toJunction="J4" end="240" vehsPerHour="164.69105072394038" departLane="free" arrivalSpeed="0.0"/>
  <flow id="JF350829" begin="180" fromJunction="J0" toJunction="J5" end="240" vehsPerHour="200.12489704694673" departLane="free" arrivalSpeed="0.0"/>
  <flow id="JF350830" begin="180" fromJunction="J0" toJunction="J6" end="240" vehsPerHour="1.9751226852912735" departLane="free" arrivalSpeed="0.0"/>
  <flow id="JF350831" begin="180" fromJunction="J0" toJunction="J7" end="240" vehsPerHour="302.5416507259193" departLane="free" arrivalSpeed="0.0"/>
  <flow id="JF350832" begin="180" fromJunction="J3" toJunction="J0" end="240" vehsPerHour="442.4583652502094" departLane="free" arrivalSpeed="0.0"/>
  <flow id="JF350833" begin="180" fromJunction="J3" toJunction="J5" end="240" vehsPerHour="493.0538114879317" departLane="free" arrivalSpeed="0.0"/>
  <flow id="JF350834" begin="180" fromJunction="J3" toJunction="J6" end="240" vehsPerHour="494.66765836790483" departLane="free" arrivalSpeed="0.0"/>
  <flow id="JF350835" begin="180" fromJunction="J3" toJunction="J7" end="240" vehsPerHour="359.84888321312235" departLane="free" arrivalSpeed="0.0"/>
  <flow id="JF350836" begin="180" fromJunction="J4" toJunction="J0" end="240" vehsPerHour="232.95428654288222" departLane="free" arrivalSpeed="0.0"/>
  <flow id="JF350837" begin="180" fromJunction="J4" toJunction="J3" end="240" vehsPerHour="75.20724868196255" departLane="free" arrivalSpeed="0.0"/>
  <flow id="JF350838" begin="180" fromJunction="J4" toJunction="J5" end="240" vehsPerHour="251.59767914357204" departLane="free" arrivalSpeed="0.0"/>
  <flow id="JF350839" begin="180" fromJunction="J4" toJunction="J6" end="240" vehsPerHour="46.58493947903922" departLane="free" arrivalSpeed="0.0"/>
  <flow id="JF350840" begin="180" fromJunction="J4" toJunction="J7" end="240" vehsPerHour="169.3797596143359" departLane="free" arrivalSpeed="0.0"/>
  <flow id="JF350841" begin="180" fromJunction="J5" toJunction="J0" end="240" vehsPerHour="207.32961646794809" departLane="free" arrivalSpeed="0.0"/>
  <flow id="JF350842" begin="180" fromJunction="J5" toJunction="J3" end="240" vehsPerHour="61.82895605726667" departLane="free" arrivalSpeed="0.0"/>
  <flow id="JF350843" begin="180" fromJunction="J5" toJunction="J6" end="240" vehsPerHour="163.0518156695094" departLane="free" arrivalSpeed="0.0"/>
  <flow id="JF350844" begin="180" fromJunction="J5" toJunction="J7" end="240" vehsPerHour="250.73450988966772" departLane="free" arrivalSpeed="0.0"/>
  <flow id="JF350845" begin="180" fromJunction="J6" toJunction="J0" end="240" vehsPerHour="4.583277582239467" departLane="free" arrivalSpeed="0.0"/>
  <flow id="JF350846" begin="180" fromJunction="J6" toJunction="J5" end="240" vehsPerHour="63.8623630617439" departLane="free" arrivalSpeed="0.0"/>
  <flow id="JF350847" begin="180" fromJunction="J7" toJunction="J0" end="240" vehsPerHour="37.58647380755082" departLane="free" arrivalSpeed="0.0"/>
  <flow id="JF350848" begin="180" fromJunction="J7" toJunction="J3" end="240" vehsPerHour="188.0323061091235" departLane="free" arrivalSpeed="0.0"/>
  <flow id="JF350849" begin="180" fromJunction="J7" toJunction="J4" end="240" vehsPerHour="195.86638073213024" departLane="free" arrivalSpeed="0.0"/>
  <flow id="JF350850" begin="180" fromJunction="J7" toJunction="J6" end="240" vehsPerHour="152.64695777393922" departLane="free" arrivalSpeed="0.0"/>
  <flow id="JF350851" begin="240" fromJunction="J0" toJunction="J5" end="300" vehsPerHour="266.9412303919182" departLane="free" arrivalSpeed="0.0"/>
  <flow id="JF350852" begin="240" fromJunction="J0" toJunction="J6" end="300" vehsPerHour="71.86358826529832" departLane="free" arrivalSpeed="0.0"/>
  <flow id="JF350853" begin="240" fromJunction="J0" toJunction="J7" end="300" vehsPerHour="256.6701776995096" departLane="free" arrivalSpeed="0.0"/>
  <flow id="JF350854" begin="240" fromJunction="J3" toJunction="J5" end="300" vehsPerHour="285.7438072959654" departLane="free" arrivalSpeed="0.0"/>
  <flow id="JF350855" begin="240" fromJunction="J4" toJunction="J3" end="300" vehsPerHour="172.71208361887003" departLane="free" arrivalSpeed="0.0"/>
  <flow id="JF350856" begin="240" fromJunction="J4" toJunction="J6" end="300" vehsPerHour="78.89065669427077" departLane="free" arrivalSpeed="0.0"/>
  <flow id="JF350857" begin="240" fromJunction="J4" toJunction="J7" end="300" vehsPerHour="147.53239963006908" departLane="free" arrivalSpeed="0.0"/>
  <flow id="JF350858" begin="240" fromJunction="J5" toJunction="J3" end="300" vehsPerHour="165.20869026640125" departLane="free" arrivalSpeed="0.0"/>
  <flow id="JF350859" begin="240" fromJunction="J5" toJunction="J4" end="300" vehsPerHour="88.39228651452764" departLane="free" arrivalSpeed="0.0"/>
  <flow id="JF350860" begin="240" fromJunction="J5" toJunction="J7" end="300" vehsPerHour="181.55553941309114" departLane="free" arrivalSpeed="0.0"/>
  <flow id="JF350861" begin="240" fromJunction="J6" toJunction="J0" end="300" vehsPerHour="89.49757748887521" departLane="free" arrivalSpeed="0.0"/>
  <flow id="JF350862" begin="240" fromJunction="J6" toJunction="J3" end="300" vehsPerHour="47.20501144724831" departLane="free" arrivalSpeed="0.0"/>
  <flow id="JF350863" begin="240" fromJunction="J6" toJunction="J4" end="300" vehsPerHour="189.35207736197074" departLane="free" arrivalSpeed="0.0"/>
  <flow id="JF350864" begin="240" fromJunction="J6" toJunction="J5" end="300" vehsPerHour="224.41307594953656" departLane="free" arrivalSpeed="0.0"/>
  <flow id="JF350865" begin="240" fromJunction="J6" toJunction="J7" end="300" vehsPerHour="192.66879534754455" departLane="free" arrivalSpeed="0.0"/>
  <flow id="JF350866" begin="240" fromJunction="J7" toJunction="J0" end="300" vehsPerHour="200.03838842899194" departLane="free" arrivalSpeed="0.0"/>
  <flow id="JF350867" begin="240" fromJunction="J7" toJunction="J4" end="300" vehsPerHour="123.44902948678188" departLane="free" arrivalSpeed="0.0"/>
  <flow id="JF350868" begin="240" fromJunction="J7" toJunction="J5" end="300" vehsPerHour="228.2950316342437" departLane="free" arrivalSpeed="0.0"/>
  <flow id="JF350869" begin="300" fromJunction="J0" toJunction="J3" end="360" vehsPerHour="157.02506339214824" departLane="free" arrivalSpeed="0.0"/>
  <flow id="JF350870" begin="300" fromJunction="J0" toJunction="J4" end="360" vehsPerHour="444.0549603625918" departLane="free" arrivalSpeed="0.0"/>
  <flow id="JF350871" begin="300" fromJunction="J0" toJunction="J6" end="360" vehsPerHour="207.71570363831455" departLane="free" arrivalSpeed="0.0"/>
  <flow id="JF350872" begin="300" fromJunction="J0" toJunction="J7" end="360" vehsPerHour="499.48114889155573" departLane="free" arrivalSpeed="0.0"/>
  <flow id="JF350873" begin="300" fromJunction="J3" toJunction="J0" end="360" vehsPerHour="463.8573445417956" departLane="free" arrivalSpeed="0.0"/>
  <flow id="JF350874" begin="300" fromJunction="J3" toJunction="J4" end="360" vehsPerHour="400.3982271481674" departLane="free" arrivalSpeed="0.0"/>
  <flow id="JF350875" begin="300" fromJunction="J3" toJunction="J5" end="360" vehsPerHour="29.28409334824656" departLane="free" arrivalSpeed="0.0"/>
  <flow id="JF350876" begin="300" fromJunction="J3" toJunction="J6" end="360" vehsPerHour="387.52889298432916" departLane="free" arrivalSpeed="0.0"/>
  <flow id="JF350877" begin="300" fromJunction="J4" toJunction="J0" end="360" vehsPerHour="248.65959143058214" departLane="free" arrivalSpeed="0.0"/>
  <flow id="JF350878" begin="300" fromJunction="J4" toJunction="J3" end="360" vehsPerHour="126.76040145814851" departLane="free" arrivalSpeed="0.0"/>
  <flow id="JF350879" begin="300" fromJunction="J4" toJunction="J5" end="360" vehsPerHour="252.13850678051898" departLane="free" arrivalSpeed="0.0"/>
  <flow id="JF350880" begin="300" fromJunction="J4" toJunction="J6" end="360" vehsPerHour="223.59712078106878" departLane="free" arrivalSpeed="0.0"/>
  <flow id="JF350881" begin="300" fromJunction="J4" toJunction="J7" end="360" vehsPerHour="101.38640557509892" departLane="free" arrivalSpeed="0.0"/>
  <flow id="JF350882" begin="300" fromJunction="J5" toJunction="J4" end="360" vehsPerHour="5.459806563822477" departLane="free" arrivalSpeed="0.0"/>
  <flow id="JF350883" begin="300" fromJunction="J5" toJunction="J6" end="360" vehsPerHour="25.943359526563363" departLane="free" arrivalSpeed="0.0"/>
  <flow id="JF350884" begin="300" fromJunction="J5" toJunction="J7" end="360" vehsPerHour="248.19413103034734" departLane="free" arrivalSpeed="0.0"/>
  <flow id="JF350885" begin="300" fromJunction="J6" toJunction="J0" end="360" vehsPerHour="35.435450386705334" departLane="free" arrivalSpeed="0.0"/>
  <flow id="JF350886" begin="300" fromJunction="J6" toJunction="J4" end="360" vehsPerHour="175.20008278018102" departLane="free" arrivalSpeed="0.0"/>
  <flow id="JF350887" begin="300" fromJunction="J6" toJunction="J5" end="360" vehsPerHour="123.99985391513442" departLane="free" arrivalSpeed="0.0"/>
  <flow id="JF350888" begin="300" fromJunction="J6" toJunction="J7" end="360" vehsPerHour="47.97268313958381" departLane="free" arrivalSpeed="0.0"/>
  <flow id="JF350889" begin="300" fromJunction="J7" toJunction="J0" end="360" vehsPerHour="141.15883598904426" departLane="free" arrivalSpeed="0.0"/>
  <flow id="JF350890" begin="300" fromJunction="J7" toJunction="J3" end="360" vehsPerHour="201.09915332009035" departLane="free" arrivalSpeed="0.0"/>
  <flow id="JF350891" begin="300" fromJunction="J7" toJunction="J5" end="360" vehsPerHour="98.3788648366346" departLane="free" arrivalSpeed="0.0"/>
  <flow id="JF350892" begin="300" fromJunction="J7" toJunction="J6" end="360" vehsPerHour="72.30322663769435" departLane="free" arrivalSpeed="0.0"/>
  <flow id="JF350893" begin="360" fromJunction="J0" toJunction="J5" end="420" vehsPerHour="459.0421358088378" departLane="free" arrivalSpeed="0.0"/>
  <flow id="JF350894" begin="360" fromJunction="J3" toJunction="J0" end="420" vehsPerHour="149.5212932416071" departLane="free" arrivalSpeed="0.0"/>
  <flow id="JF350895" begin="360" fromJunction="J3" toJunction="J4" end="420" vehsPerHour="99.00930402286585" departLane="free" arrivalSpeed="0.0"/>
  <flow id="JF350896" begin="360" fromJunction="J3" toJunction="J5" end="420" vehsPerHour="263.0840244067579" departLane="free" arrivalSpeed="0.0"/>
  <flow id="JF350897" begin="360" fromJunction="J3" toJunction="J6" end="420" vehsPerHour="221.03870150907795" departLane="free" arrivalSpeed="0.0"/>
  <flow id="JF350898" begin="360" fromJunction="J3" toJunction="J7" end="420" vehsPerHour="537.6833078126824" departLane="free" arrivalSpeed="0.0"/>
  <flow id="JF350899" begin="360" fromJunction="J4" toJunction="J0" end="420" vehsPerHour="218.30793378481476" departLane="free" arrivalSpeed="0.0"/>
  <flow id="JF350900" begin="360" fromJunction="J4" toJunction="J3" end="420" vehsPerHour="64.96853195204783" departLane="free" arrivalSpeed="0.0"/>
  <flow id="JF350901" begin="360" fromJunction="J4" toJunction="J5" end="420" vehsPerHour="139.78694112276187" departLane="free" arrivalSpeed="0.0"/>
  <flow id="JF350902" begin="360" fromJunction="J4" toJunction="J7" end="420" vehsPerHour="270.87628845907426" departLane="free" arrivalSpeed="0.0"/>
  <flow id="JF350903" begin="360" fromJunction="J5" toJunction="J0" end="420" vehsPerHour="204.678187114386" departLane="free" arrivalSpeed="0.0"/>
  <flow id="JF350904" begin="360" fromJunction="J5" toJunction="J3" end="420" vehsPerHour="158.64331665466213" departLane="free" arrivalSpeed="0.0"/>
  <flow id="JF350905" begin="360" fromJunction="J5" toJunction="J6" end="420" vehsPerHour="216.66752938579063" departLane="free" arrivalSpeed="0.0"/>
  <flow id="JF350906" begin="360" fromJunction="J5" toJunction="J7" end="420" vehsPerHour="186.73955886142255" departLane="free" arrivalSpeed="0.0"/>
  <flow id="JF350907" begin="360" fromJunction="J6" toJunction="J0" end="420" vehsPerHour="249.7090010122413" departLane="free" arrivalSpeed="0.0"/>
  <flow id="JF350908" begin="360" fromJunction="J6" toJunction="J4" end="420" vehsPerHour="122.93294281736026" departLane="free" arrivalSpeed="0.0"/>
  <flow id="JF350909" begin="360" fromJunction="J6" toJunction="J5" end="420" vehsPerHour="150.63085813659933" departLane="free" arrivalSpeed="0.0"/>
  <flow id="JF350910" begin="360" fromJunction="J7" toJunction="J0" end="420" vehsPerHour="92.44339395035526" departLane="free" arrivalSpeed="0.0"/>
  <flow id="JF350911" begin="360" fromJunction="J7" toJunction="J3" end="420" vehsPerHour="7.05326803689679" departLane="free" arrivalSpeed="0.0"/>
  <flow id="JF350912" begin="360" fromJunction="J7" toJunction="J4" end="420" vehsPerHour="38.056780708289864" departLane="free" arrivalSpeed="0.0"/>
  <flow id="JF350913" begin="360" fromJunction="J7" toJunction="J5" end="420" vehsPerHour="157.03643560132724" departLane="free" arrivalSpeed="0.0"/>
  <flow id="JF350914" begin="360" fromJunction="J7" toJunction="J6" end="420" vehsPerHour="238.34594551597291" departLane="free" arrivalSpeed="0.0"/>
  <flow id="JF350915" begin="420" fromJunction="J0" toJunction="J3" end="480" vehsPerHour="327.86890898186033" departLane="free" arrivalSpeed="0.0"/>
  <flow id="JF350916" begin="420" fromJunction="J0" toJunction="J4" end="480" vehsPerHour="463.702447127762" departLane="free" arrivalSpeed="0.0"/>
  <flow id="JF350917" begin="420" fromJunction="J0" toJunction="J7" end="480" vehsPerHour="72.1038878380875" departLane="free" arrivalSpeed="0.0"/>
  <flow id="JF350918" begin="420" fromJunction="J3" toJunction="J4" end="480" vehsPerHour="252.66602020890082" departLane="free" arrivalSpeed="0.0"/>
  <flow id="JF350919" begin="420" fromJunction="J3" toJunction="J5" end="480" vehsPerHour="351.6520965637649" departLane="free" arrivalSpeed="0.0"/>
  <flow id="JF350920" begin="420" fromJunction="J3" toJunction="J6" end="480" vehsPerHour="322.09449076523" departLane="free" arrivalSpeed="0.0"/>
  <flow id="JF350921" begin="420" fromJunction="J3" toJunction="J7" end="480" vehsPerHour="497.0383190464267" departLane="free" arrivalSpeed="0.0"/>
  <flow id="JF350922" begin="420" fromJunction="J4" toJunction="J3" end="480" vehsPerHour="49.940489424030076" departLane="free" arrivalSpeed="0.0"/>
  <flow id="JF350923" begin="420" fromJunction="J4" toJunction="J5" end="480" vehsPerHour="223.37262160675772" departLane="free" arrivalSpeed="0.0"/>
  <flow id="JF350924" begin="420" fromJunction="J4" toJunction="J6" end="480" vehsPerHour="265.1609386821573" departLane="free" arrivalSpeed="0.0"/>
  <flow id="JF350925" begin="420" fromJunction="J5" toJunction="J0" end="480" vehsPerHour="210.1401774637556" departLane="free" arrivalSpeed="0.0"/>
  <flow id="JF350926" begin="420" fromJunction="J5" toJunction="J4" end="480" vehsPerHour="136.888336559206" departLane="free" arrivalSpeed="0.0"/>
  <flow id="JF350927" begin="420" fromJunction="J6" toJunction="J0" end="480" vehsPerHour="4.54335719561502" departLane="free" arrivalSpeed="0.0"/>
  <flow id="JF350928" begin="420" fromJunction="J6" toJunction="J3" end="480" vehsPerHour="146.1822125274121" departLane="free" arrivalSpeed="0.0"/>
  <flow id="JF350929" begin="420" fromJunction="J6" toJunction="J4" end="480" vehsPerHour="56.800918789740315" departLane="free" arrivalSpeed="0.0"/>
  <flow id="JF350930" begin="420" fromJunction="J6" toJunction="J5" end="480" vehsPerHour="183.752578573552" departLane="free" arrivalSpeed="0.0"/>
  <flow id="JF350931" begin="420" fromJunction="J6" toJunction="J7" end="480" vehsPerHour="239.5131625445975" departLane="free" arrivalSpeed="0.0"/>
  <flow id="JF350932" begin="420" fromJunction="J7" toJunction="J3" end="480" vehsPerHour="258.0312286023422" departLane="free" arrivalSpeed="0.0"/>
  <flow id="JF350933" begin="420" fromJunction="J7" toJunction="J4" end="480" vehsPerHour="45.025760638343954" departLane="free" arrivalSpeed="0.0"/>
  <flow id="JF350934" begin="420" fromJunction="J7" toJunction="J6" end="480" vehsPerHour="132.73489031628054" departLane="free" arrivalSpeed="0.0"/>
  <flow id="JF350935" begin="480" fromJunction="J0" toJunction="J5" end="540" vehsPerHour="266.62617243221564" departLane="free" arrivalSpeed="0.0"/>
  <flow id="JF350936" begin="480" fromJunction="J0" toJunction="J6" end="540" vehsPerHour="212.37842993991165" departLane="free" arrivalSpeed="0.0"/>
  <flow id="JF350937" begin="480" fromJunction="J3" toJunction="J0" end="540" vehsPerHour="373.86982915610406" departLane="free" arrivalSpeed="0.0"/>
  <flow id="JF350938" begin="480" fromJunction="J3" toJunction="J4" end="540" vehsPerHour="256.64866856227064" departLane="free" arrivalSpeed="0.0"/>
  <flow id="JF350939" begin="480" fromJunction="J3" toJunction="J6" end="540" vehsPerHour="356.120332711323" departLane="free" arrivalSpeed="0.0"/>
  <flow id="JF350940" begin="480" fromJunction="J3" toJunction="J7" end="540" vehsPerHour="492.5822252565482" departLane="free" arrivalSpeed="0.0"/>
  <flow id="JF350941" begin="480" fromJunction="J4" toJunction="J0" end="540" vehsPerHour="165.22758028938077" departLane="free" arrivalSpeed="0.0"/>
  <flow id="JF350942" begin="480" fromJunction="J4" toJunction="J5" end="540" vehsPerHour="52.40400117422396" departLane="free" arrivalSpeed="0.0"/>
  <flow id="JF350943" begin="480" fromJunction="J4" toJunction="J7" end="540" vehsPerHour="59.212730042307676" departLane="free" arrivalSpeed="0.0"/>
  <flow id="JF350944" begin="480" fromJunction="J5" toJunction="J0" end="540" vehsPerHour="39.62628277669886" departLane="free" arrivalSpeed="0.0"/>
  <flow id="JF350945" begin="480" fromJunction="J5" toJunction="J3" end="540" vehsPerHour="68.81575637557373" departLane="free" arrivalSpeed="0.0"/>
  <flow id="JF350946" begin="480" fromJunction="J5" toJunction="J6" end="540" vehsPerHour="35.21073843745719" departLane="free" arrivalSpeed="0.0"/>
  <flow id="JF350947" begin="480" fromJunction="J5" toJunction="J7" end="540" vehsPerHour="142.68767970633635" departLane="free" arrivalSpeed="0.0"/>
  <flow id="JF350948" begin="480" fromJunction="J6" toJunction="J0" end="540" vehsPerHour="213.15862682016783" departLane="free" arrivalSpeed="0.0"/>
  <flow id="JF350949" begin="480" fromJunction="J6" toJunction="J3" end="540" vehsPerHour="171.05900259625585" departLane="free" arrivalSpeed="0.0"/>
  <flow id="JF350950" begin="480" fromJunction="J6" toJunction="J4" end="540" vehsPerHour="242.56634773267106" departLane="free" arrivalSpeed="0.0"/>
  <flow id="JF350951" begin="480" fromJunction="J6" toJunction="J5" end="540" vehsPerHour="225.05416296596698" departLane="free" arrivalSpeed="0.0"/>
  <flow id="JF350952" begin="480" fromJunction="J7" toJunction="J0" end="540" vehsPerHour="118.03570473951686" departLane="free" arrivalSpeed="0.0"/>
  <flow id="JF350953" begin="480" fromJunction="J7" toJunction="J3" end="540" vehsPerHour="69.90677271698218" departLane="free" arrivalSpeed="0.0"/>
  <flow id="JF350954" begin="480" fromJunction="J7" toJunction="J4" end="540" vehsPerHour="223.09102027115011" departLane="free" arrivalSpeed="0.0"/>
  <flow id="JF350955" begin="480" fromJunction="J7" toJunction="J6" end="540" vehsPerHour="122.5550620572122" departLane="free" arrivalSpeed="0.0"/>
  <flow id="JF350956" begin="540" fromJunction="J0" toJunction="J3" end="600" vehsPerHour="339.5608823626894" departLane="free" arrivalSpeed="0.0"/>
  <flow id="JF350957" begin="540" fromJunction="J0" toJunction="J5" end="600" vehsPerHour="48.42915934283547" departLane="free" arrivalSpeed="0.0"/>
  <flow id="JF350958" begin="540" fromJunction="J0" toJunction="J6" end="600" vehsPerHour="542.0381883392191" departLane="free" arrivalSpeed="0.0"/>
  <flow id="JF350959" begin="540" fromJunction="J3" toJunction="J0" end="600" vehsPerHour="51.505785177869946" departLane="free" arrivalSpeed="0.0"/>
  <flow id="JF350960" begin="540" fromJunction="J3" toJunction="J5" end="600" vehsPerHour="260.53085270009" departLane="free" arrivalSpeed="0.0"/>
  <flow id="JF350961" begin="540" fromJunction="J3" toJunction="J6" end="600" vehsPerHour="371.1214564009317" departLane="free" arrivalSpeed="0.0"/>
  <flow id="JF350962" begin="540" fromJunction="J3" toJunction="J7" end="600" vehsPerHour="199.32973255671544" departLane="free" arrivalSpeed="0.0"/>
  <flow id="JF350963" begin="540" fromJunction="J4" toJunction="J0" end="600" vehsPerHour="34.79790608596326" departLane="free" arrivalSpeed="0.0"/>
  <flow id="JF350964" begin="540" fromJunction="J4" toJunction="J3" end="600" vehsPerHour="85.7858377651192" departLane="free" arrivalSpeed="0.0"/>
  <flow id="JF350965" begin="540" fromJunction="J4" toJunction="J5" end="600" vehsPerHour="209.69727651866296" departLane="free" arrivalSpeed="0.0"/>