<?xml version="1.0" encoding="UTF-8"?>
<routes xmlns:xsi="http://www.w3.org/2001/XMLSchema-instance" xsi:noNamespaceSchemaLocation="http://sumo.dlr.de/xsd/routes_file.xsd">
  <flow id="JF347322" begin="0" fromJunction="J0" toJunction="J4" end="60" vehsPerHour="242.27197320836194" departLane="free" arrivalSpeed="0.0"/>
  <flow id="JF347323" begin="0" fromJunction="J0" toJunction="J6" end="60" vehsPerHour="230.81165308236544" departLane="free" arrivalSpeed="0.0"/>
  <flow id="JF347324" begin="0" fromJunction="J3" toJunction="J0" end="60" vehsPerHour="99.25705877552491" departLane="free" arrivalSpeed="0.0"/>
  <flow id="JF347325" begin="0" fromJunction="J3" toJunction="J4" end="60" vehsPerHour="119.77088491346932" departLane="free" arrivalSpeed="0.0"/>
  <flow id="JF347326" begin="0" fromJunction="J3" toJunction="J5" end="60" vehsPerHour="44.64819907985391" departLane="free" arrivalSpeed="0.0"/>
  <flow id="JF347327" begin="0" fromJunction="J3" toJunction="J6" end="60" vehsPerHour="18.38148870398959" departLane="free" arrivalSpeed="0.0"/>
  <flow id="JF347328" begin="0" fromJunction="J4" toJunction="J0" end="60" vehsPerHour="244.9433582297104" departLane="free" arrivalSpeed="0.0"/>
  <flow id="JF347329" begin="0" fromJunction="J4" toJunction="J3" end="60" vehsPerHour="75.53389672579155" departLane="free" arrivalSpeed="0.0"/>
  <flow id="JF347330" begin="0" fromJunction="J4" toJunction="J5" end="60" vehsPerHour="93.24413510032907" departLane="free" arrivalSpeed="0.0"/>
  <flow id="JF347331" begin="0" fromJunction="J4" toJunction="J6" end="60" vehsPerHour="133.9738260029495" departLane="free" arrivalSpeed="0.0"/>
  <flow id="JF347332" begin="0" fromJunction="J4" toJunction="J7" end="60" vehsPerHour="247.91111468670954" departLane="free" arrivalSpeed="0.0"/>
  <flow id="JF347333" begin="0" fromJunction="J5" toJunction="J3" end="60" vehsPerHour="42.649886026081035" departLane="free" arrivalSpeed="0.0"/>
  <flow id="JF347334" begin="0" fromJunction="J5" toJunction="J4" end="60" vehsPerHour="50.336860778851275" departLane="free" arrivalSpeed="0.0"/>
  <flow id="JF347335" begin="0" fromJunction="J5" toJunction="J6" end="60" vehsPerHour="61.5834775373501" departLane="free" arrivalSpeed="0.0"/>
  <flow id="JF347336" begin="0" fromJunction="J5" toJunction="J7" end="60" vehsPerHour="41.40941116918182" departLane="free" arrivalSpeed="0.0"/>
  <flow id="JF347337" begin="0" fromJunction="J6" toJunction="J4" end="60" vehsPerHour="127.36708237522159" departLane="free" arrivalSpeed="0.0"/>
  <flow id="JF347338" begin="0" fromJunction="J6" toJunction="J5" end="60" vehsPerHour="78.422876372822" departLane="free" arrivalSpeed="0.0"/>
  <flow id="JF347339" begin="0" fromJunction="J6" toJunction="J7" end="60" vehsPerHour="241.55901273085374" departLane="free" arrivalSpeed="0.0"/>
  <flow id="JF347340" begin="0" fromJunction="J7" toJunction="J0" end="60" vehsPerHour="15.071812418456481" departLane="free" arrivalSpeed="0.0"/>
  <flow id="JF347341" begin="0" fromJunction="J7" toJunction="J3" end="60" vehsPerHour="252.1770402362879" departLane="free" arrivalSpeed="0.0"/>
  <flow id="JF347342" begin="0" fromJunction="J7" toJunction="J4" end="60" vehsPerHour="135.30028884296178" departLane="free" arrivalSpeed="0.0"/>
  <flow id="JF347343" begin="60" fromJunction="J0" toJunction="J3" end="120" vehsPerHour="305.000220292553" departLane="free" arrivalSpeed="0.0"/>
  <flow id="JF347344" begin="60" fromJunction="J0" toJunction="J5" end="120" vehsPerHour="42.40753867699412" departLane="free" arrivalSpeed="0.0"/>
  <flow id="JF347345" begin="60" fromJunction="J0" toJunction="J6" end="120" vehsPerHour="252.33575254805663" departLane="free" arrivalSpeed="0.0"/>
  <flow id="JF347346" begin="60" fromJunction="J0" toJunction="J7" end="120" vehsPerHour="393.27767978036064" departLane="free" arrivalSpeed="0.0"/>
  <flow id="JF347347" begin="60" fromJunction="J3" toJunction="J0" end="120" vehsPerHour="301.03607689918" departLane="free" arrivalSpeed="0.0"/>
  <flow id="JF347348" begin="60" fromJunction="J3" toJunction="J4" end="120" vehsPerHour="265.29003851431685" departLane="free" arrivalSpeed="0.0"/>
  <flow id="JF347349" begin="60" fromJunction="J3" toJunction="J6" end="120" vehsPerHour="65.86777852456487" departLane="free" arrivalSpeed="0.0"/>
  <flow id="JF347350" begin="60" fromJunction="J3" toJunction="J7" end="120" vehsPerHour="26.499206585669807" departLane="free" arrivalSpeed="0.0"/>
  <flow id="JF347351" begin="60" fromJunction="J4" toJunction="J3" end="120" vehsPerHour="216.33409347565131" departLane="free" arrivalSpeed="0.0"/>
  <flow id="JF347352" begin="60" fromJunction="J4" toJunction="J5" end="120" vehsPerHour="271.0313928795867" departLane="free" arrivalSpeed="0.0"/>
  <flow id="JF347353" begin="60" fromJunction="J4" toJunction="J7" end="120" vehsPerHour="50.62027553930704" departLane="free" arrivalSpeed="0.0"/>
  <flow id="JF347354" begin="60" fromJunction="J5" toJunction="J0" end="120" vehsPerHour="94.18481965295427" departLane="free" arrivalSpeed="0.0"/>
  <flow id="JF347355" begin="60" fromJunction="J5" toJunction="J3" end="120" vehsPerHour="174.2074765955619" departLane="free" arrivalSpeed="0.0"/>
  <flow id="JF347356" begin="60" fromJunction="J5" toJunction="J6" end="120" vehsPerHour="39.57064028531872" departLane="free" arrivalSpeed="0.0"/>
  <flow id="JF347357" begin="60" fromJunction="J5" toJunction="J7" end="120" vehsPerHour="87.82610720686002" departLane="free" arrivalSpeed="0.0"/>
  <flow id="JF347358" begin="60" fromJunction="J6" toJunction="J0" end="120" vehsPerHour="87.80188625382301" departLane="free" arrivalSpeed="0.0"/>
  <flow id="JF347359" begin="60" fromJunction="J6" toJunction="J4" end="120" vehsPerHour="178.9954175451964" departLane="free" arrivalSpeed="0.0"/>
  <flow id="JF347360" begin="60" fromJunction="J7" toJunction="J0" end="120" vehsPerHour="29.967265814342646" departLane="free" arrivalSpeed="0.0"/>
  <flow id="JF347361" begin="60" fromJunction="J7" toJunction="J3" end="120" vehsPerHour="11.49310788722858" departLane="free" arrivalSpeed="0.0"/>
  <flow id="JF347362" begin="60" fromJunction="J7" toJunction="J4" end="120" vehsPerHour="226.60692000705464" departLane="free" arrivalSpeed="0.0"/>
  <flow id="JF347363" begin="60" fromJunction="J7" toJunction="J5" end="120" vehsPerHour="12.986014742402457" departLane="free" arrivalSpeed="0.0"/>
  <flow id="JF347364" begin="60" fromJunction="J7" toJunction="J6" end="120" vehsPerHour="208.9979470393568" departLane="free" arrivalSpeed="0.0"/>
  <flow id="JF347365" begin="120" fromJunction="J0" toJunction="J4" end="180" vehsPerHour="257.9676391387437" departLane="free" arrivalSpeed="0.0"/>
  <flow id="JF347366" begin="120" fromJunction="J0" toJunction="J5" end="180" vehsPerHour="536.3312986450829" departLane="free" arrivalSpeed="0.0"/>
  <flow id="JF347367" begin="120" fromJunction="J3" toJunction="J0" end="180" vehsPerHour="411.2090407899304" departLane="free" arrivalSpeed="0.0"/>
  <flow id="JF347368" begin="120" fromJunction="J3" toJunction="J4" end="180" vehsPerHour="358.8656388187829" departLane="free" arrivalSpeed="0.0"/>
  <flow id="JF347369" begin="120" fromJunction="J3" toJunction="J6" end="180" vehsPerHour="232.22906834652144" departLane="free" arrivalSpeed="0.0"/>
  <flow id="JF347370" begin="120" fromJunction="J3" toJunction="J7" end="180" vehsPerHour="543.3970441249581" departLane="free" arrivalSpeed="0.0"/>
  <flow id="JF347371" begin="120" fromJunction="J4" toJunction="J5" end="180" vehsPerHour="149.2562923059608" departLane="free" arrivalSpeed="0.0"/>
  <flow id="JF347372" begin="120" fromJunction="J4" toJunction="J7" end="180" vehsPerHour="94.01403294717684" departLane="free" arrivalSpeed="0.0"/>
  <flow id="JF347373" begin="120" fromJunction="J5" toJunction="J0" end="180" vehsPerHour="122.45900277860027" departLane="free" arrivalSpeed="0.0"/>
  <flow id="JF347374" begin="120" fromJunction="J5" toJunction="J3" end="180" vehsPerHour="54.18630756502105" departLane="free" arrivalSpeed="0.0"/>
  <flow id="JF347375" begin="120" fromJunction="J5" toJunction="J4" end="180" vehsPerHour="236.61896808627336" departLane="free" arrivalSpeed="0.0"/>
  <flow id="JF347376" begin="120" fromJunction="J5" toJunction="J7" end="180" vehsPerHour="52.68994717577205" departLane="free" arrivalSpeed="0.0"/>
  <flow id="JF347377" begin="120" fromJunction="J6" toJunction="J4" end="180" vehsPerHour="30.429485490881415" departLane="free" arrivalSpeed="0.0"/>
  <flow id="JF347378" begin="120" fromJunction="J6" toJunction="J5" end="180" vehsPerHour="193.02580156692628" departLane="free" arrivalSpeed="0.0"/>
  <flow id="JF347379" begin="120" fromJunction="J6" toJunction="J7" end="180" vehsPerHour="238.14072324459292" departLane="free" arrivalSpeed="0.0"/>
  <flow id="JF347380" begin="120" fromJunction="J7" toJunction="J3" end="180" vehsPerHour="201.76896044586792" departLane="free" arrivalSpeed="0.0"/>
  <flow id="JF347381" begin="120" fromJunction="J7" toJunction="J4" end="180" vehsPerHour="152.14918491331406" departLane="free" arrivalSpeed="0.0"/>
  <flow id="JF347382" begin="120" fromJunction="J7" toJunction="J5" end="180" vehsPerHour="219.67948486701192" departLane="free" arrivalSpeed="0.0"/>
  <flow id="JF347383" begin="120" fromJunction="J7" toJunction="J6" end="180" vehsPerHour="169.4902089447136" departLane="free" arrivalSpeed="0.0"/>
  <flow id="JF347384" begin="180" fromJunction="J0" toJunction="J3" end="240" vehsPerHour="202.5013351002925" departLane="free" arrivalSpeed="0.0"/>
  <flow id="JF347385" begin="180" fromJunction="J0" toJunction="J4" end="240" vehsPerHour="547.1895444834396" departLane="free" arrivalSpeed="0.0"/>
  <flow id="JF347386" begin="180" fromJunction="J0" toJunction="J5" end="240" vehsPerHour="261.2864555245895" departLane="free" arrivalSpeed="0.0"/>
  <flow id="JF347387" begin="180" fromJunction="J0" toJunction="J6" end="240" vehsPerHour="466.7613780428598" departLane="free" arrivalSpeed="0.0"/>
  <flow id="JF347388" begin="180" fromJunction="J0" toJunction="J7" end="240" vehsPerHour="165.73789046541867" departLane="free" arrivalSpeed="0.0"/>
  <flow id="JF347389" begin="180" fromJunction="J3" toJunction="J0" end="240" vehsPerHour="335.6165786490884" departLane="free" arrivalSpeed="0.0"/>
  <flow id="JF347390" begin="180" fromJunction="J3" toJunction="J4" end="240" vehsPerHour="402.3443118513181" departLane="free" arrivalSpeed="0.0"/>
  <flow id="JF347391" begin="180" fromJunction="J4" toJunction="J0" end="240" vehsPerHour="68.96661870386984" departLane="free" arrivalSpeed="0.0"/>
  <flow id="JF347392" begin="180" fromJunction="J4" toJunction="J3" end="240" vehsPerHour="85.21599856079185" departLane="free" arrivalSpeed="0.0"/>
  <flow id="JF347393" begin="180" fromJunction="J4" toJunction="J5" end="240" vehsPerHour="73.22802709866205" departLane="free" arrivalSpeed="0.0"/>
  <flow id="JF347394" begin="180" fromJunction="J4" toJunction="J6" end="240" vehsPerHour="48.063508345291105" departLane="free" arrivalSpeed="0.0"/>
  <flow id="JF347395" begin="180" fromJunction="J4" toJunction="J7" end="240" vehsPerHour="73.91218035691301" departLane="free" arrivalSpeed="0.0"/>
  <flow id="JF347396" begin="180" fromJunction="J5" toJunction="J3" end="240" vehsPerHour="226.25135130769692" departLane="free" arrivalSpeed="0.0"/>
  <flow id="JF347397" begin="180" fromJunction="J5" toJunction="J7" end="240" vehsPerHour="40.46582724339187" departLane="free" arrivalSpeed="0.0"/>
  <flow id="JF347398" begin="180" fromJunction="J6" toJunction="J0" end="240" vehsPerHour="24.348350506807467" departLane="free" arrivalSpeed="0.0"/>
  <flow id="JF347399" begin="180" fromJunction="J6" toJunction="J5" end="240" vehsPerHour="159.72042794423143" departLane="free" arrivalSpeed="0.0"/>
  <flow id="JF347400" begin="180" fromJunction="J7" toJunction="J4" end="240" vehsPerHour="42.446999683404854" departLane="free" arrivalSpeed="0.0"/>
  <flow id="JF347401" begin="180" fromJunction="J7" toJunction="J6" end="240" vehsPerHour="28.49859069458547" departLane="free" arrivalSpeed="0.0"/>
  <flow id="JF347402" begin="240" fromJunction="J0" toJunction="J4" end="300" vehsPerHour="467.3352750070122" departLane="free" arrivalSpeed="0.0"/>
  <flow id="JF347403" begin="240" fromJunction="J0" toJunction="J5" end="300" vehsPerHour="234.70350911557506" departLane="free" arrivalSpeed="0.0"/>
  <flow id="JF347404" begin="240" fromJunction="J0" toJunction="J6" end="300" vehsPerHour="97.28345842012084" departLane="free" arrivalSpeed="0.0"/>
  <flow id="JF347405" begin="240" fromJunction="J0" toJunction="J7" end="300" vehsPerHour="279.0618191686295" departLane="free" arrivalSpeed="0.0"/>
  <flow id="JF347406" begin="240" fromJunction="J3" toJunction="J0" end="300" vehsPerHour="483.83947018821306" departLane="free" arrivalSpeed="0.0"/>
  <flow id="JF347407" begin="240" fromJunction="J3" toJunction="J4" end="300" vehsPerHour="211.90058170252632" departLane="free" arrivalSpeed="0.0"/>
  <flow id="JF347408" begin="240" fromJunction="J3" toJunction="J6" end="300" vehsPerHour="377.1436584423153" departLane="free" arrivalSpeed="0.0"/>
  <flow id="JF347409" begin="240" fromJunction="J3" toJunction="J7" end="300" vehsPerHour="444.6649661967476" departLane="free" arrivalSpeed="0.0"/>
  <flow id="JF347410" begin="240" fromJunction="J4" toJunction="J3" end="300" vehsPerHour="123.47045769225224" departLane="free" arrivalSpeed="0.0"/>
  <flow id="JF347411" begin="240" fromJunction="J4" toJunction="J5" end="300" vehsPerHour="97.21226291485688" departLane="free" arrivalSpeed="0.0"/>
  <flow id="JF347412" begin="240" fromJunction="J4" toJunction="J6" end="300" vehsPerHour="129.48632866031136" departLane="free" arrivalSpeed="0.0"/>
  <flow id="JF347413" begin="240" fromJunction="J4" toJunction="J7" end="300" vehsPerHour="129.71814285351488" departLane="free" arrivalSpeed="0.0"/>
  <flow id="JF347414" begin="240" fromJunction="J5" toJunction="J0" end="300" vehsPerHour="22.814251023749797" departLane="free" arrivalSpeed="0.0"/>
  <flow id="JF347415" begin="240" fromJunction="J5" toJunction="J4" end="300" vehsPerHour="12.716934372548039" departLane="free" arrivalSpeed="0.0"/>
  <flow id="JF347416" begin="240" fromJunction="J5" toJunction="J6" end="300" vehsPerHour="256.11549861912084" departLane="free" arrivalSpeed="0.0"/>
  <flow id="JF347417" begin="240" fromJunction="J5" toJunction="J7" end="300" vehsPerHour="15.886378865630629" departLane="free" arrivalSpeed="0.0"/>
  <flow id="JF347418" begin="240" fromJunction="J6" toJunction="J0" end="300" vehsPerHour="76.07728389230577" departLane="free" arrivalSpeed="0.0"/>
  <flow id="JF347419" begin="240" fromJunction="J6" toJunction="J3" end="300" vehsPerHour="50.91868053704939" departLane="free" arrivalSpeed="0.0"/>
  <flow id="JF347420" begin="240" fromJunction="J6" toJunction="J4" end="300" vehsPerHour="66.15002609324117" departLane="free" arrivalSpeed="0.0"/>
  <flow id="JF347421" begin="240" fromJunction="J7" toJunction="J0" end="300" vehsPerHour="168.54242896122906" departLane="free" arrivalSpeed="0.0"/>
  <flow id="JF347422" begin="240" fromJunction="J7" toJunction="J3" end="300" vehsPerHour="25.462395240377838" departLane="free" arrivalSpeed="0.0"/>
  <flow id="JF347423" begin="240" fromJunction="J7" toJunction="J4" end="300" vehsPerHour="48.97710369024722" departLane="free" arrivalSpeed="0.0"/>
  <flow id="JF347424" begin="240" fromJunction="J7" toJunction="J5" end="300" vehsPerHour="28.92448118321399" departLane="free" arrivalSpeed="0.0"/>
  <flow id="JF347425" begin="240" fromJunction="J7" toJunction="J6" end="300" vehsPerHour="80.63013870595698" departLane="free" arrivalSpeed="0.0"/>
  <flow id="JF347426" begin="300" fromJunction="J0" toJunction="J4" end="360" vehsPerHour="419.0342891175776" departLane="free" arrivalSpeed="0.0"/>
  <flow id="JF347427" begin="300" fromJunction="J0" toJunction="J6" end="360" vehsPerHour="355.35359173487967" departLane="free" arrivalSpeed="0.0"/>
  <flow id="JF347428" begin="300" fromJunction="J3" toJunction="J0" end="360" vehsPerHour="179.88632044334875" departLane="free" arrivalSpeed="0.0"/>
  <flow id="JF347429" begin="300" fromJunction="J3" toJunction="J5" end="360" vehsPerHour="480.95163998107705" departLane="free" arrivalSpeed="0.0"/>
  <flow id="JF347430" begin="300" fromJunction="J4" toJunction="J0" end="360" vehsPerHour="36.5064317736995" departLane="free" arrivalSpeed="0.0"/>
  <flow id="JF347431" begin="300" fromJunction="J4" toJunction="J5" end="360" vehsPerHour="16.408967546419024" departLane="free" arrivalSpeed="0.0"/>
  <flow id="JF347432" begin="300" fromJunction="J4" toJunction="J7" end="360" vehsPerHour="269.29450107041976" departLane="free" arrivalSpeed="0.0"/>
  <flow id="JF347433" begin="300" fromJunction="J5" toJunction="J0" end="360" vehsPerHour="111.0202165825474" departLane="free" arrivalSpeed="0.0"/>
  <flow id="JF347434" begin="300" fromJunction="J5" toJunction="J3" end="360" vehsPerHour="12.590608534562989" departLane="free" arrivalSpeed="0.0"/>
  <flow id="JF347435" begin="300" fromJunction="J5" toJunction="J7" end="360" vehsPerHour="59.93263350597614" departLane="free" arrivalSpeed="0.0"/>
  <flow id="JF347436" begin="300" fromJunction="J6" toJunction="J0" end="360" vehsPerHour="32.92774549095118" departLane="free" arrivalSpeed="0.0"/>
  <flow id="JF347437" begin="300" fromJunction="J6" toJunction="J3" end="360" vehsPerHour="185.84019981212657" departLane="free" arrivalSpeed="0.0"/>
  <flow id="JF347438" begin="300" fromJunction="J6" toJunction="J4" end="360" vehsPerHour="120.75981945246292" departLane="free" arrivalSpeed="0.0"/>
  <flow id="JF347439" begin="300" fromJunction="J6" toJunction="J5" end="360" vehsPerHour="202.66947224895344" departLane="free" arrivalSpeed="0.0"/>
  <flow id="JF347440" begin="300" fromJunction="J6" toJunction="J7" end="360" vehsPerHour="90.94784921858286" departLane="free" arrivalSpeed="0.0"/>
  <flow id="JF347441" begin="300" fromJunction="J7" toJunction="J0" end="360" vehsPerHour="268.75975975635214" departLane="free" arrivalSpeed="0.0"/>
  <flow id="JF347442" begin="300" fromJunction="J7" toJunction="J3" end="360" vehsPerHour="209.40909069050193" departLane="free" arrivalSpeed="0.0"/>
  <flow id="JF347443" begin="300" fromJunction="J7" toJunction="J4" end="360" vehsPerHour="212.1218582840109" departLane="free" arrivalSpeed="0.0"/>
  <flow id="JF347444" begin="300" fromJunction="J7" toJunction="J6" end="360" vehsPerHour="244.57086356535615" departLane="free" arrivalSpeed="0.0"/>
  <flow id="JF347445" begin="360" fromJunction="J0" toJunction="J3" end="420" vehsPerHour="293.0017062623984" departLane="free" arrivalSpeed="0.0"/>
  <flow id="JF347446" begin="360" fromJunction="J0" toJunction="J4" end="420" vehsPerHour="461.4737104148244" departLane="free" arrivalSpeed="0.0"/>
  <flow id="JF347447" begin="360" fromJunction="J0" toJunction="J6" end="420" vehsPerHour="201.48180287859068" departLane="free" arrivalSpeed="0.0"/>
  <flow id="JF347448" begin="360" fromJunction="J0" toJunction="J7" end="420" vehsPerHour="426.1456424269628" departLane="free" arrivalSpeed="0.0"/>
  <flow id="JF347449" begin="360" fromJunction="J3" toJunction="J4" end="420" vehsPerHour="155.69548226899354" departLane="free" arrivalSpeed="0.0"/>
  <flow id="JF347450" begin="360" fromJunction="J3" toJunction="J5" end="420" vehsPerHour="384.5010713626141" departLane="free" arrivalSpeed="0.0"/>
  <flow id="JF347451" begin="360" fromJunction="J3" toJunction="J6" end="420" vehsPerHour="427.3530474704842" departLane="free" arrivalSpeed="0.0"/>
  <flow id="JF347452" begin="360" fromJunction="J4" toJunction="J0" end="420" vehsPerHour="170.76670978700238" departLane="free" arrivalSpeed="0.0"/>
  <flow id="JF347453" begin="360" fromJunction="J4" toJunction="J3" end="420" vehsPerHour="82.88628086602583" departLane="free" arrivalSpeed="0.0"/>
  <flow id="JF347454" begin="360" fromJunction="J4" toJunction="J5" end="420" vehsPerHour="235.6138427888588" departLane="free" arrivalSpeed="0.0"/>
  <flow id="JF347455" begin="360" fromJunction="J4" toJunction="J7" end="420" vehsPerHour="108.87537601968751" departLane="free" arrivalSpeed="0.0"/>
  <flow id="JF347456" begin="360" fromJunction="J5" toJunction="J0" end="420" vehsPerHour="56.721963519985394" departLane="free" arrivalSpeed="0.0"/>
  <flow id="JF347457" begin="360" fromJunction="J5" toJunction="J3" end="420" vehsPerHour="27.589362470924193" departLane="free" arrivalSpeed="0.0"/>
  <flow id="JF347458" begin="360" fromJunction="J5" toJunction="J6" end="420" vehsPerHour="172.00610892185892" departLane="free" arrivalSpeed="0.0"/>
  <flow id="JF347459" begin="360" fromJunction="J6" toJunction="J0" end="420" vehsPerHour="132.69746513849717" departLane="free" arrivalSpeed="0.0"/>
  <flow id="JF347460" begin="360" fromJunction="J6" toJunction="J5" end="420" vehsPerHour="202.99935109702477" departLane="free" arrivalSpeed="0.0"/>
  <flow id="JF347461" begin="360" fromJunction="J6" toJunction="J7" end="420" vehsPerHour="45.470583393015" departLane="free" arrivalSpeed="0.0"/>
  <flow id="JF347462" begin="360" fromJunction="J7" toJunction="J4" end="420" vehsPerHour="19.123141327124774" departLane="free" arrivalSpeed="0.0"/>
  <flow id="JF347463" begin="360" fromJunction="J7" toJunction="J6" end="420" vehsPerHour="117.89855746073081" departLane="free" arrivalSpeed="0.0"/>
  <flow id="JF347464" begin="420" fromJunction="J0" toJunction="J3" end="480" vehsPerHour="495.03643090114815" departLane="free" arrivalSpeed="0.0"/>
  <flow id="JF347465" begin="420" fromJunction="J0" toJunction="J5" end="480" vehsPerHour="388.11089082621027" departLane="free" arrivalSpeed="0.0"/>
  <flow id="JF347466" begin="420" fromJunction="J0" toJunction="J6" end="480" vehsPerHour="392.365036473183" departLane="free" arrivalSpeed="0.0"/>
  <flow id="JF347467" begin="420" fromJunction="J0" toJunction="J7" end="480" vehsPerHour="519.5142436994878" departLane="free" arrivalSpeed="0.0"/>
  <flow id="JF347468" begin="420" fromJunction="J3" toJunction="J0" end="480" vehsPerHour="547.0621257858616" departLane="free" arrivalSpeed="0.0"/>
  <flow id="JF347469" begin="420" fromJunction="J3" toJunction="J4" end="480" vehsPerHour="378.5130967095452" departLane="free" arrivalSpeed="0.0"/>
  <flow id="JF347470" begin="420" fromJunction="J3" toJunction="J5" end="480" vehsPerHour="240.56074018482508" departLane="free" arrivalSpeed="0.0"/>
  <flow id="JF347471" begin="420" fromJunction="J3" toJunction="J6" end="480" vehsPerHour="284.7769273319895" departLane="free" arrivalSpeed="0.0"/>
  <flow id="JF347472" begin="420" fromJunction="J4" toJunction="J0" end="480" vehsPerHour="20.15740866035821" departLane="free" arrivalSpeed="0.0"/>
  <flow id="JF347473" begin="420" fromJunction="J4" toJunction="J5" end="480" vehsPerHour="210.28232181553898" departLane="free" arrivalSpeed="0.0"/>
  <flow id="JF347474" begin="420" fromJunction="J4" toJunction="J6" end="480" vehsPerHour="145.11924489584263" departLane="free" arrivalSpeed="0.0"/>
  <flow id="JF347475" begin="420" fromJunction="J4" toJunction="J7" end="480" vehsPerHour="110.6914965004312" departLane="free" arrivalSpeed="0.0"/>
  <flow id="JF347476" begin="420" fromJunction="J5" toJunction="J0" end="480" vehsPerHour="197.07037658273907" departLane="free" arrivalSpeed="0.0"/>
  <flow id="JF347477" begin="420" fromJunction="J5" toJunction="J4" end="480" vehsPerHour="108.53452160120526" departLane="free" arrivalSpeed="0.0"/>
  <flow id="JF347478" begin="420" fromJunction="J5" toJunction="J6" end="480" vehsPerHour="183.43440361144366" departLane="free" arrivalSpeed="0.0"/>
  <flow id="JF347479" begin="420" fromJunction="J5" toJunction="J7" end="480" vehsPerHour="57.870072553488754" departLane="free" arrivalSpeed="0.0"/>
  <flow id="JF347480" begin="420" fromJunction="J6" toJunction="J0" end="480" vehsPerHour="274.61654217349667" departLane="free" arrivalSpeed="0.0"/>
  <flow id="JF347481" begin="420" fromJunction="J6" toJunction="J3" end="480" vehsPerHour="10.864703844935557" departLane="free" arrivalSpeed="0.0"/>
  <flow id="JF347482" begin="420" fromJunction="J6" toJunction="J5" end="480" vehsPerHour="134.34685288024676" departLane="free" arrivalSpeed="0.0"/>
  <flow id="JF347483" begin="420" fromJunction="J7" toJunction="J0" end="480" vehsPerHour="104.57296683191322" departLane="free" arrivalSpeed="0.0"/>
  <flow id="JF347484" begin="420" fromJunction="J7" toJunction="J3" end="480" vehsPerHour="10.881446064523418" departLane="free" arrivalSpeed="0.0"/>
  <flow id="JF347485" begin="420" fromJunction="J7" toJunction="J4" end="480" vehsPerHour="101.14650048558501" departLane="free" arrivalSpeed="0.0"/>
  <flow id="JF347486" begin="420" fromJunction="J7" toJunction="J5" end="480" vehsPerHour="62.48107801843227" departLane="free" arrivalSpeed="0.0"/>
  <flow id="JF347487" begin="480" fromJunction="J0" toJunction="J3" end="540" vehsPerHour="336.95218404005016" departLane="free" arrivalSpeed="0.0"/>
  <flow id="JF347488" begin="480" fromJunction="J0" toJunction="J4" end="540" vehsPerHour="338.5224617225677" departLane="free" arrivalSpeed="0.0"/>
  <flow id="JF347489" begin="480" fromJunction="J0" toJunction="J5" end="540" vehsPerHour="345.7708949662903" departLane="free" arrivalSpeed="0.0"/>
  <flow id="JF347490" begin="480" fromJunction="J0" toJunction="J6" end="540" vehsPerHour="496.32881896036633" departLane="free" arrivalSpeed="0.0"/>
  <flow id="JF347491" begin="480" fromJunction="J0" toJunction="J7" end="540" vehsPerHour="271.56866239364484" departLane="free" arrivalSpeed="0.0"/>
  <flow id="JF347492" begin="480" fromJunction="J3" toJunction="J0" end="540" vehsPerHour="17.065353732946424" departLane="free" arrivalSpeed="0.0"/>
  <flow id="JF347493" begin="480" fromJunction="J3" toJunction="J4" end="540" vehsPerHour="466.97630646618984" departLane="free" arrivalSpeed="0.0"/>
  <flow id="JF347494" begin="480" fromJunction="J3" toJunction="J6" end="540" vehsPerHour="77.10478940552551" departLane="free" arrivalSpeed="0.0"/>
  <flow id="JF347495" begin="480" fromJunction="J3" toJunction="J7" end="540" vehsPerHour="326.4605009743273" departLane="free" arrivalSpeed="0.0"/>
  <flow id="JF347496" begin="480" fromJunction="J4" toJunction="J0" end="540" vehsPerHour="61.15660432162345" departLane="free" arrivalSpeed="0.0"/>
  <flow id="JF347497" begin="480" fromJunction="J4" toJunction="J3" end="540" vehsPerHour="220.26645669053946" departLane="free" arrivalSpeed="0.0"/>
  <flow id="JF347498" begin="480" fromJunction="J4" toJunction="J7" end="540" vehsPerHour="85.59262233019496" departLane="free" arrivalSpeed="0.0"/>
  <flow id="JF347499" begin="480" fromJunction="J5" toJunction="J0" end="540" vehsPerHour="253.10020560013325" departLane="free" arrivalSpeed="0.0"/>
  <flow id="JF347500" begin="480" fromJunction="J5" toJunction="J3" end="540" vehsPerHour="203.35475030447535" departLane="free" arrivalSpeed="0.0"/>
  <flow id="JF347501" begin="480" fromJunction="J5" toJunction="J6" end="540" vehsPerHour="241.4717415317401" departLane="free" arrivalSpeed="0.0"/>
  <flow id="JF347502" begin="480" fromJunction="J5" toJunction="J7" end="540" vehsPerHour="69.22351577294668" departLane="free" arrivalSpeed="0.0"/>
  <flow id="JF347503" begin="480" fromJunction="J6" toJunction="J0" end="540" vehsPerHour="227.6105196705745" departLane="free" arrivalSpeed="0.0"/>
  <flow id="JF347504" begin="480" fromJunction="J6" toJunction="J3" end="540" vehsPerHour="56.51206581016853" departLane="free" arrivalSpeed="0.0"/>
  <flow id="JF347505" begin="480" fromJunction="J6" toJunction="J4" end="540" vehsPerHour="133.1849735453421" departLane="free" arrivalSpeed="0.0"/>
  <flow id="JF347506" begin="480" fromJunction="J6" toJunction="J7" end="540" vehsPerHour="165.41377797222017" departLane="free" arrivalSpeed="0.0"/>
  <flow id="JF347507" begin="480" fromJunction="J7" toJunction="J0" end="540" vehsPerHour="179.2545419850308" departLane="free" arrivalSpeed="0.0"/>
  <flow id="JF347508" begin="480" fromJunction="J7" toJunction="J4" end="540" vehsPerHour="146.1241335317471" departLane="free" arrivalSpeed="0.0"/>
  <flow id="JF347509" begin="480" fromJunction="J7" toJunction="J5" end="540" vehsPerHour="216.30941189721221" departLane="free" arrivalSpeed="0.0"/>
  <flow id="JF347510" begin="480" fromJunction="J7" toJunction="J6" end="540" vehsPerHour="35.7413107673031" departLane="free" arrivalSpeed="0.0"/>
  <flow id="JF347511" begin="540" fromJunction="J0" toJunction="J3" end="600" vehsPerHour="531.6732222305478" departLane="free" arrivalSpeed="0.0"/>
  <flow id="JF347512" begin="540" fromJunction="J0" toJunction="J6" end="600" vehsPerHour="323.62712091263984" departLane="free" arrivalSpeed="0.0"/>
  <flow id="JF347513" begin="540" fromJunction="J0" toJunction="J7" end="600" vehsPerHour="507.9347226060788" departLane="free" arrivalSpeed="0.0"/>
  <flow id="JF347514" begin="540" fromJunction="J3" toJunction="J0" end="600" vehsPerHour="158.1280021065554" departLane="free" arrivalSpeed="0.0"/>
  <flow id="JF347515" begin="540" fromJunction="J3" toJunction="J4" end="600" vehsPerHour="452.83448780417655" departLane="free" arrivalSpeed="0.0"/>
  <flow id="JF347516" begin="540" fromJunction="J3" toJunction="J5" end="600" vehsPerHour="373.3429780291563" departLane="free" arrivalSpeed="0.0"/>
  <flow id="JF347517" begin="540" fromJunction="J3" toJunction="J6" end="600" vehsPerHour="382.2317056704536" departLane="free" arrivalSpeed="0.0"/>
  <flow id="JF347518" begin="540" fromJunction="J4" toJunction="J3" end="600" vehsPerHour="49.30805755787681" departLane="free" arrivalSpeed="0.0"/>
  <flow id="JF347519" begin="540" fromJunction="J4" toJunction="J5" end="600" vehsPerHour="134.01747793234472" departLane="free" arrivalSpeed="0.0"/>
  <flow id="JF347520" begin="540" fromJunction="J5" toJunction="J3" end="600" vehsPerHour="64.81982255714797" departLane="free" arrivalSpeed="0.0"/>
  <flow id="JF347521" begin="540" fromJunction="J5" toJunction="J6" end="600" vehsPerHour="159.865062072231" departLane="free" arrivalSpeed="0.0"/>