<?xml version="1.0" encoding="UTF-8"?>
<routes xmlns:xsi="http://www.w3.org/2001/XMLSchema-instance" xsi:noNamespaceSchemaLocation="http://sumo.dlr.de/xsd/routes_file.xsd">
  <flow id="JF357703" begin="0" fromJunction="J0" toJunction="J3" end="60" vehsPerHour="376.5506929827218" departLane="free" arrivalSpeed="0.0"/>
  <flow id="JF357704" begin="0" fromJunction="J0" toJunction="J5" end="60" vehsPerHour="269.79186495160513" departLane="free" arrivalSpeed="0.0"/>
  <flow id="JF357705" begin="0" fromJunction="J0" toJunction="J7" end="60" vehsPerHour="132.46977113935895" departLane="free" arrivalSpeed="0.0"/>
  <flow id="JF357706" begin="0" fromJunction="J3" toJunction="J0" end="60" vehsPerHour="488.6456068978748" departLane="free" arrivalSpeed="0.0"/>
  <flow id="JF357707" begin="0" fromJunction="J3" toJunction="J4" end="60" vehsPerHour="69.48304133268978" departLane="free" arrivalSpeed="0.0"/>
  <flow id="JF357708" begin="0" fromJunction="J3" toJunction="J5" end="60" vehsPerHour="16.753945253446485" departLane="free" arrivalSpeed="0.0"/>
  <flow id="JF357709" begin="0" fromJunction="J3" toJunction="J7" end="60" vehsPerHour="142.83296340296852" departLane="free" arrivalSpeed="0.0"/>
  <flow id="JF357710" begin="0" fromJunction="J4" toJunction="J0" end="60" vehsPerHour="77.53480685588957" departLane="free" arrivalSpeed="0.0"/>
  <flow id="JF357711" begin="0" fromJunction="J4" toJunction="J3" end="60" vehsPerHour="30.996938546393437" departLane="free" arrivalSpeed="0.0"/>
  <flow id="JF357712" begin="0" fromJunction="J4" toJunction="J6" end="60" vehsPerHour="17.33052721859258" departLane="free" arrivalSpeed="0.0"/>
  <flow id="JF357713" begin="0" fromJunction="J4" toJunction="J7" end="60" vehsPerHour="58.30816004938254" departLane="free" arrivalSpeed="0.0"/>
  <flow id="JF357714" begin="0" fromJunction="J5" toJunction="J0" end="60" vehsPerHour="127.9557375553339" departLane="free" arrivalSpeed="0.0"/>
  <flow id="JF357715" begin="0" fromJunction="J5" toJunction="J3" end="60" vehsPerHour="102.78094577372865" departLane="free" arrivalSpeed="0.0"/>
  <flow id="JF357716" begin="0" fromJunction="J5" toJunction="J6" end="60" vehsPerHour="91.12912299085004" departLane="free" arrivalSpeed="0.0"/>
  <flow id="JF357717" begin="0" fromJunction="J6" toJunction="J0" end="60" vehsPerHour="225.07018177682446" departLane="free" arrivalSpeed="0.0"/>
  <flow id="JF357718" begin="0" fromJunction="J6" toJunction="J3" end="60" vehsPerHour="63.90196176928949" departLane="free" arrivalSpeed="0.0"/>
  <flow id="JF357719" begin="0" fromJunction="J6" toJunction="J5" end="60" vehsPerHour="16.321312222604888" departLane="free" arrivalSpeed="0.0"/>
  <flow id="JF357720" begin="0" fromJunction="J6" toJunction="J7" end="60" vehsPerHour="264.09856992941906" departLane="free" arrivalSpeed="0.0"/>
  <flow id="JF357721" begin="0" fromJunction="J7" toJunction="J0" end="60" vehsPerHour="16.8206294991122" departLane="free" arrivalSpeed="0.0"/>
  <flow id="JF357722" begin="0" fromJunction="J7" toJunction="J3" end="60" vehsPerHour="84.31613548738783" departLane="free" arrivalSpeed="0.0"/>
  <flow id="JF357723" begin="0" fromJunction="J7" toJunction="J4" end="60" vehsPerHour="89.00769275669096" departLane="free" arrivalSpeed="0.0"/>
  <flow id="JF357724" begin="0" fromJunction="J7" toJunction="J6" end="60" vehsPerHour="131.95474963894844" departLane="free" arrivalSpeed="0.0"/>
  <flow id="JF357725" begin="60" fromJunction="J0" toJunction="J3" end="120" vehsPerHour="464.7125173350445" departLane="free" arrivalSpeed="0.0"/>
  <flow id="JF357726" begin="60" fromJunction="J0" toJunction="J4" end="120" vehsPerHour="168.24166484328393" departLane="free" arrivalSpeed="0.0"/>
  <flow id="JF357727" begin="60" fromJunction="J0" toJunction="J6" end="120" vehsPerHour="312.72320650938093" departLane="free" arrivalSpeed="0.0"/>
  <flow id="JF357728" begin="60" fromJunction="J0" toJunction="J7" end="120" vehsPerHour="47.017463213956724" departLane="free" arrivalSpeed="0.0"/>
  <flow id="JF357729" begin="60" fromJunction="J3" toJunction="J0" end="120" vehsPerHour="413.4386061181521" departLane="free" arrivalSpeed="0.0"/>
  <flow id="JF357730" begin="60" fromJunction="J3" toJunction="J4" end="120" vehsPerHour="57.59911457065152" departLane="free" arrivalSpeed="0.0"/>
  <flow id="JF357731" begin="60" fromJunction="J3" toJunction="J5" end="120" vehsPerHour="400.498467442214" departLane="free" arrivalSpeed="0.0"/>
  <flow id="JF357732" begin="60" fromJunction="J3" toJunction="J6" end="120" vehsPerHour="315.95576486204357" departLane="free" arrivalSpeed="0.0"/>
  <flow id="JF357733" begin="60" fromJunction="J4" toJunction="J0" end="120" vehsPerHour="6.367276318530237" departLane="free" arrivalSpeed="0.0"/>
  <flow id="JF357734" begin="60" fromJunction="J4" toJunction="J3" end="120" vehsPerHour="113.66086748145027" departLane="free" arrivalSpeed="0.0"/>
  <flow id="JF357735" begin="60" fromJunction="J4" toJunction="J5" end="120" vehsPerHour="202.15154522236165" departLane="free" arrivalSpeed="0.0"/>
  <flow id="JF357736" begin="60" fromJunction="J5" toJunction="J0" end="120" vehsPerHour="242.31601234249325" departLane="free" arrivalSpeed="0.0"/>
  <flow id="JF357737" begin="60" fromJunction="J5" toJunction="J3" end="120" vehsPerHour="266.19072039890057" departLane="free" arrivalSpeed="0.0"/>
  <flow id="JF357738" begin="60" fromJunction="J5" toJunction="J6" end="120" vehsPerHour="120.76369449018813" departLane="free" arrivalSpeed="0.0"/>
  <flow id="JF357739" begin="60" fromJunction="J5" toJunction="J7" end="120" vehsPerHour="180.15160544214567" departLane="free" arrivalSpeed="0.0"/>
  <flow id="JF357740" begin="60" fromJunction="J6" toJunction="J3" end="120" vehsPerHour="102.80588019706367" departLane="free" arrivalSpeed="0.0"/>
  <flow id="JF357741" begin="60" fromJunction="J6" toJunction="J4" end="120" vehsPerHour="259.38603528496407" departLane="free" arrivalSpeed="0.0"/>
  <flow id="JF357742" begin="60" fromJunction="J6" toJunction="J7" end="120" vehsPerHour="187.7290206446253" departLane="free" arrivalSpeed="0.0"/>
  <flow id="JF357743" begin="60" fromJunction="J7" toJunction="J3" end="120" vehsPerHour="269.30185238014326" departLane="free" arrivalSpeed="0.0"/>
  <flow id="JF357744" begin="60" fromJunction="J7" toJunction="J5" end="120" vehsPerHour="96.61967471673194" departLane="free" arrivalSpeed="0.0"/>
  <flow id="JF357745" begin="60" fromJunction="J7" toJunction="J6" end="120" vehsPerHour="6.836927808444264" departLane="free" arrivalSpeed="0.0"/>
  <flow id="JF357746" begin="120" fromJunction="J0" toJunction="J3" end="180" vehsPerHour="218.81874575449254" departLane="free" arrivalSpeed="0.0"/>
  <flow id="JF357747" begin="120" fromJunction="J0" toJunction="J4" end="180" vehsPerHour="157.7637115597513" departLane="free" arrivalSpeed="0.0"/>
  <flow id="JF357748" begin="120" fromJunction="J0" toJunction="J5" end="180" vehsPerHour="290.4887870516894" departLane="free" arrivalSpeed="0.0"/>
  <flow id="JF357749" begin="120" fromJunction="J0" toJunction="J6" end="180" vehsPerHour="305.9336280791024" departLane="free" arrivalSpeed="0.0"/>
  <flow id="JF357750" begin="120" fromJunction="J0" toJunction="J7" end="180" vehsPerHour="105.22026392836948" departLane="free" arrivalSpeed="0.0"/>
  <flow id="JF357751" begin="120" fromJunction="J3" toJunction="J0" end="180" vehsPerHour="50.34113297348415" departLane="free" arrivalSpeed="0.0"/>
  <flow id="JF357752" begin="120" fromJunction="J3" toJunction="J5" end="180" vehsPerHour="311.18212123351924" departLane="free" arrivalSpeed="0.0"/>
  <flow id="JF357753" begin="120" fromJunction="J3" toJunction="J6" end="180" vehsPerHour="47.730932455914264" departLane="free" arrivalSpeed="0.0"/>
  <flow id="JF357754" begin="120" fromJunction="J3" toJunction="J7" end="180" vehsPerHour="367.3495183205518" departLane="free" arrivalSpeed="0.0"/>
  <flow id="JF357755" begin="120" fromJunction="J4" toJunction="J0" end="180" vehsPerHour="134.35383701389097" departLane="free" arrivalSpeed="0.0"/>
  <flow id="JF357756" begin="120" fromJunction="J4" toJunction="J3" end="180" vehsPerHour="89.64010205277229" departLane="free" arrivalSpeed="0.0"/>
  <flow id="JF357757" begin="120" fromJunction="J4" toJunction="J6" end="180" vehsPerHour="36.66229764301897" departLane="free" arrivalSpeed="0.0"/>
  <flow id="JF357758" begin="120" fromJunction="J4" toJunction="J7" end="180" vehsPerHour="80.2955842135863" departLane="free" arrivalSpeed="0.0"/>
  <flow id="JF357759" begin="120" fromJunction="J5" toJunction="J0" end="180" vehsPerHour="12.399123030691841" departLane="free" arrivalSpeed="0.0"/>
  <flow id="JF357760" begin="120" fromJunction="J5" toJunction="J4" end="180" vehsPerHour="167.63956343325626" departLane="free" arrivalSpeed="0.0"/>
  <flow id="JF357761" begin="120" fromJunction="J5" toJunction="J6" end="180" vehsPerHour="272.7888115686187" departLane="free" arrivalSpeed="0.0"/>
  <flow id="JF357762" begin="120" fromJunction="J5" toJunction="J7" end="180" vehsPerHour="7.410127330236632" departLane="free" arrivalSpeed="0.0"/>
  <flow id="JF357763" begin="120" fromJunction="J6" toJunction="J0" end="180" vehsPerHour="0.3672073668666368" departLane="free" arrivalSpeed="0.0"/>
  <flow id="JF357764" begin="120" fromJunction="J6" toJunction="J7" end="180" vehsPerHour="231.09291614884788" departLane="free" arrivalSpeed="0.0"/>
  <flow id="JF357765" begin="120" fromJunction="J7" toJunction="J3" end="180" vehsPerHour="94.30252866523008" departLane="free" arrivalSpeed="0.0"/>
  <flow id="JF357766" begin="120" fromJunction="J7" toJunction="J4" end="180" vehsPerHour="188.49150535675398" departLane="free" arrivalSpeed="0.0"/>
  <flow id="JF357767" begin="120" fromJunction="J7" toJunction="J6" end="180" vehsPerHour="136.76992055924273" departLane="free" arrivalSpeed="0.0"/>
  <flow id="JF357768" begin="180" fromJunction="J0" toJunction="J4" end="240" vehsPerHour="540.7005338066884" departLane="free" arrivalSpeed="0.0"/>
  <flow id="JF357769" begin="180" fromJunction="J0" toJunction="J5" end="240" vehsPerHour="492.80528398939134" departLane="free" arrivalSpeed="0.0"/>
  <flow id="JF357770" begin="180" fromJunction="J0" toJunction="J6" end="240" vehsPerHour="76.93156252703521" departLane="free" arrivalSpeed="0.0"/>
  <flow id="JF357771" begin="180" fromJunction="J0" toJunction="J7" end="240" vehsPerHour="260.45877707352975" departLane="free" arrivalSpeed="0.0"/>
  <flow id="JF357772" begin="180" fromJunction="J3" toJunction="J4" end="240" vehsPerHour="9.788591850747915" departLane="free" arrivalSpeed="0.0"/>
  <flow id="JF357773" begin="180" fromJunction="J3" toJunction="J5" end="240" vehsPerHour="93.60890430818071" departLane="free" arrivalSpeed="0.0"/>
  <flow id="JF357774" begin="180" fromJunction="J3" toJunction="J6" end="240" vehsPerHour="40.47575576309525" departLane="free" arrivalSpeed="0.0"/>
  <flow id="JF357775" begin="180" fromJunction="J3" toJunction="J7" end="240" vehsPerHour="347.7639335867789" departLane="free" arrivalSpeed="0.0"/>
  <flow id="JF357776" begin="180" fromJunction="J4" toJunction="J0" end="240" vehsPerHour="223.6077958016306" departLane="free" arrivalSpeed="0.0"/>
  <flow id="JF357777" begin="180" fromJunction="J4" toJunction="J3" end="240" vehsPerHour="149.64042764736197" departLane="free" arrivalSpeed="0.0"/>
  <flow id="JF357778" begin="180" fromJunction="J4" toJunction="J5" end="240" vehsPerHour="195.08168571947002" departLane="free" arrivalSpeed="0.0"/>
  <flow id="JF357779" begin="180" fromJunction="J4" toJunction="J6" end="240" vehsPerHour="185.05827622766085" departLane="free" arrivalSpeed="0.0"/>
  <flow id="JF357780" begin="180" fromJunction="J5" toJunction="J0" end="240" vehsPerHour="264.10444718512974" departLane="free" arrivalSpeed="0.0"/>
  <flow id="JF357781" begin="180" fromJunction="J5" toJunction="J3" end="240" vehsPerHour="177.98503776723243" departLane="free" arrivalSpeed="0.0"/>
  <flow id="JF357782" begin="180" fromJunction="J5" toJunction="J4" end="240" vehsPerHour="215.91242136842703" departLane="free" arrivalSpeed="0.0"/>
  <flow id="JF357783" begin="180" fromJunction="J5" toJunction="J6" end="240" vehsPerHour="271.45297579096075" departLane="free" arrivalSpeed="0.0"/>
  <flow id="JF357784" begin="180" fromJunction="J5" toJunction="J7" end="240" vehsPerHour="235.35706815451198" departLane="free" arrivalSpeed="0.0"/>
  <flow id="JF357785" begin="180" fromJunction="J6" toJunction="J5" end="240" vehsPerHour="80.45610388640907" departLane="free" arrivalSpeed="0.0"/>
  <flow id="JF357786" begin="180" fromJunction="J6" toJunction="J7" end="240" vehsPerHour="205.1173719400031" departLane="free" arrivalSpeed="0.0"/>
  <flow id="JF357787" begin="180" fromJunction="J7" toJunction="J0" end="240" vehsPerHour="253.90716379784175" departLane="free" arrivalSpeed="0.0"/>
  <flow id="JF357788" begin="180" fromJunction="J7" toJunction="J6" end="240" vehsPerHour="189.8692964087996" departLane="free" arrivalSpeed="0.0"/>
  <flow id="JF357789" begin="240" fromJunction="J0" toJunction="J3" end="300" vehsPerHour="310.81352029384163" departLane="free" arrivalSpeed="0.0"/>
  <flow id="JF357790" begin="240" fromJunction="J0" toJunction="J4" end="300" vehsPerHour="154.53459654539904" departLane="free" arrivalSpeed="0.0"/>
  <flow id="JF357791" begin="240" fromJunction="J0" toJunction="J5" end="300" vehsPerHour="420.5666779769466" departLane="free" arrivalSpeed="0.0"/>
  <flow id="JF357792" begin="240" fromJunction="J0" toJunction="J7" end="300" vehsPerHour="17.040342809863" departLane="free" arrivalSpeed="0.0"/>
  <flow id="JF357793" begin="240" fromJunction="J3" toJunction="J0" end="300" vehsPerHour="256.9660805277663" departLane="free" arrivalSpeed="0.0"/>
  <flow id="JF357794" begin="240" fromJunction="J3" toJunction="J5" end="300" vehsPerHour="108.338405857996" departLane="free" arrivalSpeed="0.0"/>
  <flow id="JF357795" begin="240" fromJunction="J3" toJunction="J6" end="300" vehsPerHour="502.4586245549295" departLane="free" arrivalSpeed="0.0"/>
  <flow id="JF357796" begin="240" fromJunction="J3" toJunction="J7" end="300" vehsPerHour="405.03898341393784" departLane="free" arrivalSpeed="0.0"/>
  <flow id="JF357797" begin="240" fromJunction="J4" toJunction="J0" end="300" vehsPerHour="101.22157141249939" departLane="free" arrivalSpeed="0.0"/>
  <flow id="JF357798" begin="240" fromJunction="J4" toJunction="J3" end="300" vehsPerHour="25.807581442617632" departLane="free" arrivalSpeed="0.0"/>
  <flow id="JF357799" begin="240" fromJunction="J4" toJunction="J6" end="300" vehsPerHour="149.5485333139003" departLane="free" arrivalSpeed="0.0"/>
  <flow id="JF357800" begin="240" fromJunction="J5" toJunction="J3" end="300" vehsPerHour="74.16515596389101" departLane="free" arrivalSpeed="0.0"/>
  <flow id="JF357801" begin="240" fromJunction="J5" toJunction="J4" end="300" vehsPerHour="190.59794049633305" departLane="free" arrivalSpeed="0.0"/>
  <flow id="JF357802" begin="240" fromJunction="J5" toJunction="J6" end="300" vehsPerHour="50.03433362649916" departLane="free" arrivalSpeed="0.0"/>
  <flow id="JF357803" begin="240" fromJunction="J6" toJunction="J3" end="300" vehsPerHour="12.958074603638872" departLane="free" arrivalSpeed="0.0"/>
  <flow id="JF357804" begin="240" fromJunction="J6" toJunction="J4" end="300" vehsPerHour="20.868829093348022" departLane="free" arrivalSpeed="0.0"/>
  <flow id="JF357805" begin="240" fromJunction="J6" toJunction="J5" end="300" vehsPerHour="241.0801904498783" departLane="free" arrivalSpeed="0.0"/>
  <flow id="JF357806" begin="240" fromJunction="J6" toJunction="J7" end="300" vehsPerHour="259.3280167537282" departLane="free" arrivalSpeed="0.0"/>
  <flow id="JF357807" begin="240" fromJunction="J7" toJunction="J0" end="300" vehsPerHour="109.00078651875624" departLane="free" arrivalSpeed="0.0"/>
  <flow id="JF357808" begin="240" fromJunction="J7" toJunction="J3" end="300" vehsPerHour="71.74856922489184" departLane="free" arrivalSpeed="0.0"/>
  <flow id="JF357809" begin="240" fromJunction="J7" toJunction="J4" end="300" vehsPerHour="175.92040156946348" departLane="free" arrivalSpeed="0.0"/>
  <flow id="JF357810" begin="240" fromJunction="J7" toJunction="J5" end="300" vehsPerHour="160.8027121809854" departLane="free" arrivalSpeed="0.0"/>
  <flow id="JF357811" begin="240" fromJunction="J7" toJunction="J6" end="300" vehsPerHour="17.517542979802755" departLane="free" arrivalSpeed="0.0"/>
  <flow id="JF357812" begin="300" fromJunction="J0" toJunction="J4" end="360" vehsPerHour="468.35007866220235" departLane="free" arrivalSpeed="0.0"/>
  <flow id="JF357813" begin="300" fromJunction="J0" toJunction="J6" end="360" vehsPerHour="145.4573677736589" departLane="free" arrivalSpeed="0.0"/>
  <flow id="JF357814" begin="300" fromJunction="J0" toJunction="J7" end="360" vehsPerHour="475.39737431438687" departLane="free" arrivalSpeed="0.0"/>
  <flow id="JF357815" begin="300" fromJunction="J3" toJunction="J0" end="360" vehsPerHour="338.26095865619976" departLane="free" arrivalSpeed="0.0"/>
  <flow id="JF357816" begin="300" fromJunction="J3" toJunction="J4" end="360" vehsPerHour="127.24173385653617" departLane="free" arrivalSpeed="0.0"/>
  <flow id="JF357817" begin="300" fromJunction="J3" toJunction="J5" end="360" vehsPerHour="89.97681600033921" departLane="free" arrivalSpeed="0.0"/>
  <flow id="JF357818" begin="300" fromJunction="J3" toJunction="J6" end="360" vehsPerHour="194.13106689371708" departLane="free" arrivalSpeed="0.0"/>
  <flow id="JF357819" begin="300" fromJunction="J4" toJunction="J0" end="360" vehsPerHour="82.85629757876349" departLane="free" arrivalSpeed="0.0"/>
  <flow id="JF357820" begin="300" fromJunction="J4" toJunction="J3" end="360" vehsPerHour="147.7252997359131" departLane="free" arrivalSpeed="0.0"/>
  <flow id="JF357821" begin="300" fromJunction="J4" toJunction="J5" end="360" vehsPerHour="35.077008641279775" departLane="free" arrivalSpeed="0.0"/>
  <flow id="JF357822" begin="300" fromJunction="J4" toJunction="J6" end="360" vehsPerHour="225.06633038918827" departLane="free" arrivalSpeed="0.0"/>
  <flow id="JF357823" begin="300" fromJunction="J5" toJunction="J0" end="360" vehsPerHour="133.9832456902806" departLane="free" arrivalSpeed="0.0"/>
  <flow id="JF357824" begin="300" fromJunction="J5" toJunction="J3" end="360" vehsPerHour="226.04029386218176" departLane="free" arrivalSpeed="0.0"/>
  <flow id="JF357825" begin="300" fromJunction="J5" toJunction="J6" end="360" vehsPerHour="177.99553170737732" departLane="free" arrivalSpeed="0.0"/>
  <flow id="JF357826" begin="300" fromJunction="J5" toJunction="J7" end="360" vehsPerHour="113.92584809334942" departLane="free" arrivalSpeed="0.0"/>
  <flow id="JF357827" begin="300" fromJunction="J6" toJunction="J0" end="360" vehsPerHour="182.6898827697003" departLane="free" arrivalSpeed="0.0"/>
  <flow id="JF357828" begin="300" fromJunction="J6" toJunction="J3" end="360" vehsPerHour="10.388935933784714" departLane="free" arrivalSpeed="0.0"/>
  <flow id="JF357829" begin="300" fromJunction="J6" toJunction="J5" end="360" vehsPerHour="38.243275867822916" departLane="free" arrivalSpeed="0.0"/>
  <flow id="JF357830" begin="300" fromJunction="J7" toJunction="J0" end="360" vehsPerHour="255.98764592692822" departLane="free" arrivalSpeed="0.0"/>
  <flow id="JF357831" begin="300" fromJunction="J7" toJunction="J4" end="360" vehsPerHour="212.31574196776393" departLane="free" arrivalSpeed="0.0"/>
  <flow id="JF357832" begin="300" fromJunction="J7" toJunction="J5" end="360" vehsPerHour="222.9640134976206" departLane="free" arrivalSpeed="0.0"/>
  <flow id="JF357833" begin="360" fromJunction="J0" toJunction="J3" end="420" vehsPerHour="238.04175883962967" departLane="free" arrivalSpeed="0.0"/>
  <flow id="JF357834" begin="360" fromJunction="J0" toJunction="J4" end="420" vehsPerHour="169.37047572182095" departLane="free" arrivalSpeed="0.0"/>
  <flow id="JF357835" begin="360" fromJunction="J0" toJunction="J5" end="420" vehsPerHour="362.19562914228777" departLane="free" arrivalSpeed="0.0"/>
  <flow id="JF357836" begin="360" fromJunction="J0" toJunction="J6" end="420" vehsPerHour="521.3400533782205" departLane="free" arrivalSpeed="0.0"/>
  <flow id="JF357837" begin="360" fromJunction="J0" toJunction="J7" end="420" vehsPerHour="204.97099516024824" departLane="free" arrivalSpeed="0.0"/>
  <flow id="JF357838" begin="360" fromJunction="J3" toJunction="J0" end="420" vehsPerHour="316.6729179989986" departLane="free" arrivalSpeed="0.0"/>
  <flow id="JF357839" begin="360" fromJunction="J3" toJunction="J5" end="420" vehsPerHour="37.02957533648525" departLane="free" arrivalSpeed="0.0"/>
  <flow id="JF357840" begin="360" fromJunction="J3" toJunction="J6" end="420" vehsPerHour="425.3396019105554" departLane="free" arrivalSpeed="0.0"/>
  <flow id="JF357841" begin="360" fromJunction="J4" toJunction="J0" end="420" vehsPerHour="187.03376531505495" departLane="free" arrivalSpeed="0.0"/>
  <flow id="JF357842" begin="360" fromJunction="J4" toJunction="J3" end="420" vehsPerHour="179.2868496192791" departLane="free" arrivalSpeed="0.0"/>
  <flow id="JF357843" begin="360" fromJunction="J4" toJunction="J5" end="420" vehsPerHour="205.00471318546556" departLane="free" arrivalSpeed="0.0"/>
  <flow id="JF357844" begin="360" fromJunction="J4" toJunction="J6" end="420" vehsPerHour="99.95469910575285" departLane="free" arrivalSpeed="0.0"/>
  <flow id="JF357845" begin="360" fromJunction="J4" toJunction="J7" end="420" vehsPerHour="61.43265384171758" departLane="free" arrivalSpeed="0.0"/>
  <flow id="JF357846" begin="360" fromJunction="J5" toJunction="J3" end="420" vehsPerHour="157.78153791204258" departLane="free" arrivalSpeed="0.0"/>
  <flow id="JF357847" begin="360" fromJunction="J5" toJunction="J4" end="420" vehsPerHour="186.27064534899475" departLane="free" arrivalSpeed="0.0"/>
  <flow id="JF357848" begin="360" fromJunction="J5" toJunction="J6" end="420" vehsPerHour="20.91115467554511" departLane="free" arrivalSpeed="0.0"/>
  <flow id="JF357849" begin="360" fromJunction="J5" toJunction="J7" end="420" vehsPerHour="125.0823056860687" departLane="free" arrivalSpeed="0.0"/>
  <flow id="JF357850" begin="360" fromJunction="J6" toJunction="J0" end="420" vehsPerHour="200.06418525224362" departLane="free" arrivalSpeed="0.0"/>
  <flow id="JF357851" begin="360" fromJunction="J6" toJunction="J5" end="420" vehsPerHour="142.40066326998127" departLane="free" arrivalSpeed="0.0"/>
  <flow id="JF357852" begin="360" fromJunction="J6" toJunction="J7" end="420" vehsPerHour="28.620198212793603" departLane="free" arrivalSpeed="0.0"/>
  <flow id="JF357853" begin="360" fromJunction="J7" toJunction="J0" end="420" vehsPerHour="167.03780548196409" departLane="free" arrivalSpeed="0.0"/>
  <flow id="JF357854" begin="360" fromJunction="J7" toJunction="J5" end="420" vehsPerHour="200.42190967207705" departLane="free" arrivalSpeed="0.0"/>
  <flow id="JF357855" begin="360" fromJunction="J7" toJunction="J6" end="420" vehsPerHour="165.2652240496643" departLane="free" arrivalSpeed="0.0"/>
  <flow id="JF357856" begin="420" fromJunction="J0" toJunction="J4" end="480" vehsPerHour="167.20111533804527" departLane="free" arrivalSpeed="0.0"/>
  <flow id="JF357857" begin="420" fromJunction="J0" toJunction="J7" end="480" vehsPerHour="438.0357468025557" departLane="free" arrivalSpeed="0.0"/>
  <flow id="JF357858" begin="420" fromJunction="J3" toJunction="J0" end="480" vehsPerHour="0.3612548786080567" departLane="free" arrivalSpeed="0.0"/>
  <flow id="JF357859" begin="420" fromJunction="J3" toJunction="J5" end="480" vehsPerHour="266.0615648299408" departLane="free" arrivalSpeed="0.0"/>
  <flow id="JF357860" begin="420" fromJunction="J3" toJunction="J7" end="480" vehsPerHour="444.59145133314763" departLane="free" arrivalSpeed="0.0"/>
  <flow id="JF357861" begin="420" fromJunction="J4" toJunction="J3" end="480" vehsPerHour="67.81621515256494" departLane="free" arrivalSpeed="0.0"/>
  <flow id="JF357862" begin="420" fromJunction="J4" toJunction="J7" end="480" vehsPerHour="0.1589422847397187" departLane="free" arrivalSpeed="0.0"/>
  <flow id="JF357863" begin="420" fromJunction="J5" toJunction="J0" end="480" vehsPerHour="241.45461184420535" departLane="free" arrivalSpeed="0.0"/>
  <flow id="JF357864" begin="420" fromJunction="J5" toJunction="J3" end="480" vehsPerHour="2.603393831501522" departLane="free" arrivalSpeed="0.0"/>
  <flow id="JF357865" begin="420" fromJunction="J5" toJunction="J4" end="480" vehsPerHour="212.4102033511939" departLane="free" arrivalSpeed="0.0"/>
  <flow id="JF357866" begin="420" fromJunction="J6" toJunction="J0" end="480" vehsPerHour="12.666391086837294" departLane="free" arrivalSpeed="0.0"/>
  <flow id="JF357867" begin="420" fromJunction="J6" toJunction="J3" end="480" vehsPerHour="173.48301063275093" departLane="free" arrivalSpeed="0.0"/>
  <flow id="JF357868" begin="420" fromJunction="J6" toJunction="J4" end="480" vehsPerHour="204.2934427380271" departLane="free" arrivalSpeed="0.0"/>
  <flow id="JF357869" begin="420" fromJunction="J6" toJunction="J7" end="480" vehsPerHour="82.44895397026067" departLane="free" arrivalSpeed="0.0"/>
  <flow id="JF357870" begin="420" fromJunction="J7" toJunction="J0" end="480" vehsPerHour="207.35803492538182" departLane="free" arrivalSpeed="0.0"/>
  <flow id="JF357871" begin="420" fromJunction="J7" toJunction="J3" end="480" vehsPerHour="153.54491466653903" departLane="free" arrivalSpeed="0.0"/>
  <flow id="JF357872" begin="420" fromJunction="J7" toJunction="J6" end="480" vehsPerHour="255.75702112733896" departLane="free" arrivalSpeed="0.0"/>
  <flow id="JF357873" begin="480" fromJunction="J0" toJunction="J3" end="540" vehsPerHour="137.72082979772466" departLane="free" arrivalSpeed="0.0"/>
  <flow id="JF357874" begin="480" fromJunction="J0" toJunction="J4" end="540" vehsPerHour="255.23097929934465" departLane="free" arrivalSpeed="0.0"/>
  <flow id="JF357875" begin="480" fromJunction="J0" toJunction="J5" end="540" vehsPerHour="298.30004262062727" departLane="free" arrivalSpeed="0.0"/>
  <flow id="JF357876" begin="480" fromJunction="J0" toJunction="J6" end="540" vehsPerHour="24.977932005319833" departLane="free" arrivalSpeed="0.0"/>
  <flow id="JF357877" begin="480" fromJunction="J0" toJunction="J7" end="540" vehsPerHour="70.93420852593833" departLane="free" arrivalSpeed="0.0"/>
  <flow id="JF357878" begin="480" fromJunction="J3" toJunction="J4" end="540" vehsPerHour="454.4485534625452" departLane="free" arrivalSpeed="0.0"/>
  <flow id="JF357879" begin="480" fromJunction="J3" toJunction="J5" end="540" vehsPerHour="207.10244083005963" departLane="free" arrivalSpeed="0.0"/>
  <flow id="JF357880" begin="480" fromJunction="J3" toJunction="J6" end="540" vehsPerHour="470.692498390593" departLane="free" arrivalSpeed="0.0"/>
  <flow id="JF357881" begin="480" fromJunction="J3" toJunction="J7" end="540" vehsPerHour="177.39287014943676" departLane="free" arrivalSpeed="0.0"/>
  <flow id="JF357882" begin="480" fromJunction="J4" toJunction="J0" end="540" vehsPerHour="81.63971341157163" departLane="free" arrivalSpeed="0.0"/>
  <flow id="JF357883" begin="480" fromJunction="J4" toJunction="J3" end="540" vehsPerHour="158.22379146312983" departLane="free" arrivalSpeed="0.0"/>
  <flow id="JF357884" begin="480" fromJunction="J4" toJunction="J6" end="540" vehsPerHour="189.53265656837527" departLane="free" arrivalSpeed="0.0"/>
  <flow id="JF357885" begin="480" fromJunction="J5" toJunction="J0" end="540" vehsPerHour="189.11509719296959" departLane="free" arrivalSpeed="0.0"/>
  <flow id="JF357886" begin="480" fromJunction="J5" toJunction="J3" end="540" vehsPerHour="70.88501853688959" departLane="free" arrivalSpeed="0.0"/>
  <flow id="JF357887" begin="480" fromJunction="J5" toJunction="J4" end="540" vehsPerHour="270.62016492494075" departLane="free" arrivalSpeed="0.0"/>
  <flow id="JF357888" begin="480" fromJunction="J5" toJunction="J6" end="540" vehsPerHour="150.40004873238902" departLane="free" arrivalSpeed="0.0"/>
  <flow id="JF357889" begin="480" fromJunction="J5" toJunction="J7" end="540" vehsPerHour="100.55648528756953" departLane="free" arrivalSpeed="0.0"/>
  <flow id="JF357890" begin="480" fromJunction="J6" toJunction="J0" end="540" vehsPerHour="20.433399402115185" departLane="free" arrivalSpeed="0.0"/>
  <flow id="JF357891" begin="480" fromJunction="J6" toJunction="J3" end="540" vehsPerHour="232.61941984487905" departLane="free" arrivalSpeed="0.0"/>
  <flow id="JF357892" begin="480" fromJunction="J6" toJunction="J4" end="540" vehsPerHour="36.51424170245636" departLane="free" arrivalSpeed="0.0"/>
  <flow id="JF357893" begin="480" fromJunction="J6" toJunction="J7" end="540" vehsPerHour="265.70732895580846" departLane="free" arrivalSpeed="0.0"/>
  <flow id="JF357894" begin="480" fromJunction="J7" toJunction="J3" end="540" vehsPerHour="163.57627503120986" departLane="free" arrivalSpeed="0.0"/>
  <flow id="JF357895" begin="480" fromJunction="J7" toJunction="J4" end="540" vehsPerHour="212.65078420986168" departLane="free" arrivalSpeed="0.0"/>
  <flow id="JF357896" begin="480" fromJunction="J7" toJunction="J5" end="540" vehsPerHour="106.39568573229901" departLane="free" arrivalSpeed="0.0"/>
  <flow id="JF357897" begin="480" fromJunction="J7" toJunction="J6" end="540" vehsPerHour="247.50284647526323" departLane="free" arrivalSpeed="0.0"/>
  <flow id="JF357898" begin="540" fromJunction="J0" toJunction="J3" end="600" vehsPerHour="463.37809034999265" departLane="free" arrivalSpeed="0.0"/>
  <flow id="JF357899" begin="540" fromJunction="J0" toJunction="J5" end="600" vehsPerHour="54.114573228927156" departLane="free" arrivalSpeed="0.0"/>
  <flow id="JF357900" begin="540" fromJunction="J0" toJunction="J6" end="600" vehsPerHour="314.28156559101075" departLane="free" arrivalSpeed="0.0"/>
  <flow id="JF357901" begin="540" fromJunction="J0" toJunction="J7" end="600" vehsPerHour="310.4195886955229" departLane="free" arrivalSpeed="0.0"/>
  <flow id="JF357902" begin="540" fromJunction="J3" toJunction="J0" end="600" vehsPerHour="89.80715294155694" departLane="free" arrivalSpeed="0.0"/>