<?xml version="1.0" encoding="UTF-8"?>
<routes xmlns:xsi="http://www.w3.org/2001/XMLSchema-instance" xsi:noNamespaceSchemaLocation="http://sumo.dlr.de/xsd/routes_file.xsd">
  <flow id="JF361202" begin="0" fromJunction="J0" toJunction="J3" end="60" vehsPerHour="88.9500004021467" departLane="free" arrivalSpeed="0.0"/>
  <flow id="JF361203" begin="0" fromJunction="J0" toJunction="J5" end="60" vehsPerHour="500.1831768867184" departLane="free" arrivalSpeed="0.0"/>
  <flow id="JF361204" begin="0" fromJunction="J3" toJunction="J0" end="60" vehsPerHour="404.68527550303776" departLane="free" arrivalSpeed="0.0"/>
  <flow id="JF361205" begin="0" fromJunction="J3" toJunction="J4" end="60" vehsPerHour="429.68489535800984" departLane="free" arrivalSpeed="0.0"/>
  <flow id="JF361206" begin="0" fromJunction="J3" toJunction="J6" end="60" vehsPerHour="212.21891819583246" departLane="free" arrivalSpeed="0.0"/>
  <flow id="JF361207" begin="0" fromJunction="J4" toJunction="J0" end="60" vehsPerHour="128.1335749056975" departLane="free" arrivalSpeed="0.0"/>
  <flow id="JF361208" begin="0" fromJunction="J4" toJunction="J5" end="60" vehsPerHour="127.17872179980694" departLane="free" arrivalSpeed="0.0"/>
  <flow id="JF361209" begin="0" fromJunction="J4" toJunction="J6" end="60" vehsPerHour="132.09148750728718" departLane="free" arrivalSpeed="0.0"/>
  <flow id="JF361210" begin="0" fromJunction="J4" toJunction="J7" end="60" vehsPerHour="38.158110095564766" departLane="free" arrivalSpeed="0.0"/>
  <flow id="JF361211" begin="0" fromJunction="J5" toJunction="J0" end="60" vehsPerHour="30.403790884470244" departLane="free" arrivalSpeed="0.0"/>
  <flow id="JF361212" begin="0" fromJunction="J5" toJunction="J4" end="60" vehsPerHour="81.94695785237998" departLane="free" arrivalSpeed="0.0"/>
  <flow id="JF361213" begin="0" fromJunction="J5" toJunction="J6" end="60" vehsPerHour="61.619458333900496" departLane="free" arrivalSpeed="0.0"/>
  <flow id="JF361214" begin="0" fromJunction="J6" toJunction="J3" end="60" vehsPerHour="159.74588990073923" departLane="free" arrivalSpeed="0.0"/>
  <flow id="JF361215" begin="0" fromJunction="J7" toJunction="J0" end="60" vehsPerHour="95.36056934752405" departLane="free" arrivalSpeed="0.0"/>
  <flow id="JF361216" begin="0" fromJunction="J7" toJunction="J4" end="60" vehsPerHour="252.27170046628532" departLane="free" arrivalSpeed="0.0"/>
  <flow id="JF361217" begin="60" fromJunction="J0" toJunction="J3" end="120" vehsPerHour="142.882757561269" departLane="free" arrivalSpeed="0.0"/>
  <flow id="JF361218" begin="60" fromJunction="J0" toJunction="J5" end="120" vehsPerHour="354.2733314596294" departLane="free" arrivalSpeed="0.0"/>
  <flow id="JF361219" begin="60" fromJunction="J0" toJunction="J6" end="120" vehsPerHour="39.96405881142862" departLane="free" arrivalSpeed="0.0"/>
  <flow id="JF361220" begin="60" fromJunction="J0" toJunction="J7" end="120" vehsPerHour="40.58364384841402" departLane="free" arrivalSpeed="0.0"/>
  <flow id="JF361221" begin="60" fromJunction="J3" toJunction="J4" end="120" vehsPerHour="239.21380197441317" departLane="free" arrivalSpeed="0.0"/>
  <flow id="JF361222" begin="60" fromJunction="J3" toJunction="J5" end="120" vehsPerHour="222.4243613262222" departLane="free" arrivalSpeed="0.0"/>
  <flow id="JF361223" begin="60" fromJunction="J3" toJunction="J6" end="120" vehsPerHour="193.57116909015514" departLane="free" arrivalSpeed="0.0"/>
  <flow id="JF361224" begin="60" fromJunction="J3" toJunction="J7" end="120" vehsPerHour="496.34886476746686" departLane="free" arrivalSpeed="0.0"/>
  <flow id="JF361225" begin="60" fromJunction="J4" toJunction="J5" end="120" vehsPerHour="71.75063605730179" departLane="free" arrivalSpeed="0.0"/>
  <flow id="JF361226" begin="60" fromJunction="J4" toJunction="J6" end="120" vehsPerHour="135.1918191344416" departLane="free" arrivalSpeed="0.0"/>
  <flow id="JF361227" begin="60" fromJunction="J5" toJunction="J0" end="120" vehsPerHour="250.91235428789054" departLane="free" arrivalSpeed="0.0"/>
  <flow id="JF361228" begin="60" fromJunction="J5" toJunction="J3" end="120" vehsPerHour="40.20551664270141" departLane="free" arrivalSpeed="0.0"/>
  <flow id="JF361229" begin="60" fromJunction="J5" toJunction="J4" end="120" vehsPerHour="30.017473417200613" departLane="free" arrivalSpeed="0.0"/>
  <flow id="JF361230" begin="60" fromJunction="J5" toJunction="J6" end="120" vehsPerHour="92.95851606475765" departLane="free" arrivalSpeed="0.0"/>
  <flow id="JF361231" begin="60" fromJunction="J5" toJunction="J7" end="120" vehsPerHour="210.60683959428667" departLane="free" arrivalSpeed="0.0"/>
  <flow id="JF361232" begin="60" fromJunction="J6" toJunction="J4" end="120" vehsPerHour="267.5245386445979" departLane="free" arrivalSpeed="0.0"/>
  <flow id="JF361233" begin="60" fromJunction="J6" toJunction="J5" end="120" vehsPerHour="211.336947184529" departLane="free" arrivalSpeed="0.0"/>
  <flow id="JF361234" begin="60" fromJunction="J6" toJunction="J7" end="120" vehsPerHour="82.9227708400755" departLane="free" arrivalSpeed="0.0"/>
  <flow id="JF361235" begin="60" fromJunction="J7" toJunction="J3" end="120" vehsPerHour="183.7124681857109" departLane="free" arrivalSpeed="0.0"/>
  <flow id="JF361236" begin="60" fromJunction="J7" toJunction="J4" end="120" vehsPerHour="162.92495252681698" departLane="free" arrivalSpeed="0.0"/>
  <flow id="JF361237" begin="60" fromJunction="J7" toJunction="J6" end="120" vehsPerHour="90.02926170162752" departLane="free" arrivalSpeed="0.0"/>
  <flow id="JF361238" begin="120" fromJunction="J0" toJunction="J3" end="180" vehsPerHour="78.71321224593939" departLane="free" arrivalSpeed="0.0"/>
  <flow id="JF361239" begin="120" fromJunction="J0" toJunction="J4" end="180" vehsPerHour="538.7542851061991" departLane="free" arrivalSpeed="0.0"/>
  <flow id="JF361240" begin="120" fromJunction="J0" toJunction="J7" end="180" vehsPerHour="485.0276382639244" departLane="free" arrivalSpeed="0.0"/>
  <flow id="JF361241" begin="120" fromJunction="J3" toJunction="J4" end="180" vehsPerHour="518.5880594338088" departLane="free" arrivalSpeed="0.0"/>
  <flow id="JF361242" begin="120" fromJunction="J3" toJunction="J5" end="180" vehsPerHour="66.10856474145135" departLane="free" arrivalSpeed="0.0"/>
  <flow id="JF361243" begin="120" fromJunction="J3" toJunction="J6" end="180" vehsPerHour="317.0836365280514" departLane="free" arrivalSpeed="0.0"/>
  <flow id="JF361244" begin="120" fromJunction="J4" toJunction="J0" end="180" vehsPerHour="147.7270632624248" departLane="free" arrivalSpeed="0.0"/>
  <flow id="JF361245" begin="120" fromJunction="J4" toJunction="J3" end="180" vehsPerHour="25.445755328714117" departLane="free" arrivalSpeed="0.0"/>
  <flow id="JF361246" begin="120" fromJunction="J4" toJunction="J5" end="180" vehsPerHour="38.632419822038884" departLane="free" arrivalSpeed="0.0"/>
  <flow id="JF361247" begin="120" fromJunction="J4" toJunction="J6" end="180" vehsPerHour="186.99864243458936" departLane="free" arrivalSpeed="0.0"/>
  <flow id="JF361248" begin="120" fromJunction="J4" toJunction="J7" end="180" vehsPerHour="112.89262343797515" departLane="free" arrivalSpeed="0.0"/>
  <flow id="JF361249" begin="120" fromJunction="J5" toJunction="J3" end="180" vehsPerHour="40.59775794742671" departLane="free" arrivalSpeed="0.0"/>
  <flow id="JF361250" begin="120" fromJunction="J5" toJunction="J6" end="180" vehsPerHour="123.27653495555188" departLane="free" arrivalSpeed="0.0"/>
  <flow id="JF361251" begin="120" fromJunction="J5" toJunction="J7" end="180" vehsPerHour="258.1055797080855" departLane="free" arrivalSpeed="0.0"/>
  <flow id="JF361252" begin="120" fromJunction="J6" toJunction="J0" end="180" vehsPerHour="126.57492491861656" departLane="free" arrivalSpeed="0.0"/>
  <flow id="JF361253" begin="120" fromJunction="J6" toJunction="J3" end="180" vehsPerHour="40.839231554943574" departLane="free" arrivalSpeed="0.0"/>
  <flow id="JF361254" begin="120" fromJunction="J6" toJunction="J4" end="180" vehsPerHour="251.79879533033477" departLane="free" arrivalSpeed="0.0"/>
  <flow id="JF361255" begin="120" fromJunction="J6" toJunction="J5" end="180" vehsPerHour="269.7287915062659" departLane="free" arrivalSpeed="0.0"/>
  <flow id="JF361256" begin="120" fromJunction="J6" toJunction="J7" end="180" vehsPerHour="121.93229197411426" departLane="free" arrivalSpeed="0.0"/>
  <flow id="JF361257" begin="120" fromJunction="J7" toJunction="J0" end="180" vehsPerHour="70.81867584482707" departLane="free" arrivalSpeed="0.0"/>
  <flow id="JF361258" begin="120" fromJunction="J7" toJunction="J4" end="180" vehsPerHour="113.63714014118052" departLane="free" arrivalSpeed="0.0"/>
  <flow id="JF361259" begin="120" fromJunction="J7" toJunction="J6" end="180" vehsPerHour="125.17499185616177" departLane="free" arrivalSpeed="0.0"/>
  <flow id="JF361260" begin="180" fromJunction="J0" toJunction="J3" end="240" vehsPerHour="273.64575014358303" departLane="free" arrivalSpeed="0.0"/>
  <flow id="JF361261" begin="180" fromJunction="J0" toJunction="J4" end="240" vehsPerHour="237.4843850924683" departLane="free" arrivalSpeed="0.0"/>
  <flow id="JF361262" begin="180" fromJunction="J0" toJunction="J6" end="240" vehsPerHour="213.1313820154154" departLane="free" arrivalSpeed="0.0"/>
  <flow id="JF361263" begin="180" fromJunction="J0" toJunction="J7" end="240" vehsPerHour="500.0562148616963" departLane="free" arrivalSpeed="0.0"/>
  <flow id="JF361264" begin="180" fromJunction="J3" toJunction="J0" end="240" vehsPerHour="84.56996001431646" departLane="free" arrivalSpeed="0.0"/>
  <flow id="JF361265" begin="180" fromJunction="J3" toJunction="J6" end="240" vehsPerHour="468.732096704355" departLane="free" arrivalSpeed="0.0"/>
  <flow id="JF361266" begin="180" fromJunction="J4" toJunction="J3" end="240" vehsPerHour="40.6168297114464" departLane="free" arrivalSpeed="0.0"/>
  <flow id="JF361267" begin="180" fromJunction="J4" toJunction="J6" end="240" vehsPerHour="144.25746194208355" departLane="free" arrivalSpeed="0.0"/>
  <flow id="JF361268" begin="180" fromJunction="J4" toJunction="J7" end="240" vehsPerHour="29.448982153273228" departLane="free" arrivalSpeed="0.0"/>
  <flow id="JF361269" begin="180" fromJunction="J5" toJunction="J0" end="240" vehsPerHour="139.02312366278954" departLane="free" arrivalSpeed="0.0"/>
  <flow id="JF361270" begin="180" fromJunction="J5" toJunction="J3" end="240" vehsPerHour="7.72473717949881" departLane="free" arrivalSpeed="0.0"/>
  <flow id="JF361271" begin="180" fromJunction="J5" toJunction="J4" end="240" vehsPerHour="119.55596620914119" departLane="free" arrivalSpeed="0.0"/>
  <flow id="JF361272" begin="180" fromJunction="J5" toJunction="J6" end="240" vehsPerHour="119.42070640201341" departLane="free" arrivalSpeed="0.0"/>
  <flow id="JF361273" begin="180" fromJunction="J5" toJunction="J7" end="240" vehsPerHour="235.47322405059123" departLane="free" arrivalSpeed="0.0"/>
  <flow id="JF361274" begin="180" fromJunction="J6" toJunction="J0" end="240" vehsPerHour="96.97721311870953" departLane="free" arrivalSpeed="0.0"/>
  <flow id="JF361275" begin="180" fromJunction="J6" toJunction="J3" end="240" vehsPerHour="166.25498766978023" departLane="free" arrivalSpeed="0.0"/>
  <flow id="JF361276" begin="180" fromJunction="J6" toJunction="J4" end="240" vehsPerHour="43.990483174684876" departLane="free" arrivalSpeed="0.0"/>
  <flow id="JF361277" begin="180" fromJunction="J6" toJunction="J5" end="240" vehsPerHour="148.02387654623726" departLane="free" arrivalSpeed="0.0"/>
  <flow id="JF361278" begin="180" fromJunction="J6" toJunction="J7" end="240" vehsPerHour="222.49506829759616" departLane="free" arrivalSpeed="0.0"/>
  <flow id="JF361279" begin="180" fromJunction="J7" toJunction="J0" end="240" vehsPerHour="193.97280409581165" departLane="free" arrivalSpeed="0.0"/>
  <flow id="JF361280" begin="180" fromJunction="J7" toJunction="J3" end="240" vehsPerHour="215.6851959687009" departLane="free" arrivalSpeed="0.0"/>
  <flow id="JF361281" begin="180" fromJunction="J7" toJunction="J4" end="240" vehsPerHour="58.860944426943405" departLane="free" arrivalSpeed="0.0"/>
  <flow id="JF361282" begin="240" fromJunction="J0" toJunction="J5" end="300" vehsPerHour="34.31909584995709" departLane="free" arrivalSpeed="0.0"/>
  <flow id="JF361283" begin="240" fromJunction="J3" toJunction="J4" end="300" vehsPerHour="490.52776332263187" departLane="free" arrivalSpeed="0.0"/>
  <flow id="JF361284" begin="240" fromJunction="J3" toJunction="J5" end="300" vehsPerHour="448.7283674370395" departLane="free" arrivalSpeed="0.0"/>
  <flow id="JF361285" begin="240" fromJunction="J3" toJunction="J6" end="300" vehsPerHour="331.69450448735483" departLane="free" arrivalSpeed="0.0"/>
  <flow id="JF361286" begin="240" fromJunction="J3" toJunction="J7" end="300" vehsPerHour="347.6762806061755" departLane="free" arrivalSpeed="0.0"/>
  <flow id="JF361287" begin="240" fromJunction="J4" toJunction="J0" end="300" vehsPerHour="43.383603257341726" departLane="free" arrivalSpeed="0.0"/>
  <flow id="JF361288" begin="240" fromJunction="J4" toJunction="J3" end="300" vehsPerHour="241.55424111741908" departLane="free" arrivalSpeed="0.0"/>
  <flow id="JF361289" begin="240" fromJunction="J4" toJunction="J5" end="300" vehsPerHour="36.47379524653099" departLane="free" arrivalSpeed="0.0"/>
  <flow id="JF361290" begin="240" fromJunction="J4" toJunction="J6" end="300" vehsPerHour="266.54154976237203" departLane="free" arrivalSpeed="0.0"/>
  <flow id="JF361291" begin="240" fromJunction="J5" toJunction="J6" end="300" vehsPerHour="108.55400147888203" departLane="free" arrivalSpeed="0.0"/>
  <flow id="JF361292" begin="240" fromJunction="J5" toJunction="J7" end="300" vehsPerHour="216.70550724795498" departLane="free" arrivalSpeed="0.0"/>
  <flow id="JF361293" begin="240" fromJunction="J6" toJunction="J0" end="300" vehsPerHour="89.13616425082694" departLane="free" arrivalSpeed="0.0"/>
  <flow id="JF361294" begin="240" fromJunction="J6" toJunction="J5" end="300" vehsPerHour="164.51863192215123" departLane="free" arrivalSpeed="0.0"/>
  <flow id="JF361295" begin="240" fromJunction="J7" toJunction="J0" end="300" vehsPerHour="221.80623287878802" departLane="free" arrivalSpeed="0.0"/>
  <flow id="JF361296" begin="240" fromJunction="J7" toJunction="J3" end="300" vehsPerHour="240.71828903503553" departLane="free" arrivalSpeed="0.0"/>
  <flow id="JF361297" begin="240" fromJunction="J7" toJunction="J4" end="300" vehsPerHour="174.53659390051558" departLane="free" arrivalSpeed="0.0"/>
  <flow id="JF361298" begin="240" fromJunction="J7" toJunction="J5" end="300" vehsPerHour="70.66290017944738" departLane="free" arrivalSpeed="0.0"/>
  <flow id="JF361299" begin="240" fromJunction="J7" toJunction="J6" end="300" vehsPerHour="90.42900989772382" departLane="free" arrivalSpeed="0.0"/>
  <flow id="JF361300" begin="300" fromJunction="J0" toJunction="J3" end="360" vehsPerHour="149.08999484284297" departLane="free" arrivalSpeed="0.0"/>
  <flow id="JF361301" begin="300" fromJunction="J0" toJunction="J5" end="360" vehsPerHour="135.14704536756412" departLane="free" arrivalSpeed="0.0"/>
  <flow id="JF361302" begin="300" fromJunction="J0" toJunction="J7" end="360" vehsPerHour="132.59399315889445" departLane="free" arrivalSpeed="0.0"/>
  <flow id="JF361303" begin="300" fromJunction="J3" toJunction="J5" end="360" vehsPerHour="97.8095939129414" departLane="free" arrivalSpeed="0.0"/>
  <flow id="JF361304" begin="300" fromJunction="J3" toJunction="J6" end="360" vehsPerHour="379.0724040810785" departLane="free" arrivalSpeed="0.0"/>
  <flow id="JF361305" begin="300" fromJunction="J3" toJunction="J7" end="360" vehsPerHour="371.6255854354558" departLane="free" arrivalSpeed="0.0"/>
  <flow id="JF361306" begin="300" fromJunction="J4" toJunction="J0" end="360" vehsPerHour="4.195315221222213" departLane="free" arrivalSpeed="0.0"/>
  <flow id="JF361307" begin="300" fromJunction="J4" toJunction="J3" end="360" vehsPerHour="159.69213772354607" departLane="free" arrivalSpeed="0.0"/>
  <flow id="JF361308" begin="300" fromJunction="J4" toJunction="J6" end="360" vehsPerHour="228.51809524302098" departLane="free" arrivalSpeed="0.0"/>
  <flow id="JF361309" begin="300" fromJunction="J4" toJunction="J7" end="360" vehsPerHour="85.22501377362336" departLane="free" arrivalSpeed="0.0"/>
  <flow id="JF361310" begin="300" fromJunction="J5" toJunction="J3" end="360" vehsPerHour="132.81611125137613" departLane="free" arrivalSpeed="0.0"/>
  <flow id="JF361311" begin="300" fromJunction="J5" toJunction="J4" end="360" vehsPerHour="177.88946561392112" departLane="free" arrivalSpeed="0.0"/>
  <flow id="JF361312" begin="300" fromJunction="J5" toJunction="J7" end="360" vehsPerHour="241.22757153427813" departLane="free" arrivalSpeed="0.0"/>
  <flow id="JF361313" begin="300" fromJunction="J6" toJunction="J0" end="360" vehsPerHour="42.732145597542136" departLane="free" arrivalSpeed="0.0"/>
  <flow id="JF361314" begin="300" fromJunction="J6" toJunction="J4" end="360" vehsPerHour="20.700291988512806" departLane="free" arrivalSpeed="0.0"/>
  <flow id="JF361315" begin="300" fromJunction="J6" toJunction="J5" end="360" vehsPerHour="106.30035778240455" departLane="free" arrivalSpeed="0.0"/>
  <flow id="JF361316" begin="300" fromJunction="J6" toJunction="J7" end="360" vehsPerHour="47.3505517786705" departLane="free" arrivalSpeed="0.0"/>
  <flow id="JF361317" begin="300" fromJunction="J7" toJunction="J0" end="360" vehsPerHour="29.63936645733276" departLane="free" arrivalSpeed="0.0"/>
  <flow id="JF361318" begin="300" fromJunction="J7" toJunction="J3" end="360" vehsPerHour="37.39905563851871" departLane="free" arrivalSpeed="0.0"/>
  <flow id="JF361319" begin="300" fromJunction="J7" toJunction="J4" end="360" vehsPerHour="266.2412992977868" departLane="free" arrivalSpeed="0.0"/>
  <flow id="JF361320" begin="300" fromJunction="J7" toJunction="J5" end="360" vehsPerHour="197.48710049946942" departLane="free" arrivalSpeed="0.0"/>
  <flow id="JF361321" begin="300" fromJunction="J7" toJunction="J6" end="360" vehsPerHour="258.2771087583097" departLane="free" arrivalSpeed="0.0"/>
  <flow id="JF361322" begin="360" fromJunction="J0" toJunction="J3" end="420" vehsPerHour="59.2996985882064" departLane="free" arrivalSpeed="0.0"/>
  <flow id="JF361323" begin="360" fromJunction="J0" toJunction="J5" end="420" vehsPerHour="158.33869337206664" departLane="free" arrivalSpeed="0.0"/>
  <flow id="JF361324" begin="360" fromJunction="J0" toJunction="J6" end="420" vehsPerHour="513.0651735324348" departLane="free" arrivalSpeed="0.0"/>
  <flow id="JF361325" begin="360" fromJunction="J0" toJunction="J7" end="420" vehsPerHour="300.1724255888427" departLane="free" arrivalSpeed="0.0"/>
  <flow id="JF361326" begin="360" fromJunction="J3" toJunction="J0" end="420" vehsPerHour="322.3049565840243" departLane="free" arrivalSpeed="0.0"/>
  <flow id="JF361327" begin="360" fromJunction="J3" toJunction="J4" end="420" vehsPerHour="324.76134669349176" departLane="free" arrivalSpeed="0.0"/>
  <flow id="JF361328" begin="360" fromJunction="J3" toJunction="J6" end="420" vehsPerHour="126.36747560281437" departLane="free" arrivalSpeed="0.0"/>
  <flow id="JF361329" begin="360" fromJunction="J3" toJunction="J7" end="420" vehsPerHour="237.8784992028838" departLane="free" arrivalSpeed="0.0"/>
  <flow id="JF361330" begin="360" fromJunction="J4" toJunction="J0" end="420" vehsPerHour="90.42490524498506" departLane="free" arrivalSpeed="0.0"/>
  <flow id="JF361331" begin="360" fromJunction="J4" toJunction="J3" end="420" vehsPerHour="248.51188504327254" departLane="free" arrivalSpeed="0.0"/>
  <flow id="JF361332" begin="360" fromJunction="J4" toJunction="J5" end="420" vehsPerHour="242.7525510396419" departLane="free" arrivalSpeed="0.0"/>
  <flow id="JF361333" begin="360" fromJunction="J4" toJunction="J6" end="420" vehsPerHour="260.59387216619234" departLane="free" arrivalSpeed="0.0"/>
  <flow id="JF361334" begin="360" fromJunction="J5" toJunction="J0" end="420" vehsPerHour="135.29005804668242" departLane="free" arrivalSpeed="0.0"/>
  <flow id="JF361335" begin="360" fromJunction="J5" toJunction="J4" end="420" vehsPerHour="61.88758043535335" departLane="free" arrivalSpeed="0.0"/>
  <flow id="JF361336" begin="360" fromJunction="J5" toJunction="J6" end="420" vehsPerHour="4.251546870357307" departLane="free" arrivalSpeed="0.0"/>
  <flow id="JF361337" begin="360" fromJunction="J5" toJunction="J7" end="420" vehsPerHour="154.4515025044151" departLane="free" arrivalSpeed="0.0"/>
  <flow id="JF361338" begin="360" fromJunction="J6" toJunction="J0" end="420" vehsPerHour="266.61901404696414" departLane="free" arrivalSpeed="0.0"/>
  <flow id="JF361339" begin="360" fromJunction="J6" toJunction="J3" end="420" vehsPerHour="181.57845137942346" departLane="free" arrivalSpeed="0.0"/>
  <flow id="JF361340" begin="360" fromJunction="J6" toJunction="J5" end="420" vehsPerHour="164.6900185478083" departLane="free" arrivalSpeed="0.0"/>
  <flow id="JF361341" begin="360" fromJunction="J7" toJunction="J0" end="420" vehsPerHour="255.3907159138819" departLane="free" arrivalSpeed="0.0"/>
  <flow id="JF361342" begin="360" fromJunction="J7" toJunction="J3" end="420" vehsPerHour="208.20543623386" departLane="free" arrivalSpeed="0.0"/>
  <flow id="JF361343" begin="360" fromJunction="J7" toJunction="J5" end="420" vehsPerHour="115.40743060675838" departLane="free" arrivalSpeed="0.0"/>
  <flow id="JF361344" begin="360" fromJunction="J7" toJunction="J6" end="420" vehsPerHour="225.13161943015345" departLane="free" arrivalSpeed="0.0"/>
  <flow id="JF361345" begin="420" fromJunction="J0" toJunction="J5" end="480" vehsPerHour="232.71131583400788" departLane="free" arrivalSpeed="0.0"/>
  <flow id="JF361346" begin="420" fromJunction="J0" toJunction="J6" end="480" vehsPerHour="189.2096071027812" departLane="free" arrivalSpeed="0.0"/>
  <flow id="JF361347" begin="420" fromJunction="J0" toJunction="J7" end="480" vehsPerHour="313.90825865384517" departLane="free" arrivalSpeed="0.0"/>
  <flow id="JF361348" begin="420" fromJunction="J3" toJunction="J0" end="480" vehsPerHour="76.93924414033832" departLane="free" arrivalSpeed="0.0"/>
  <flow id="JF361349" begin="420" fromJunction="J3" toJunction="J4" end="480" vehsPerHour="421.07026614806136" departLane="free" arrivalSpeed="0.0"/>
  <flow id="JF361350" begin="420" fromJunction="J3" toJunction="J6" end="480" vehsPerHour="338.1875212976656" departLane="free" arrivalSpeed="0.0"/>
  <flow id="JF361351" begin="420" fromJunction="J3" toJunction="J7" end="480" vehsPerHour="141.30001504332637" departLane="free" arrivalSpeed="0.0"/>
  <flow id="JF361352" begin="420" fromJunction="J4" toJunction="J0" end="480" vehsPerHour="111.93821510933589" departLane="free" arrivalSpeed="0.0"/>
  <flow id="JF361353" begin="420" fromJunction="J4" toJunction="J3" end="480" vehsPerHour="156.11713091647792" departLane="free" arrivalSpeed="0.0"/>
  <flow id="JF361354" begin="420" fromJunction="J4" toJunction="J6" end="480" vehsPerHour="249.97732488803126" departLane="free" arrivalSpeed="0.0"/>
  <flow id="JF361355" begin="420" fromJunction="J5" toJunction="J0" end="480" vehsPerHour="4.452678369775215" departLane="free" arrivalSpeed="0.0"/>
  <flow id="JF361356" begin="420" fromJunction="J5" toJunction="J3" end="480" vehsPerHour="238.11587684784416" departLane="free" arrivalSpeed="0.0"/>
  <flow id="JF361357" begin="420" fromJunction="J5" toJunction="J7" end="480" vehsPerHour="201.23644302437714" departLane="free" arrivalSpeed="0.0"/>
  <flow id="JF361358" begin="420" fromJunction="J6" toJunction="J0" end="480" vehsPerHour="169.92280419453652" departLane="free" arrivalSpeed="0.0"/>
  <flow id="JF361359" begin="420" fromJunction="J6" toJunction="J4" end="480" vehsPerHour="119.24183942954096" departLane="free" arrivalSpeed="0.0"/>
  <flow id="JF361360" begin="420" fromJunction="J6" toJunction="J5" end="480" vehsPerHour="163.8697981408824" departLane="free" arrivalSpeed="0.0"/>
  <flow id="JF361361" begin="420" fromJunction="J7" toJunction="J0" end="480" vehsPerHour="195.2169498405663" departLane="free" arrivalSpeed="0.0"/>
  <flow id="JF361362" begin="420" fromJunction="J7" toJunction="J3" end="480" vehsPerHour="116.14287918734847" departLane="free" arrivalSpeed="0.0"/>
  <flow id="JF361363" begin="420" fromJunction="J7" toJunction="J4" end="480" vehsPerHour="123.93907635832747" departLane="free" arrivalSpeed="0.0"/>
  <flow id="JF361364" begin="420" fromJunction="J7" toJunction="J5" end="480" vehsPerHour="38.23839174512753" departLane="free" arrivalSpeed="0.0"/>
  <flow id="JF361365" begin="420" fromJunction="J7" toJunction="J6" end="480" vehsPerHour="142.3280107066803" departLane="free" arrivalSpeed="0.0"/>
  <flow id="JF361366" begin="480" fromJunction="J0" toJunction="J4" end="540" vehsPerHour="235.35325122188158" departLane="free" arrivalSpeed="0.0"/>
  <flow id="JF361367" begin="480" fromJunction="J0" toJunction="J5" end="540" vehsPerHour="527.1032862094394" departLane="free" arrivalSpeed="0.0"/>
  <flow id="JF361368" begin="480" fromJunction="J0" toJunction="J6" end="540" vehsPerHour="267.12922574457514" departLane="free" arrivalSpeed="0.0"/>
  <flow id="JF361369" begin="480" fromJunction="J0" toJunction="J7" end="540" vehsPerHour="516.0645593442844" departLane="free" arrivalSpeed="0.0"/>
  <flow id="JF361370" begin="480" fromJunction="J3" toJunction="J4" end="540" vehsPerHour="523.7793730976127" departLane="free" arrivalSpeed="0.0"/>
  <flow id="JF361371" begin="480" fromJunction="J3" toJunction="J7" end="540" vehsPerHour="361.989848210627" departLane="free" arrivalSpeed="0.0"/>
  <flow id="JF361372" begin="480" fromJunction="J4" toJunction="J0" end="540" vehsPerHour="235.40270366517206" departLane="free" arrivalSpeed="0.0"/>
  <flow id="JF361373" begin="480" fromJunction="J4" toJunction="J3" end="540" vehsPerHour="42.4340103722611" departLane="free" arrivalSpeed="0.0"/>
  <flow id="JF361374" begin="480" fromJunction="J4" toJunction="J6" end="540" vehsPerHour="28.767093962283326" departLane="free" arrivalSpeed="0.0"/>
  <flow id="JF361375" begin="480" fromJunction="J5" toJunction="J0" end="540" vehsPerHour="158.37231044957477" departLane="free" arrivalSpeed="0.0"/>
  <flow id="JF361376" begin="480" fromJunction="J5" toJunction="J3" end="540" vehsPerHour="59.97222381713017" departLane="free" arrivalSpeed="0.0"/>
  <flow id="JF361377" begin="480" fromJunction="J5" toJunction="J4" end="540" vehsPerHour="221.2999297541072" departLane="free" arrivalSpeed="0.0"/>
  <flow id="JF361378" begin="480" fromJunction="J5" toJunction="J6" end="540" vehsPerHour="139.15196874619753" departLane="free" arrivalSpeed="0.0"/>
  <flow id="JF361379" begin="480" fromJunction="J6" toJunction="J0" end="540" vehsPerHour="15.732669776554907" departLane="free" arrivalSpeed="0.0"/>
  <flow id="JF361380" begin="480" fromJunction="J6" toJunction="J7" end="540" vehsPerHour="271.676736440385" departLane="free" arrivalSpeed="0.0"/>
  <flow id="JF361381" begin="480" fromJunction="J7" toJunction="J0" end="540" vehsPerHour="221.92263276423392" departLane="free" arrivalSpeed="0.0"/>
  <flow id="JF361382" begin="480" fromJunction="J7" toJunction="J3" end="540" vehsPerHour="212.69272032950119" departLane="free" arrivalSpeed="0.0"/>
  <flow id="JF361383" begin="480" fromJunction="J7" toJunction="J4" end="540" vehsPerHour="147.89848653085377" departLane="free" arrivalSpeed="0.0"/>
  <flow id="JF361384" begin="480" fromJunction="J7" toJunction="J5" end="540" vehsPerHour="53.4175111967083" departLane="free" arrivalSpeed="0.0"/>
  <flow id="JF361385" begin="480" fromJunction="J7" toJunction="J6" end="540" vehsPerHour="162.94905507305194" departLane="free" arrivalSpeed="0.0"/>
  <flow id="JF361386" begin="540" fromJunction="J0" toJunction="J4" end="600" vehsPerHour="487.20729587480986" departLane="free" arrivalSpeed="0.0"/>
  <flow id="JF361387" begin="540" fromJunction="J0" toJunction="J5" end="600" vehsPerHour="126.67507566183755" departLane="free" arrivalSpeed="0.0"/>
  <flow id="JF361388" begin="540" fromJunction="J0" toJunction="J6" end="600" vehsPerHour="473.9664813962105" departLane="free" arrivalSpeed="0.0"/>
  <flow id="JF361389" begin="540" fromJunction="J3" toJunction="J0" end="600" vehsPerHour="5.747239754548614" departLane="free" arrivalSpeed="0.0"/>
  <flow id="JF361390" begin="540" fromJunction="J3" toJunction="J4" end="600" vehsPerHour="289.54921068858073" departLane="free" arrivalSpeed="0.0"/>
  <flow id="JF361391" begin="540" fromJunction="J3" toJunction="J6" end="600" vehsPerHour="397.9326945957631" departLane="free" arrivalSpeed="0.0"/>
  <flow id="JF361392" begin="540" fromJunction="J4" toJunction="J3" end="600" vehsPerHour="46.48100761072434" departLane="free" arrivalSpeed="0.0"/>
  <flow id="JF361393" begin="540" fromJunction="J4" toJunction="J6" end="600" vehsPerHour="274.4250426560254" departLane="free" arrivalSpeed="0.0"/>
  <flow id="JF361394" begin="540" fromJunction="J4" toJunction="J7" end="600" vehsPerHour="35.217453379045565" departLane="free" arrivalSpeed="0.0"/>
  <flow id="JF361395" begin="540" fromJunction="J5" toJunction="J0" end="600" vehsPerHour="78.74209210269126" departLane="free" arrivalSpeed="0.0"/>
  <flow id="JF361396" begin="540" fromJunction="J5" toJunction="J3" end="600" vehsPerHour="126.30221524287893" departLane="free" arrivalSpeed="0.0"/>
  <flow id="JF361397" begin="540" fromJunction="J5" toJunction="J6" end="600" vehsPerHour="142.38889518100692" departLane="free" arrivalSpeed="0.0"/>
  <flow id="JF361398" begin="540" fromJunction="J5" toJunction="J7" end="600" vehsPerHour="63.7085083767414" departLane="free" arrivalSpeed="0.0"/>
  <flow id="JF361399" begin="540" fromJunction="J6" toJunction="J0" end="600" vehsPerHour="225.07431435955436" departLane="free" arrivalSpeed="0.0"/>
  <flow id="JF361400" begin="540" fromJunction="J6" toJunction="J3" end="600" vehsPerHour="197.7308411220543" departLane="free" arrivalSpeed="0.0"/>
  <flow id="JF361401" begin="540" fromJunction="J6" toJunction="J7" end="600" vehsPerHour="121.72996426008352" departLane="free" arrivalSpeed="0.0"/>