<?xml version="1.0" encoding="UTF-8"?>
<routes xmlns:xsi="http://www.w3.org/2001/XMLSchema-instance" xsi:noNamespaceSchemaLocation="http://sumo.dlr.de/xsd/routes_file.xsd">
  <flow id="JF435822" begin="0" fromJunction="J0" toJunction="J3" end="10000" vehsPerHour="1292.8778166543718" departLane="free"/>
  <flow id="JF435823" begin="0" fromJunction="J3" toJunction="J0" end="10000" vehsPerHour="211.37507165118322" departLane="free"/>
  <flow id="JF435824" begin="0" fromJunction="J0" toJunction="J6" end="10000" vehsPerHour="76.03077071779636" departLane="free"/>
  <flow id="JF435825" begin="0" fromJunction="J0" toJunction="J7" end="10000" vehsPerHour="158.89593625549068" departLane="free"/>
  <flow id="JF435826" begin="0" fromJunction="J0" toJunction="J4" end="10000" vehsPerHour="384.1841191802052" departLane="free"/>
  <flow id="JF435827" begin="0" fromJunction="J0" toJunction="J5" end="10000" vehsPerHour="465.79485302689324" departLane="free"/>
  <flow id="JF435828" begin="0" fromJunction="J3" toJunction="J6" end="10000" vehsPerHour="352.91184680291065" departLane="free"/>
  <flow id="JF435829" begin="0" fromJunction="J3" toJunction="J7" end="10000" vehsPerHour="209.8481052859294" departLane="free"/>
  <flow id="JF435830" begin="0" fromJunction="J3" toJunction="J4" end="10000" vehsPerHour="220.90555927995328" departLane="free"/>
  <flow id="JF435831" begin="0" fromJunction="J3" toJunction="J5" end="10000" vehsPerHour="129.5848328507876" departLane="free"/>
  <flow id="JF435832" begin="0" fromJunction="J6" toJunction="J7" end="10000" vehsPerHour="19.36277895854932" departLane="free"/>
  <flow id="JF435833" begin="0" fromJunction="J6" toJunction="J4" end="10000" vehsPerHour="77.10953328227345" departLane="free"/>
  <flow id="JF435834" begin="0" fromJunction="J6" toJunction="J5" end="10000" vehsPerHour="72.61865580603651" departLane="free"/>
  <flow id="JF435835" begin="0" fromJunction="J7" toJunction="J6" end="10000" vehsPerHour="6.252812390591177" departLane="free"/>
  <flow id="JF435836" begin="0" fromJunction="J7" toJunction="J4" end="10000" vehsPerHour="64.55125904647527" departLane="free"/>
  <flow id="JF435837" begin="0" fromJunction="J7" toJunction="J5" end="10000" vehsPerHour="71.83836060674066" departLane="free"/>
  <flow id="JF435838" begin="0" fromJunction="J4" toJunction="J6" end="10000" vehsPerHour="112.9371323636043" departLane="free"/>
  <flow id="JF435839" begin="0" fromJunction="J4" toJunction="J7" end="10000" vehsPerHour="164.46278537062273" departLane="free"/>
  <flow id="JF435840" begin="0" fromJunction="J4" toJunction="J5" end="10000" vehsPerHour="131.95259310497244" departLane="free"/>
  <flow id="JF435841" begin="0" fromJunction="J5" toJunction="J6" end="10000" vehsPerHour="205.6022291572867" departLane="free"/>
  <flow id="JF435842" begin="0" fromJunction="J5" toJunction="J7" end="10000" vehsPerHour="164.21396842923048" departLane="free"/>
  <flow id="JF435843" begin="0" fromJunction="J5" toJunction="J4" end="10000" vehsPerHour="0.03417085908948199" departLane="free"/>
  <flow id="JF435844" begin="0" fromJunction="J6" toJunction="J0" end="10000" vehsPerHour="61.65403067174761" departLane="free"/>
  <flow id="JF435845" begin="0" fromJunction="J6" toJunction="J3" end="10000" vehsPerHour="98.69864654935614" departLane="free"/>
  <flow id="JF435846" begin="0" fromJunction="J7" toJunction="J0" end="10000" vehsPerHour="71.47606083995781" departLane="free"/>
  <flow id="JF435847" begin="0" fromJunction="J7" toJunction="J3" end="10000" vehsPerHour="106.31309619462547" departLane="free"/>
  <flow id="JF435848" begin="0" fromJunction="J4" toJunction="J0" end="10000" vehsPerHour="112.24207322615037" departLane="free"/>
  <flow id="JF435849" begin="0" fromJunction="J4" toJunction="J3" end="10000" vehsPerHour="50.93166995131931" departLane="free"/>
  <flow id="JF435850" begin="0" fromJunction="J5" toJunction="J0" end="10000" vehsPerHour="106.00815982137466" departLane="free"/>
  <flow id="JF435851" begin="0" fromJunction="J5" toJunction="J3" end="10000" vehsPerHour="34.95082579036219" departLane="free"/>
</routes>