<?xml version="1.0" encoding="UTF-8"?>
<routes xmlns:xsi="http://www.w3.org/2001/XMLSchema-instance" xsi:noNamespaceSchemaLocation="http://sumo.dlr.de/xsd/routes_file.xsd">
  <flow id="JF435852" begin="0" fromJunction="J0" toJunction="J3" end="10000" vehsPerHour="82.07430334185953" departLane="free"/>
  <flow id="JF435853" begin="0" fromJunction="J3" toJunction="J0" end="10000" vehsPerHour="181.90518891114627" departLane="free"/>
  <flow id="JF435854" begin="0" fromJunction="J0" toJunction="J6" end="10000" vehsPerHour="25.682819218819933" departLane="free"/>
  <flow id="JF435855" begin="0" fromJunction="J0" toJunction="J7" end="10000" vehsPerHour="543.1984556678638" departLane="free"/>
  <flow id="JF435856" begin="0" fromJunction="J0" toJunction="J4" end="10000" vehsPerHour="51.54987095576731" departLane="free"/>
  <flow id="JF435857" begin="0" fromJunction="J0" toJunction="J5" end="10000" vehsPerHour="269.85846300717253" departLane="free"/>
  <flow id="JF435858" begin="0" fromJunction="J3" toJunction="J6" end="10000" vehsPerHour="348.4925674131962" departLane="free"/>
  <flow id="JF435859" begin="0" fromJunction="J3" toJunction="J7" end="10000" vehsPerHour="303.9299974095379" departLane="free"/>
  <flow id="JF435860" begin="0" fromJunction="J3" toJunction="J4" end="10000" vehsPerHour="105.4111446559665" departLane="free"/>
  <flow id="JF435861" begin="0" fromJunction="J3" toJunction="J5" end="10000" vehsPerHour="500.4120810804274" departLane="free"/>
  <flow id="JF435862" begin="0" fromJunction="J6" toJunction="J7" end="10000" vehsPerHour="36.35979644689906" departLane="free"/>
  <flow id="JF435863" begin="0" fromJunction="J6" toJunction="J4" end="10000" vehsPerHour="110.6432833126107" departLane="free"/>
  <flow id="JF435864" begin="0" fromJunction="J6" toJunction="J5" end="10000" vehsPerHour="128.755817531187" departLane="free"/>
  <flow id="JF435865" begin="0" fromJunction="J7" toJunction="J6" end="10000" vehsPerHour="89.62447974836196" departLane="free"/>
  <flow id="JF435866" begin="0" fromJunction="J7" toJunction="J4" end="10000" vehsPerHour="4.431876258036158" departLane="free"/>
  <flow id="JF435867" begin="0" fromJunction="J7" toJunction="J5" end="10000" vehsPerHour="85.53874985977215" departLane="free"/>
  <flow id="JF435868" begin="0" fromJunction="J4" toJunction="J6" end="10000" vehsPerHour="66.78734748892496" departLane="free"/>
  <flow id="JF435869" begin="0" fromJunction="J4" toJunction="J7" end="10000" vehsPerHour="112.10874189935043" departLane="free"/>
  <flow id="JF435870" begin="0" fromJunction="J4" toJunction="J5" end="10000" vehsPerHour="34.60646384149965" departLane="free"/>
  <flow id="JF435871" begin="0" fromJunction="J5" toJunction="J6" end="10000" vehsPerHour="242.63398053910745" departLane="free"/>
  <flow id="JF435872" begin="0" fromJunction="J5" toJunction="J7" end="10000" vehsPerHour="175.64991390961853" departLane="free"/>
  <flow id="JF435873" begin="0" fromJunction="J5" toJunction="J4" end="10000" vehsPerHour="95.11770922846692" departLane="free"/>
  <flow id="JF435874" begin="0" fromJunction="J6" toJunction="J0" end="10000" vehsPerHour="57.24799489894028" departLane="free"/>
  <flow id="JF435875" begin="0" fromJunction="J6" toJunction="J3" end="10000" vehsPerHour="47.36203281845242" departLane="free"/>
  <flow id="JF435876" begin="0" fromJunction="J7" toJunction="J0" end="10000" vehsPerHour="86.35992931111045" departLane="free"/>
  <flow id="JF435877" begin="0" fromJunction="J7" toJunction="J3" end="10000" vehsPerHour="63.778801536727244" departLane="free"/>
  <flow id="JF435878" begin="0" fromJunction="J4" toJunction="J0" end="10000" vehsPerHour="126.8824588711884" departLane="free"/>
  <flow id="JF435879" begin="0" fromJunction="J4" toJunction="J3" end="10000" vehsPerHour="39.65652755751952" departLane="free"/>
  <flow id="JF435880" begin="0" fromJunction="J5" toJunction="J0" end="10000" vehsPerHour="20.11141863087708" departLane="free"/>
  <flow id="JF435881" begin="0" fromJunction="J5" toJunction="J3" end="10000" vehsPerHour="9.383548983589401" departLane="free"/>
</routes>