<?xml version="1.0" encoding="UTF-8"?>
<routes xmlns:xsi="http://www.w3.org/2001/XMLSchema-instance" xsi:noNamespaceSchemaLocation="http://sumo.dlr.de/xsd/routes_file.xsd">
  <flow id="JF76917" begin="0" fromJunction="J3" toJunction="J0" end="10000" vehsPerHour="446.47770686767876" departLane="free"/>
  <flow id="JF76918" begin="0" fromJunction="J0" toJunction="J3" end="10000" vehsPerHour="202.26004527480956" departLane="free"/>
  <flow id="JF76919" begin="0" fromJunction="J3" toJunction="J4" end="10000" vehsPerHour="135.3513676813539" departLane="free"/>
  <flow id="JF76920" begin="0" fromJunction="J3" toJunction="J6" end="10000" vehsPerHour="131.64159804439427" departLane="free"/>
  <flow id="JF76921" begin="0" fromJunction="J3" toJunction="J7" end="10000" vehsPerHour="94.2628104016699" departLane="free"/>
  <flow id="JF76922" begin="0" fromJunction="J3" toJunction="J5" end="10000" vehsPerHour="91.31124140198189" departLane="free"/>
  <flow id="JF76923" begin="0" fromJunction="J0" toJunction="J4" end="10000" vehsPerHour="114.00866799705051" departLane="free"/>
  <flow id="JF76924" begin="0" fromJunction="J0" toJunction="J6" end="10000" vehsPerHour="115.47388307340124" departLane="free"/>
  <flow id="JF76925" begin="0" fromJunction="J0" toJunction="J7" end="10000" vehsPerHour="12.51809246593948" departLane="free"/>
  <flow id="JF76926" begin="0" fromJunction="J0" toJunction="J5" end="10000" vehsPerHour="124.06122600586583" departLane="free"/>
  <flow id="JF76927" begin="0" fromJunction="J4" toJunction="J6" end="10000" vehsPerHour="27.890987521681968" departLane="free"/>
  <flow id="JF76928" begin="0" fromJunction="J4" toJunction="J7" end="10000" vehsPerHour="15.358810656537166" departLane="free"/>
  <flow id="JF76929" begin="0" fromJunction="J4" toJunction="J5" end="10000" vehsPerHour="30.06525021607158" departLane="free"/>
  <flow id="JF76930" begin="0" fromJunction="J6" toJunction="J4" end="10000" vehsPerHour="33.07851963199471" departLane="free"/>
  <flow id="JF76931" begin="0" fromJunction="J6" toJunction="J7" end="10000" vehsPerHour="35.83487428005939" departLane="free"/>
  <flow id="JF76932" begin="0" fromJunction="J6" toJunction="J5" end="10000" vehsPerHour="25.143634517178615" departLane="free"/>
  <flow id="JF76933" begin="0" fromJunction="J7" toJunction="J4" end="10000" vehsPerHour="25.438705417627574" departLane="free"/>
  <flow id="JF76934" begin="0" fromJunction="J7" toJunction="J6" end="10000" vehsPerHour="3.180986862197237" departLane="free"/>
  <flow id="JF76935" begin="0" fromJunction="J7" toJunction="J5" end="10000" vehsPerHour="8.971541639153749" departLane="free"/>
  <flow id="JF76936" begin="0" fromJunction="J5" toJunction="J4" end="10000" vehsPerHour="10.026471315619489" departLane="free"/>
  <flow id="JF76937" begin="0" fromJunction="J5" toJunction="J6" end="10000" vehsPerHour="24.542936921749256" departLane="free"/>
  <flow id="JF76938" begin="0" fromJunction="J5" toJunction="J7" end="10000" vehsPerHour="8.687360040572615" departLane="free"/>
  <flow id="JF76939" begin="0" fromJunction="J4" toJunction="J3" end="10000" vehsPerHour="28.906477768263876" departLane="free"/>
  <flow id="JF76940" begin="0" fromJunction="J4" toJunction="J0" end="10000" vehsPerHour="31.05858734005575" departLane="free"/>
  <flow id="JF76941" begin="0" fromJunction="J6" toJunction="J3" end="10000" vehsPerHour="28.77899856885979" departLane="free"/>
  <flow id="JF76942" begin="0" fromJunction="J6" toJunction="J0" end="10000" vehsPerHour="11.901563159861558" departLane="free"/>
  <flow id="JF76943" begin="0" fromJunction="J7" toJunction="J3" end="10000" vehsPerHour="5.635770093879036" departLane="free"/>
  <flow id="JF76944" begin="0" fromJunction="J7" toJunction="J0" end="10000" vehsPerHour="28.17630623901965" departLane="free"/>
  <flow id="JF76945" begin="0" fromJunction="J5" toJunction="J3" end="10000" vehsPerHour="23.483147101527404" departLane="free"/>
  <flow id="JF76946" begin="0" fromJunction="J5" toJunction="J0" end="10000" vehsPerHour="13.698550953049711" departLane="free"/>
</routes>