<?xml version="1.0" encoding="UTF-8"?>
<routes xmlns:xsi="http://www.w3.org/2001/XMLSchema-instance" xsi:noNamespaceSchemaLocation="http://sumo.dlr.de/xsd/routes_file.xsd">
  <flow id="JF62101" begin="0" fromJunction="J3" toJunction="J0" end="60" vehsPerHour="477.9825695063666" departLane="free"/>
  <flow id="JF62102" begin="0" fromJunction="J0" toJunction="J3" end="60" vehsPerHour="21.667695478357675" departLane="free"/>
  <flow id="JF62103" begin="0" fromJunction="J3" toJunction="J6" end="60" vehsPerHour="33.59787315393735" departLane="free"/>
  <flow id="JF62104" begin="0" fromJunction="J3" toJunction="J7" end="60" vehsPerHour="41.92942841935054" departLane="free"/>
  <flow id="JF62105" begin="0" fromJunction="J3" toJunction="J5" end="60" vehsPerHour="55.65105135520404" departLane="free"/>
  <flow id="JF62106" begin="0" fromJunction="J3" toJunction="J4" end="60" vehsPerHour="31.596092077041906" departLane="free"/>
  <flow id="JF62107" begin="0" fromJunction="J0" toJunction="J6" end="60" vehsPerHour="39.1478856373066" departLane="free"/>
  <flow id="JF62108" begin="0" fromJunction="J0" toJunction="J7" end="60" vehsPerHour="40.117496697321606" departLane="free"/>
  <flow id="JF62109" begin="0" fromJunction="J0" toJunction="J5" end="60" vehsPerHour="16.6872612373691" departLane="free"/>
  <flow id="JF62110" begin="0" fromJunction="J0" toJunction="J4" end="60" vehsPerHour="34.623425894079375" departLane="free"/>
  <flow id="JF62111" begin="0" fromJunction="J6" toJunction="J7" end="60" vehsPerHour="2.1016815467443095" departLane="free"/>
  <flow id="JF62112" begin="0" fromJunction="J6" toJunction="J5" end="60" vehsPerHour="62.740419350594244" departLane="free"/>
  <flow id="JF62113" begin="0" fromJunction="J6" toJunction="J4" end="60" vehsPerHour="24.118727312316846" departLane="free"/>
  <flow id="JF62114" begin="0" fromJunction="J7" toJunction="J6" end="60" vehsPerHour="1.4577826321603322" departLane="free"/>
  <flow id="JF62115" begin="0" fromJunction="J7" toJunction="J5" end="60" vehsPerHour="4.335572492898454" departLane="free"/>
  <flow id="JF62116" begin="0" fromJunction="J7" toJunction="J4" end="60" vehsPerHour="43.48305078331487" departLane="free"/>
  <flow id="JF62117" begin="0" fromJunction="J5" toJunction="J6" end="60" vehsPerHour="3.042027687998759" departLane="free"/>
  <flow id="JF62118" begin="0" fromJunction="J5" toJunction="J7" end="60" vehsPerHour="34.028061581633196" departLane="free"/>
  <flow id="JF62119" begin="0" fromJunction="J5" toJunction="J4" end="60" vehsPerHour="46.29255279484052" departLane="free"/>
  <flow id="JF62120" begin="0" fromJunction="J4" toJunction="J6" end="60" vehsPerHour="21.453303894495605" departLane="free"/>
  <flow id="JF62121" begin="0" fromJunction="J4" toJunction="J7" end="60" vehsPerHour="12.266110059928105" departLane="free"/>
  <flow id="JF62122" begin="0" fromJunction="J4" toJunction="J5" end="60" vehsPerHour="8.806480643259336" departLane="free"/>
  <flow id="JF62123" begin="0" fromJunction="J6" toJunction="J3" end="60" vehsPerHour="68.04298712460222" departLane="free"/>
  <flow id="JF62124" begin="0" fromJunction="J6" toJunction="J0" end="60" vehsPerHour="65.76465206940325" departLane="free"/>
  <flow id="JF62125" begin="0" fromJunction="J7" toJunction="J3" end="60" vehsPerHour="27.869489334183626" departLane="free"/>
  <flow id="JF62126" begin="0" fromJunction="J7" toJunction="J0" end="60" vehsPerHour="24.2501655325958" departLane="free"/>
  <flow id="JF62127" begin="0" fromJunction="J5" toJunction="J3" end="60" vehsPerHour="64.04241877158708" departLane="free"/>
  <flow id="JF62128" begin="0" fromJunction="J5" toJunction="J0" end="60" vehsPerHour="6.072162561732962" departLane="free"/>
  <flow id="JF62129" begin="0" fromJunction="J4" toJunction="J3" end="60" vehsPerHour="16.22008141356822" departLane="free"/>
  <flow id="JF62130" begin="0" fromJunction="J4" toJunction="J0" end="60" vehsPerHour="60.2186932274133" departLane="free"/>
  <flow id="JF62131" begin="60" fromJunction="J3" toJunction="J0" end="120" vehsPerHour="328.9344149071467" departLane="free"/>
  <flow id="JF62132" begin="60" fromJunction="J0" toJunction="J3" end="120" vehsPerHour="252.26479405151355" departLane="free"/>
  <flow id="JF62133" begin="60" fromJunction="J3" toJunction="J6" end="120" vehsPerHour="3.6798923927076204" departLane="free"/>
  <flow id="JF62134" begin="60" fromJunction="J3" toJunction="J7" end="120" vehsPerHour="35.9567018920364" departLane="free"/>
  <flow id="JF62135" begin="60" fromJunction="J3" toJunction="J5" end="120" vehsPerHour="4.3000485278280705" departLane="free"/>
  <flow id="JF62136" begin="60" fromJunction="J3" toJunction="J4" end="120" vehsPerHour="33.96503526542519" departLane="free"/>
  <flow id="JF62137" begin="60" fromJunction="J0" toJunction="J6" end="120" vehsPerHour="14.678508103324937" departLane="free"/>
  <flow id="JF62138" begin="60" fromJunction="J0" toJunction="J7" end="120" vehsPerHour="59.92688999247861" departLane="free"/>
  <flow id="JF62139" begin="60" fromJunction="J0" toJunction="J5" end="120" vehsPerHour="8.219835824084699" departLane="free"/>
  <flow id="JF62140" begin="60" fromJunction="J0" toJunction="J4" end="120" vehsPerHour="13.480441355867345" departLane="free"/>
  <flow id="JF62141" begin="60" fromJunction="J6" toJunction="J7" end="120" vehsPerHour="10.835875722844753" departLane="free"/>
  <flow id="JF62142" begin="60" fromJunction="J6" toJunction="J5" end="120" vehsPerHour="38.97625213172873" departLane="free"/>
  <flow id="JF62143" begin="60" fromJunction="J6" toJunction="J4" end="120" vehsPerHour="34.34531349250254" departLane="free"/>
  <flow id="JF62144" begin="60" fromJunction="J7" toJunction="J6" end="120" vehsPerHour="55.47770690165058" departLane="free"/>
  <flow id="JF62145" begin="60" fromJunction="J7" toJunction="J5" end="120" vehsPerHour="7.603845733079332" departLane="free"/>
  <flow id="JF62146" begin="60" fromJunction="J7" toJunction="J4" end="120" vehsPerHour="64.81909227287541" departLane="free"/>
  <flow id="JF62147" begin="60" fromJunction="J5" toJunction="J6" end="120" vehsPerHour="15.333050725209677" departLane="free"/>
  <flow id="JF62148" begin="60" fromJunction="J5" toJunction="J7" end="120" vehsPerHour="32.23213979147892" departLane="free"/>
  <flow id="JF62149" begin="60" fromJunction="J5" toJunction="J4" end="120" vehsPerHour="21.09658722221423" departLane="free"/>
  <flow id="JF62150" begin="60" fromJunction="J4" toJunction="J6" end="120" vehsPerHour="31.302802568058045" departLane="free"/>
  <flow id="JF62151" begin="60" fromJunction="J4" toJunction="J7" end="120" vehsPerHour="0.7453041840317106" departLane="free"/>
  <flow id="JF62152" begin="60" fromJunction="J4" toJunction="J5" end="120" vehsPerHour="0.9527151706316745" departLane="free"/>
  <flow id="JF62153" begin="60" fromJunction="J6" toJunction="J3" end="120" vehsPerHour="62.219520451556605" departLane="free"/>
  <flow id="JF62154" begin="60" fromJunction="J6" toJunction="J0" end="120" vehsPerHour="40.23555135797606" departLane="free"/>
  <flow id="JF62155" begin="60" fromJunction="J7" toJunction="J3" end="120" vehsPerHour="9.712736272428545" departLane="free"/>
  <flow id="JF62156" begin="60" fromJunction="J7" toJunction="J0" end="120" vehsPerHour="42.29610796615303" departLane="free"/>
  <flow id="JF62157" begin="60" fromJunction="J5" toJunction="J3" end="120" vehsPerHour="34.88712381743765" departLane="free"/>
  <flow id="JF62158" begin="60" fromJunction="J5" toJunction="J0" end="120" vehsPerHour="14.474000865738384" departLane="free"/>
  <flow id="JF62159" begin="60" fromJunction="J4" toJunction="J3" end="120" vehsPerHour="37.255581270203145" departLane="free"/>
  <flow id="JF62160" begin="60" fromJunction="J4" toJunction="J0" end="120" vehsPerHour="21.21600439664122" departLane="free"/>
  <flow id="JF62161" begin="120" fromJunction="J3" toJunction="J0" end="180" vehsPerHour="242.64045120345523" departLane="free"/>
  <flow id="JF62162" begin="120" fromJunction="J0" toJunction="J3" end="180" vehsPerHour="168.96477206194749" departLane="free"/>
  <flow id="JF62163" begin="120" fromJunction="J3" toJunction="J6" end="180" vehsPerHour="26.986302271621668" departLane="free"/>
  <flow id="JF62164" begin="120" fromJunction="J3" toJunction="J7" end="180" vehsPerHour="4.422760660291402" departLane="free"/>
  <flow id="JF62165" begin="120" fromJunction="J3" toJunction="J5" end="180" vehsPerHour="31.24991985899122" departLane="free"/>
  <flow id="JF62166" begin="120" fromJunction="J3" toJunction="J4" end="180" vehsPerHour="61.7129419365116" departLane="free"/>
  <flow id="JF62167" begin="120" fromJunction="J0" toJunction="J6" end="180" vehsPerHour="47.651592943557496" departLane="free"/>
  <flow id="JF62168" begin="120" fromJunction="J0" toJunction="J7" end="180" vehsPerHour="27.705005082066474" departLane="free"/>
  <flow id="JF62169" begin="120" fromJunction="J0" toJunction="J5" end="180" vehsPerHour="67.11155037665968" departLane="free"/>
  <flow id="JF62170" begin="120" fromJunction="J0" toJunction="J4" end="180" vehsPerHour="13.190053352383003" departLane="free"/>
  <flow id="JF62171" begin="120" fromJunction="J6" toJunction="J7" end="180" vehsPerHour="14.965350459914557" departLane="free"/>
  <flow id="JF62172" begin="120" fromJunction="J6" toJunction="J5" end="180" vehsPerHour="11.994280482021109" departLane="free"/>
  <flow id="JF62173" begin="120" fromJunction="J6" toJunction="J4" end="180" vehsPerHour="44.27813902309476" departLane="free"/>
  <flow id="JF62174" begin="120" fromJunction="J7" toJunction="J6" end="180" vehsPerHour="45.89364583299008" departLane="free"/>
  <flow id="JF62175" begin="120" fromJunction="J7" toJunction="J5" end="180" vehsPerHour="16.6864759326771" departLane="free"/>
  <flow id="JF62176" begin="120" fromJunction="J7" toJunction="J4" end="180" vehsPerHour="42.17233749499256" departLane="free"/>
  <flow id="JF62177" begin="120" fromJunction="J5" toJunction="J6" end="180" vehsPerHour="30.088933267616323" departLane="free"/>
  <flow id="JF62178" begin="120" fromJunction="J5" toJunction="J7" end="180" vehsPerHour="25.98740516890481" departLane="free"/>
  <flow id="JF62179" begin="120" fromJunction="J5" toJunction="J4" end="180" vehsPerHour="28.513313782688634" departLane="free"/>
  <flow id="JF62180" begin="120" fromJunction="J4" toJunction="J6" end="180" vehsPerHour="28.75860644884009" departLane="free"/>
  <flow id="JF62181" begin="120" fromJunction="J4" toJunction="J7" end="180" vehsPerHour="31.631911175676073" departLane="free"/>
  <flow id="JF62182" begin="120" fromJunction="J4" toJunction="J5" end="180" vehsPerHour="28.52590901640968" departLane="free"/>
  <flow id="JF62183" begin="120" fromJunction="J6" toJunction="J3" end="180" vehsPerHour="15.831129465003029" departLane="free"/>
  <flow id="JF62184" begin="120" fromJunction="J6" toJunction="J0" end="180" vehsPerHour="57.0475319386786" departLane="free"/>
  <flow id="JF62185" begin="120" fromJunction="J7" toJunction="J3" end="180" vehsPerHour="15.862031155258158" departLane="free"/>
  <flow id="JF62186" begin="120" fromJunction="J7" toJunction="J0" end="180" vehsPerHour="22.97122895234417" departLane="free"/>
  <flow id="JF62187" begin="120" fromJunction="J5" toJunction="J3" end="180" vehsPerHour="10.993887234605742" departLane="free"/>
  <flow id="JF62188" begin="120" fromJunction="J5" toJunction="J0" end="180" vehsPerHour="49.084950016360004" departLane="free"/>
  <flow id="JF62189" begin="120" fromJunction="J4" toJunction="J3" end="180" vehsPerHour="9.351086867905169" departLane="free"/>
  <flow id="JF62190" begin="120" fromJunction="J4" toJunction="J0" end="180" vehsPerHour="36.871696289164625" departLane="free"/>
  <flow id="JF62191" begin="180" fromJunction="J3" toJunction="J0" end="240" vehsPerHour="339.42512587081364" departLane="free"/>
  <flow id="JF62192" begin="180" fromJunction="J0" toJunction="J3" end="240" vehsPerHour="41.359487121601596" departLane="free"/>
  <flow id="JF62193" begin="180" fromJunction="J3" toJunction="J6" end="240" vehsPerHour="16.511663534194543" departLane="free"/>
  <flow id="JF62194" begin="180" fromJunction="J3" toJunction="J7" end="240" vehsPerHour="59.127623564500865" departLane="free"/>
  <flow id="JF62195" begin="180" fromJunction="J3" toJunction="J5" end="240" vehsPerHour="22.412291847594197" departLane="free"/>
  <flow id="JF62196" begin="180" fromJunction="J3" toJunction="J4" end="240" vehsPerHour="36.57523316997817" departLane="free"/>
  <flow id="JF62197" begin="180" fromJunction="J0" toJunction="J6" end="240" vehsPerHour="50.990573449818754" departLane="free"/>
  <flow id="JF62198" begin="180" fromJunction="J0" toJunction="J7" end="240" vehsPerHour="24.634169741327298" departLane="free"/>
  <flow id="JF62199" begin="180" fromJunction="J0" toJunction="J5" end="240" vehsPerHour="15.592984782167418" departLane="free"/>
  <flow id="JF62200" begin="180" fromJunction="J0" toJunction="J4" end="240" vehsPerHour="28.41109673639127" departLane="free"/>
  <flow id="JF62201" begin="180" fromJunction="J6" toJunction="J7" end="240" vehsPerHour="19.867379210011656" departLane="free"/>
  <flow id="JF62202" begin="180" fromJunction="J6" toJunction="J5" end="240" vehsPerHour="20.09214932162529" departLane="free"/>
  <flow id="JF62203" begin="180" fromJunction="J6" toJunction="J4" end="240" vehsPerHour="55.61201427834155" departLane="free"/>
  <flow id="JF62204" begin="180" fromJunction="J7" toJunction="J6" end="240" vehsPerHour="25.684472693383572" departLane="free"/>
  <flow id="JF62205" begin="180" fromJunction="J7" toJunction="J5" end="240" vehsPerHour="44.54321580859088" departLane="free"/>
  <flow id="JF62206" begin="180" fromJunction="J7" toJunction="J4" end="240" vehsPerHour="63.292331889203226" departLane="free"/>
  <flow id="JF62207" begin="180" fromJunction="J5" toJunction="J6" end="240" vehsPerHour="13.190375974720276" departLane="free"/>
  <flow id="JF62208" begin="180" fromJunction="J5" toJunction="J7" end="240" vehsPerHour="27.27663242175026" departLane="free"/>
  <flow id="JF62209" begin="180" fromJunction="J5" toJunction="J4" end="240" vehsPerHour="68.14625133292945" departLane="free"/>
  <flow id="JF62210" begin="180" fromJunction="J4" toJunction="J6" end="240" vehsPerHour="11.186368022897955" departLane="free"/>
  <flow id="JF62211" begin="180" fromJunction="J4" toJunction="J7" end="240" vehsPerHour="2.397189144881775" departLane="free"/>
  <flow id="JF62212" begin="180" fromJunction="J4" toJunction="J5" end="240" vehsPerHour="28.49663709620993" departLane="free"/>
  <flow id="JF62213" begin="180" fromJunction="J6" toJunction="J3" end="240" vehsPerHour="10.758557664169508" departLane="free"/>
  <flow id="JF62214" begin="180" fromJunction="J6" toJunction="J0" end="240" vehsPerHour="37.311037800972024" departLane="free"/>
  <flow id="JF62215" begin="180" fromJunction="J7" toJunction="J3" end="240" vehsPerHour="24.676233935107195" departLane="free"/>
  <flow id="JF62216" begin="180" fromJunction="J7" toJunction="J0" end="240" vehsPerHour="51.412362884322654" departLane="free"/>
  <flow id="JF62217" begin="180" fromJunction="J5" toJunction="J3" end="240" vehsPerHour="31.607151029665108" departLane="free"/>
  <flow id="JF62218" begin="180" fromJunction="J5" toJunction="J0" end="240" vehsPerHour="52.061311677561534" departLane="free"/>
  <flow id="JF62219" begin="180" fromJunction="J4" toJunction="J3" end="240" vehsPerHour="0.5011061001566763" departLane="free"/>
  <flow id="JF62220" begin="180" fromJunction="J4" toJunction="J0" end="240" vehsPerHour="65.28913772885893" departLane="free"/>
  <flow id="JF62221" begin="240" fromJunction="J3" toJunction="J0" end="300" vehsPerHour="454.7075020228067" departLane="free"/>
  <flow id="JF62222" begin="240" fromJunction="J0" toJunction="J3" end="300" vehsPerHour="51.12950685212877" departLane="free"/>
  <flow id="JF62223" begin="240" fromJunction="J3" toJunction="J6" end="300" vehsPerHour="41.846839467617755" departLane="free"/>
  <flow id="JF62224" begin="240" fromJunction="J3" toJunction="J7" end="300" vehsPerHour="20.791516906523366" departLane="free"/>
  <flow id="JF62225" begin="240" fromJunction="J3" toJunction="J5" end="300" vehsPerHour="31.20829794097128" departLane="free"/>
  <flow id="JF62226" begin="240" fromJunction="J3" toJunction="J4" end="300" vehsPerHour="0.8662113950147132" departLane="free"/>
  <flow id="JF62227" begin="240" fromJunction="J0" toJunction="J6" end="300" vehsPerHour="29.178699454837826" departLane="free"/>
  <flow id="JF62228" begin="240" fromJunction="J0" toJunction="J7" end="300" vehsPerHour="1.0238805454799886" departLane="free"/>
  <flow id="JF62229" begin="240" fromJunction="J0" toJunction="J5" end="300" vehsPerHour="25.768476796814866" departLane="free"/>
  <flow id="JF62230" begin="240" fromJunction="J0" toJunction="J4" end="300" vehsPerHour="68.06034470727992" departLane="free"/>
  <flow id="JF62231" begin="240" fromJunction="J6" toJunction="J7" end="300" vehsPerHour="11.070365140697563" departLane="free"/>
  <flow id="JF62232" begin="240" fromJunction="J6" toJunction="J5" end="300" vehsPerHour="49.669585314082205" departLane="free"/>
  <flow id="JF62233" begin="240" fromJunction="J6" toJunction="J4" end="300" vehsPerHour="8.443114319444922" departLane="free"/>
  <flow id="JF62234" begin="240" fromJunction="J7" toJunction="J6" end="300" vehsPerHour="25.87793599431268" departLane="free"/>
  <flow id="JF62235" begin="240" fromJunction="J7" toJunction="J5" end="300" vehsPerHour="63.009765603574145" departLane="free"/>
  <flow id="JF62236" begin="240" fromJunction="J7" toJunction="J4" end="300" vehsPerHour="56.88295127753629" departLane="free"/>
  <flow id="JF62237" begin="240" fromJunction="J5" toJunction="J6" end="300" vehsPerHour="3.486719164421067" departLane="free"/>
  <flow id="JF62238" begin="240" fromJunction="J5" toJunction="J7" end="300" vehsPerHour="14.783780575832886" departLane="free"/>
  <flow id="JF62239" begin="240" fromJunction="J5" toJunction="J4" end="300" vehsPerHour="27.192160661864772" departLane="free"/>
  <flow id="JF62240" begin="240" fromJunction="J4" toJunction="J6" end="300" vehsPerHour="13.505606387492215" departLane="free"/>
  <flow id="JF62241" begin="240" fromJunction="J4" toJunction="J7" end="300" vehsPerHour="20.078855797396667" departLane="free"/>
  <flow id="JF62242" begin="240" fromJunction="J4" toJunction="J5" end="300" vehsPerHour="21.874064908279667" departLane="free"/>
  <flow id="JF62243" begin="240" fromJunction="J6" toJunction="J3" end="300" vehsPerHour="31.94445446015144" departLane="free"/>
  <flow id="JF62244" begin="240" fromJunction="J6" toJunction="J0" end="300" vehsPerHour="16.159437210502936" departLane="free"/>
  <flow id="JF62245" begin="240" fromJunction="J7" toJunction="J3" end="300" vehsPerHour="67.24123368167007" departLane="free"/>
  <flow id="JF62246" begin="240" fromJunction="J7" toJunction="J0" end="300" vehsPerHour="58.91907285917552" departLane="free"/>
  <flow id="JF62247" begin="240" fromJunction="J5" toJunction="J3" end="300" vehsPerHour="46.311754629496264" departLane="free"/>
  <flow id="JF62248" begin="240" fromJunction="J5" toJunction="J0" end="300" vehsPerHour="24.454057374707844" departLane="free"/>
  <flow id="JF62249" begin="240" fromJunction="J4" toJunction="J3" end="300" vehsPerHour="22.965197517058396" departLane="free"/>
  <flow id="JF62250" begin="240" fromJunction="J4" toJunction="J0" end="300" vehsPerHour="29.825468106953892" departLane="free"/>
  <flow id="JF62251" begin="300" fromJunction="J3" toJunction="J0" end="360" vehsPerHour="204.0172700590228" departLane="free"/>
  <flow id="JF62252" begin="300" fromJunction="J0" toJunction="J3" end="360" vehsPerHour="141.27545837609384" departLane="free"/>
  <flow id="JF62253" begin="300" fromJunction="J3" toJunction="J6" end="360" vehsPerHour="130.35053843885945" departLane="free"/>
  <flow id="JF62254" begin="300" fromJunction="J3" toJunction="J7" end="360" vehsPerHour="103.87767958452147" departLane="free"/>
  <flow id="JF62255" begin="300" fromJunction="J3" toJunction="J5" end="360" vehsPerHour="97.48177935470034" departLane="free"/>
  <flow id="JF62256" begin="300" fromJunction="J3" toJunction="J4" end="360" vehsPerHour="113.99738506949058" departLane="free"/>
  <flow id="JF62257" begin="300" fromJunction="J0" toJunction="J6" end="360" vehsPerHour="23.784431798745835" departLane="free"/>
  <flow id="JF62258" begin="300" fromJunction="J0" toJunction="J7" end="360" vehsPerHour="80.82414343104388" departLane="free"/>
  <flow id="JF62259" begin="300" fromJunction="J0" toJunction="J5" end="360" vehsPerHour="80.02874528655413" departLane="free"/>
  <flow id="JF62260" begin="300" fromJunction="J0" toJunction="J4" end="360" vehsPerHour="16.84977255009155" departLane="free"/>
  <flow id="JF62261" begin="360" fromJunction="J3" toJunction="J0" end="420" vehsPerHour="341.32294031720284" departLane="free"/>
  <flow id="JF62262" begin="360" fromJunction="J0" toJunction="J3" end="420" vehsPerHour="210.80526697227916" departLane="free"/>
  <flow id="JF62263" begin="360" fromJunction="J3" toJunction="J6" end="420" vehsPerHour="42.32050972333491" departLane="free"/>
  <flow id="JF62264" begin="360" fromJunction="J3" toJunction="J7" end="420" vehsPerHour="15.073722997581328" departLane="free"/>
  <flow id="JF62265" begin="360" fromJunction="J3" toJunction="J5" end="420" vehsPerHour="56.50754691095894" departLane="free"/>
  <flow id="JF62266" begin="360" fromJunction="J3" toJunction="J4" end="420" vehsPerHour="13.988988745479668" departLane="free"/>
  <flow id="JF62267" begin="360" fromJunction="J0" toJunction="J6" end="420" vehsPerHour="47.40774533804734" departLane="free"/>
  <flow id="JF62268" begin="360" fromJunction="J0" toJunction="J7" end="420" vehsPerHour="43.48773515294961" departLane="free"/>
  <flow id="JF62269" begin="360" fromJunction="J0" toJunction="J5" end="420" vehsPerHour="63.71539820093492" departLane="free"/>
  <flow id="JF62270" begin="360" fromJunction="J0" toJunction="J4" end="420" vehsPerHour="53.230203974011516" departLane="free"/>
  <flow id="JF62271" begin="360" fromJunction="J6" toJunction="J7" end="420" vehsPerHour="23.185722218452323" departLane="free"/>
  <flow id="JF62272" begin="360" fromJunction="J6" toJunction="J5" end="420" vehsPerHour="32.7462556236572" departLane="free"/>
  <flow id="JF62273" begin="360" fromJunction="J6" toJunction="J4" end="420" vehsPerHour="28.65452098464508" departLane="free"/>
  <flow id="JF62274" begin="360" fromJunction="J7" toJunction="J6" end="420" vehsPerHour="4.522819651154805" departLane="free"/>
  <flow id="JF62275" begin="360" fromJunction="J7" toJunction="J5" end="420" vehsPerHour="0.5100748105990446" departLane="free"/>
  <flow id="JF62276" begin="360" fromJunction="J7" toJunction="J4" end="420" vehsPerHour="62.177690009897" departLane="free"/>
  <flow id="JF62277" begin="360" fromJunction="J5" toJunction="J6" end="420" vehsPerHour="16.622607369831922" departLane="free"/>
  <flow id="JF62278" begin="360" fromJunction="J5" toJunction="J7" end="420" vehsPerHour="20.659234307121814" departLane="free"/>
  <flow id="JF62279" begin="360" fromJunction="J5" toJunction="J4" end="420" vehsPerHour="39.39343686472352" departLane="free"/>
  <flow id="JF62280" begin="360" fromJunction="J4" toJunction="J6" end="420" vehsPerHour="30.620005968574727" departLane="free"/>
  <flow id="JF62281" begin="360" fromJunction="J4" toJunction="J7" end="420" vehsPerHour="12.005867166040991" departLane="free"/>
  <flow id="JF62282" begin="360" fromJunction="J4" toJunction="J5" end="420" vehsPerHour="29.534374701306003" departLane="free"/>
  <flow id="JF62283" begin="360" fromJunction="J6" toJunction="J3" end="420" vehsPerHour="10.332594418295296" departLane="free"/>
  <flow id="JF62284" begin="360" fromJunction="J6" toJunction="J0" end="420" vehsPerHour="46.10281245527593" departLane="free"/>
  <flow id="JF62285" begin="360" fromJunction="J7" toJunction="J3" end="420" vehsPerHour="37.496243611071364" departLane="free"/>
  <flow id="JF62286" begin="360" fromJunction="J7" toJunction="J0" end="420" vehsPerHour="16.229611171166397" departLane="free"/>
  <flow id="JF62287" begin="360" fromJunction="J5" toJunction="J3" end="420" vehsPerHour="44.16958695246755" departLane="free"/>
  <flow id="JF62288" begin="360" fromJunction="J5" toJunction="J0" end="420" vehsPerHour="0.623367700663413" departLane="free"/>
  <flow id="JF62289" begin="360" fromJunction="J4" toJunction="J3" end="420" vehsPerHour="62.70589332025823" departLane="free"/>
  <flow id="JF62290" begin="360" fromJunction="J4" toJunction="J0" end="420" vehsPerHour="40.145059009664855" departLane="free"/>
  <flow id="JF62291" begin="420" fromJunction="J3" toJunction="J0" end="480" vehsPerHour="83.16366435043828" departLane="free"/>
  <flow id="JF62292" begin="420" fromJunction="J0" toJunction="J3" end="480" vehsPerHour="193.526450432151" departLane="free"/>
  <flow id="JF62293" begin="420" fromJunction="J3" toJunction="J6" end="480" vehsPerHour="58.22243722062563" departLane="free"/>
  <flow id="JF62294" begin="420" fromJunction="J3" toJunction="J7" end="480" vehsPerHour="62.54005361227818" departLane="free"/>
  <flow id="JF62295" begin="420" fromJunction="J3" toJunction="J5" end="480" vehsPerHour="28.639190719081885" departLane="free"/>
  <flow id="JF62296" begin="420" fromJunction="J3" toJunction="J4" end="480" vehsPerHour="42.747274879230105" departLane="free"/>
  <flow id="JF62297" begin="420" fromJunction="J0" toJunction="J6" end="480" vehsPerHour="44.96046416231139" departLane="free"/>
  <flow id="JF62298" begin="420" fromJunction="J0" toJunction="J7" end="480" vehsPerHour="17.887037534754185" departLane="free"/>
  <flow id="JF62299" begin="420" fromJunction="J0" toJunction="J5" end="480" vehsPerHour="26.860175822770312" departLane="free"/>
  <flow id="JF62300" begin="420" fromJunction="J0" toJunction="J4" end="480" vehsPerHour="39.390077939976" departLane="free"/>
  <flow id="JF62301" begin="420" fromJunction="J6" toJunction="J7" end="480" vehsPerHour="31.19687978561489" departLane="free"/>
  <flow id="JF62302" begin="420" fromJunction="J6" toJunction="J5" end="480" vehsPerHour="31.723510863684318" departLane="free"/>
  <flow id="JF62303" begin="420" fromJunction="J6" toJunction="J4" end="480" vehsPerHour="30.284916810077565" departLane="free"/>
  <flow id="JF62304" begin="420" fromJunction="J7" toJunction="J6" end="480" vehsPerHour="25.1804803723371" departLane="free"/>
  <flow id="JF62305" begin="420" fromJunction="J7" toJunction="J5" end="480" vehsPerHour="8.394665307811852" departLane="free"/>
  <flow id="JF62306" begin="420" fromJunction="J7" toJunction="J4" end="480" vehsPerHour="53.084809688414055" departLane="free"/>
  <flow id="JF62307" begin="420" fromJunction="J5" toJunction="J6" end="480" vehsPerHour="17.894321193738442" departLane="free"/>
  <flow id="JF62308" begin="420" fromJunction="J5" toJunction="J7" end="480" vehsPerHour="30.536829156506933" departLane="free"/>
  <flow id="JF62309" begin="420" fromJunction="J5" toJunction="J4" end="480" vehsPerHour="18.798218120814557" departLane="free"/>
  <flow id="JF62310" begin="420" fromJunction="J4" toJunction="J6" end="480" vehsPerHour="14.309474805037167" departLane="free"/>
  <flow id="JF62311" begin="420" fromJunction="J4" toJunction="J7" end="480" vehsPerHour="24.225722802077634" departLane="free"/>
  <flow id="JF62312" begin="420" fromJunction="J4" toJunction="J5" end="480" vehsPerHour="18.692134915887245" departLane="free"/>
  <flow id="JF62313" begin="420" fromJunction="J6" toJunction="J3" end="480" vehsPerHour="33.96018228617882" departLane="free"/>
  <flow id="JF62314" begin="420" fromJunction="J6" toJunction="J0" end="480" vehsPerHour="21.60820860852198" departLane="free"/>
  <flow id="JF62315" begin="420" fromJunction="J7" toJunction="J3" end="480" vehsPerHour="20.544385846509734" departLane="free"/>
  <flow id="JF62316" begin="420" fromJunction="J7" toJunction="J0" end="480" vehsPerHour="19.142746932839025" departLane="free"/>
  <flow id="JF62317" begin="420" fromJunction="J5" toJunction="J3" end="480" vehsPerHour="53.62302100106029" departLane="free"/>
  <flow id="JF62318" begin="420" fromJunction="J5" toJunction="J0" end="480" vehsPerHour="62.58692256972768" departLane="free"/>
  <flow id="JF62319" begin="420" fromJunction="J4" toJunction="J3" end="480" vehsPerHour="40.28258295615823" departLane="free"/>
  <flow id="JF62320" begin="420" fromJunction="J4" toJunction="J0" end="480" vehsPerHour="53.395179316960196" departLane="free"/>
  <flow id="JF62321" begin="480" fromJunction="J3" toJunction="J0" end="540" vehsPerHour="257.2440343703693" departLane="free"/>
  <flow id="JF62322" begin="480" fromJunction="J0" toJunction="J3" end="540" vehsPerHour="74.80555660096483" departLane="free"/>
  <flow id="JF62323" begin="480" fromJunction="J3" toJunction="J6" end="540" vehsPerHour="31.43210518334438" departLane="free"/>
  <flow id="JF62324" begin="480" fromJunction="J3" toJunction="J7" end="540" vehsPerHour="62.32236033612602" departLane="free"/>
  <flow id="JF62325" begin="480" fromJunction="J3" toJunction="J5" end="540" vehsPerHour="61.56921024145331" departLane="free"/>
  <flow id="JF62326" begin="480" fromJunction="J3" toJunction="J4" end="540" vehsPerHour="39.59364471216732" departLane="free"/>
  <flow id="JF62327" begin="480" fromJunction="J0" toJunction="J6" end="540" vehsPerHour="4.904708492550318" departLane="free"/>
  <flow id="JF62328" begin="480" fromJunction="J0" toJunction="J7" end="540" vehsPerHour="27.919491556461058" departLane="free"/>
  <flow id="JF62329" begin="480" fromJunction="J0" toJunction="J5" end="540" vehsPerHour="67.19290145747047" departLane="free"/>
  <flow id="JF62330" begin="480" fromJunction="J0" toJunction="J4" end="540" vehsPerHour="62.153674593746615" departLane="free"/>
  <flow id="JF62331" begin="480" fromJunction="J6" toJunction="J7" end="540" vehsPerHour="17.935279296656972" departLane="free"/>