<?xml version="1.0" encoding="UTF-8"?>
<routes xmlns:xsi="http://www.w3.org/2001/XMLSchema-instance" xsi:noNamespaceSchemaLocation="http://sumo.dlr.de/xsd/routes_file.xsd">
  <flow id="JF400554" begin="0" fromJunction="J0" toJunction="J3" end="60" vehsPerHour="183.9204134903403" departLane="free" arrivalSpeed="0.0"/>
  <flow id="JF400555" begin="0" fromJunction="J0" toJunction="J4" end="60" vehsPerHour="370.66085316375944" departLane="free" arrivalSpeed="0.0"/>
  <flow id="JF400556" begin="0" fromJunction="J0" toJunction="J5" end="60" vehsPerHour="85.18055107958988" departLane="free" arrivalSpeed="0.0"/>
  <flow id="JF400557" begin="0" fromJunction="J0" toJunction="J6" end="60" vehsPerHour="481.98439427223303" departLane="free" arrivalSpeed="0.0"/>
  <flow id="JF400558" begin="0" fromJunction="J0" toJunction="J7" end="60" vehsPerHour="308.8230117317321" departLane="free" arrivalSpeed="0.0"/>
  <flow id="JF400559" begin="0" fromJunction="J3" toJunction="J0" end="60" vehsPerHour="166.71720961244986" departLane="free" arrivalSpeed="0.0"/>
  <flow id="JF400560" begin="0" fromJunction="J3" toJunction="J4" end="60" vehsPerHour="536.432261224365" departLane="free" arrivalSpeed="0.0"/>
  <flow id="JF400561" begin="0" fromJunction="J3" toJunction="J6" end="60" vehsPerHour="528.256060404868" departLane="free" arrivalSpeed="0.0"/>
  <flow id="JF400562" begin="0" fromJunction="J3" toJunction="J7" end="60" vehsPerHour="174.68235284005945" departLane="free" arrivalSpeed="0.0"/>
  <flow id="JF400563" begin="0" fromJunction="J4" toJunction="J0" end="60" vehsPerHour="186.23610355022606" departLane="free" arrivalSpeed="0.0"/>
  <flow id="JF400564" begin="0" fromJunction="J4" toJunction="J3" end="60" vehsPerHour="60.75210138139825" departLane="free" arrivalSpeed="0.0"/>
  <flow id="JF400565" begin="0" fromJunction="J4" toJunction="J5" end="60" vehsPerHour="101.98017471795197" departLane="free" arrivalSpeed="0.0"/>
  <flow id="JF400566" begin="0" fromJunction="J4" toJunction="J6" end="60" vehsPerHour="133.22957225238196" departLane="free" arrivalSpeed="0.0"/>
  <flow id="JF400567" begin="0" fromJunction="J4" toJunction="J7" end="60" vehsPerHour="16.957275682508428" departLane="free" arrivalSpeed="0.0"/>
  <flow id="JF400568" begin="0" fromJunction="J5" toJunction="J0" end="60" vehsPerHour="114.77368273626082" departLane="free" arrivalSpeed="0.0"/>
  <flow id="JF400569" begin="0" fromJunction="J5" toJunction="J4" end="60" vehsPerHour="136.2517072624099" departLane="free" arrivalSpeed="0.0"/>
  <flow id="JF400570" begin="0" fromJunction="J5" toJunction="J6" end="60" vehsPerHour="120.46063077997584" departLane="free" arrivalSpeed="0.0"/>
  <flow id="JF400571" begin="0" fromJunction="J6" toJunction="J7" end="60" vehsPerHour="93.666542449538" departLane="free" arrivalSpeed="0.0"/>
  <flow id="JF400572" begin="0" fromJunction="J7" toJunction="J0" end="60" vehsPerHour="148.74689383677347" departLane="free" arrivalSpeed="0.0"/>
  <flow id="JF400573" begin="0" fromJunction="J7" toJunction="J4" end="60" vehsPerHour="53.24920953941353" departLane="free" arrivalSpeed="0.0"/>
  <flow id="JF400574" begin="0" fromJunction="J7" toJunction="J5" end="60" vehsPerHour="86.52203770572724" departLane="free" arrivalSpeed="0.0"/>
  <flow id="JF400575" begin="60" fromJunction="J0" toJunction="J3" end="120" vehsPerHour="100.7048113131562" departLane="free" arrivalSpeed="0.0"/>
  <flow id="JF400576" begin="60" fromJunction="J0" toJunction="J4" end="120" vehsPerHour="34.001199502889705" departLane="free" arrivalSpeed="0.0"/>
  <flow id="JF400577" begin="60" fromJunction="J0" toJunction="J7" end="120" vehsPerHour="400.8144251641991" departLane="free" arrivalSpeed="0.0"/>
  <flow id="JF400578" begin="60" fromJunction="J3" toJunction="J6" end="120" vehsPerHour="270.2279521153084" departLane="free" arrivalSpeed="0.0"/>
  <flow id="JF400579" begin="60" fromJunction="J4" toJunction="J0" end="120" vehsPerHour="245.9593760015688" departLane="free" arrivalSpeed="0.0"/>
  <flow id="JF400580" begin="60" fromJunction="J4" toJunction="J3" end="120" vehsPerHour="90.20248506498731" departLane="free" arrivalSpeed="0.0"/>
  <flow id="JF400581" begin="60" fromJunction="J4" toJunction="J5" end="120" vehsPerHour="239.28949529235672" departLane="free" arrivalSpeed="0.0"/>
  <flow id="JF400582" begin="60" fromJunction="J4" toJunction="J6" end="120" vehsPerHour="110.69732554406008" departLane="free" arrivalSpeed="0.0"/>
  <flow id="JF400583" begin="60" fromJunction="J5" toJunction="J0" end="120" vehsPerHour="266.2063607931417" departLane="free" arrivalSpeed="0.0"/>
  <flow id="JF400584" begin="60" fromJunction="J5" toJunction="J4" end="120" vehsPerHour="2.7035810915405913" departLane="free" arrivalSpeed="0.0"/>
  <flow id="JF400585" begin="60" fromJunction="J5" toJunction="J7" end="120" vehsPerHour="133.630428105744" departLane="free" arrivalSpeed="0.0"/>
  <flow id="JF400586" begin="60" fromJunction="J6" toJunction="J0" end="120" vehsPerHour="220.54250804263017" departLane="free" arrivalSpeed="0.0"/>
  <flow id="JF400587" begin="60" fromJunction="J6" toJunction="J3" end="120" vehsPerHour="261.72307485148724" departLane="free" arrivalSpeed="0.0"/>
  <flow id="JF400588" begin="60" fromJunction="J6" toJunction="J5" end="120" vehsPerHour="94.36716542339626" departLane="free" arrivalSpeed="0.0"/>
  <flow id="JF400589" begin="60" fromJunction="J6" toJunction="J7" end="120" vehsPerHour="258.58849170714365" departLane="free" arrivalSpeed="0.0"/>
  <flow id="JF400590" begin="60" fromJunction="J7" toJunction="J0" end="120" vehsPerHour="43.95074532203507" departLane="free" arrivalSpeed="0.0"/>
  <flow id="JF400591" begin="60" fromJunction="J7" toJunction="J6" end="120" vehsPerHour="242.79531901846437" departLane="free" arrivalSpeed="0.0"/>
  <flow id="JF400592" begin="120" fromJunction="J0" toJunction="J7" end="180" vehsPerHour="275.897110971788" departLane="free" arrivalSpeed="0.0"/>
  <flow id="JF400593" begin="120" fromJunction="J3" toJunction="J0" end="180" vehsPerHour="548.7882710107391" departLane="free" arrivalSpeed="0.0"/>
  <flow id="JF400594" begin="120" fromJunction="J3" toJunction="J4" end="180" vehsPerHour="235.6454991328673" departLane="free" arrivalSpeed="0.0"/>
  <flow id="JF400595" begin="120" fromJunction="J3" toJunction="J5" end="180" vehsPerHour="326.84064717588376" departLane="free" arrivalSpeed="0.0"/>
  <flow id="JF400596" begin="120" fromJunction="J3" toJunction="J6" end="180" vehsPerHour="394.0222142351282" departLane="free" arrivalSpeed="0.0"/>
  <flow id="JF400597" begin="120" fromJunction="J3" toJunction="J7" end="180" vehsPerHour="143.8693171155921" departLane="free" arrivalSpeed="0.0"/>
  <flow id="JF400598" begin="120" fromJunction="J4" toJunction="J0" end="180" vehsPerHour="119.84703875159207" departLane="free" arrivalSpeed="0.0"/>
  <flow id="JF400599" begin="120" fromJunction="J4" toJunction="J3" end="180" vehsPerHour="95.02076173158261" departLane="free" arrivalSpeed="0.0"/>
  <flow id="JF400600" begin="120" fromJunction="J4" toJunction="J6" end="180" vehsPerHour="271.4418223679904" departLane="free" arrivalSpeed="0.0"/>
  <flow id="JF400601" begin="120" fromJunction="J4" toJunction="J7" end="180" vehsPerHour="75.00399649337969" departLane="free" arrivalSpeed="0.0"/>
  <flow id="JF400602" begin="120" fromJunction="J5" toJunction="J6" end="180" vehsPerHour="138.50390380696152" departLane="free" arrivalSpeed="0.0"/>
  <flow id="JF400603" begin="120" fromJunction="J6" toJunction="J0" end="180" vehsPerHour="117.60215876832983" departLane="free" arrivalSpeed="0.0"/>
  <flow id="JF400604" begin="120" fromJunction="J6" toJunction="J3" end="180" vehsPerHour="226.60439005348923" departLane="free" arrivalSpeed="0.0"/>
  <flow id="JF400605" begin="120" fromJunction="J6" toJunction="J4" end="180" vehsPerHour="183.40146802227937" departLane="free" arrivalSpeed="0.0"/>
  <flow id="JF400606" begin="120" fromJunction="J6" toJunction="J5" end="180" vehsPerHour="189.6350741969466" departLane="free" arrivalSpeed="0.0"/>
  <flow id="JF400607" begin="120" fromJunction="J7" toJunction="J0" end="180" vehsPerHour="236.75220329021064" departLane="free" arrivalSpeed="0.0"/>
  <flow id="JF400608" begin="120" fromJunction="J7" toJunction="J5" end="180" vehsPerHour="14.061861888270304" departLane="free" arrivalSpeed="0.0"/>
  <flow id="JF400609" begin="120" fromJunction="J7" toJunction="J6" end="180" vehsPerHour="140.26341356092595" departLane="free" arrivalSpeed="0.0"/>
  <flow id="JF400610" begin="180" fromJunction="J0" toJunction="J3" end="240" vehsPerHour="46.181563463525364" departLane="free" arrivalSpeed="0.0"/>
  <flow id="JF400611" begin="180" fromJunction="J0" toJunction="J6" end="240" vehsPerHour="256.6948371354163" departLane="free" arrivalSpeed="0.0"/>
  <flow id="JF400612" begin="180" fromJunction="J0" toJunction="J7" end="240" vehsPerHour="281.08246960509985" departLane="free" arrivalSpeed="0.0"/>
  <flow id="JF400613" begin="180" fromJunction="J3" toJunction="J0" end="240" vehsPerHour="193.99503203156578" departLane="free" arrivalSpeed="0.0"/>
  <flow id="JF400614" begin="180" fromJunction="J3" toJunction="J4" end="240" vehsPerHour="442.07974708853504" departLane="free" arrivalSpeed="0.0"/>
  <flow id="JF400615" begin="180" fromJunction="J3" toJunction="J6" end="240" vehsPerHour="472.7512598248539" departLane="free" arrivalSpeed="0.0"/>
  <flow id="JF400616" begin="180" fromJunction="J3" toJunction="J7" end="240" vehsPerHour="331.3083504650363" departLane="free" arrivalSpeed="0.0"/>
  <flow id="JF400617" begin="180" fromJunction="J4" toJunction="J3" end="240" vehsPerHour="146.66553545644484" departLane="free" arrivalSpeed="0.0"/>
  <flow id="JF400618" begin="180" fromJunction="J4" toJunction="J5" end="240" vehsPerHour="132.26254051645174" departLane="free" arrivalSpeed="0.0"/>
  <flow id="JF400619" begin="180" fromJunction="J5" toJunction="J0" end="240" vehsPerHour="19.890008297993486" departLane="free" arrivalSpeed="0.0"/>
  <flow id="JF400620" begin="180" fromJunction="J5" toJunction="J3" end="240" vehsPerHour="52.349922077312186" departLane="free" arrivalSpeed="0.0"/>
  <flow id="JF400621" begin="180" fromJunction="J6" toJunction="J0" end="240" vehsPerHour="92.84935609781589" departLane="free" arrivalSpeed="0.0"/>
  <flow id="JF400622" begin="180" fromJunction="J6" toJunction="J4" end="240" vehsPerHour="50.04110597495903" departLane="free" arrivalSpeed="0.0"/>
  <flow id="JF400623" begin="180" fromJunction="J7" toJunction="J0" end="240" vehsPerHour="30.389791285196107" departLane="free" arrivalSpeed="0.0"/>
  <flow id="JF400624" begin="180" fromJunction="J7" toJunction="J3" end="240" vehsPerHour="74.53457241392427" departLane="free" arrivalSpeed="0.0"/>
  <flow id="JF400625" begin="180" fromJunction="J7" toJunction="J4" end="240" vehsPerHour="206.9018154428435" departLane="free" arrivalSpeed="0.0"/>
  <flow id="JF400626" begin="240" fromJunction="J0" toJunction="J3" end="300" vehsPerHour="273.46349149851557" departLane="free" arrivalSpeed="0.0"/>
  <flow id="JF400627" begin="240" fromJunction="J0" toJunction="J4" end="300" vehsPerHour="397.5714981038662" departLane="free" arrivalSpeed="0.0"/>
  <flow id="JF400628" begin="240" fromJunction="J0" toJunction="J7" end="300" vehsPerHour="98.8915874379924" departLane="free" arrivalSpeed="0.0"/>
  <flow id="JF400629" begin="240" fromJunction="J3" toJunction="J5" end="300" vehsPerHour="90.81960093536252" departLane="free" arrivalSpeed="0.0"/>
  <flow id="JF400630" begin="240" fromJunction="J3" toJunction="J7" end="300" vehsPerHour="535.2975424384111" departLane="free" arrivalSpeed="0.0"/>
  <flow id="JF400631" begin="240" fromJunction="J4" toJunction="J3" end="300" vehsPerHour="103.79883878832561" departLane="free" arrivalSpeed="0.0"/>
  <flow id="JF400632" begin="240" fromJunction="J4" toJunction="J5" end="300" vehsPerHour="153.6489395710167" departLane="free" arrivalSpeed="0.0"/>
  <flow id="JF400633" begin="240" fromJunction="J4" toJunction="J6" end="300" vehsPerHour="237.94680686065146" departLane="free" arrivalSpeed="0.0"/>
  <flow id="JF400634" begin="240" fromJunction="J4" toJunction="J7" end="300" vehsPerHour="171.70715535477407" departLane="free" arrivalSpeed="0.0"/>
  <flow id="JF400635" begin="240" fromJunction="J5" toJunction="J3" end="300" vehsPerHour="51.252094456492436" departLane="free" arrivalSpeed="0.0"/>
  <flow id="JF400636" begin="240" fromJunction="J5" toJunction="J4" end="300" vehsPerHour="126.52491981360141" departLane="free" arrivalSpeed="0.0"/>
  <flow id="JF400637" begin="240" fromJunction="J5" toJunction="J7" end="300" vehsPerHour="124.90692124490953" departLane="free" arrivalSpeed="0.0"/>
  <flow id="JF400638" begin="240" fromJunction="J6" toJunction="J3" end="300" vehsPerHour="22.139439699973003" departLane="free" arrivalSpeed="0.0"/>
  <flow id="JF400639" begin="240" fromJunction="J6" toJunction="J4" end="300" vehsPerHour="202.18115238970455" departLane="free" arrivalSpeed="0.0"/>
  <flow id="JF400640" begin="240" fromJunction="J6" toJunction="J5" end="300" vehsPerHour="224.67345088463367" departLane="free" arrivalSpeed="0.0"/>
  <flow id="JF400641" begin="240" fromJunction="J7" toJunction="J0" end="300" vehsPerHour="99.07193083840097" departLane="free" arrivalSpeed="0.0"/>
  <flow id="JF400642" begin="240" fromJunction="J7" toJunction="J3" end="300" vehsPerHour="240.19754689926822" departLane="free" arrivalSpeed="0.0"/>
  <flow id="JF400643" begin="240" fromJunction="J7" toJunction="J4" end="300" vehsPerHour="94.51875231317273" departLane="free" arrivalSpeed="0.0"/>
  <flow id="JF400644" begin="240" fromJunction="J7" toJunction="J5" end="300" vehsPerHour="141.9582686689931" departLane="free" arrivalSpeed="0.0"/>
  <flow id="JF400645" begin="240" fromJunction="J7" toJunction="J6" end="300" vehsPerHour="196.25703078143778" departLane="free" arrivalSpeed="0.0"/>
  <flow id="JF400646" begin="300" fromJunction="J0" toJunction="J3" end="360" vehsPerHour="81.96838499060581" departLane="free" arrivalSpeed="0.0"/>
  <flow id="JF400647" begin="300" fromJunction="J0" toJunction="J5" end="360" vehsPerHour="524.2114874596789" departLane="free" arrivalSpeed="0.0"/>
  <flow id="JF400648" begin="300" fromJunction="J0" toJunction="J6" end="360" vehsPerHour="47.30849261910558" departLane="free" arrivalSpeed="0.0"/>
  <flow id="JF400649" begin="300" fromJunction="J3" toJunction="J0" end="360" vehsPerHour="143.7340635468829" departLane="free" arrivalSpeed="0.0"/>
  <flow id="JF400650" begin="300" fromJunction="J3" toJunction="J5" end="360" vehsPerHour="250.64034180684268" departLane="free" arrivalSpeed="0.0"/>
  <flow id="JF400651" begin="300" fromJunction="J3" toJunction="J6" end="360" vehsPerHour="457.2785157976865" departLane="free" arrivalSpeed="0.0"/>
  <flow id="JF400652" begin="300" fromJunction="J4" toJunction="J0" end="360" vehsPerHour="208.5781592760262" departLane="free" arrivalSpeed="0.0"/>
  <flow id="JF400653" begin="300" fromJunction="J4" toJunction="J3" end="360" vehsPerHour="20.51608004376516" departLane="free" arrivalSpeed="0.0"/>
  <flow id="JF400654" begin="300" fromJunction="J4" toJunction="J5" end="360" vehsPerHour="181.34725342513306" departLane="free" arrivalSpeed="0.0"/>
  <flow id="JF400655" begin="300" fromJunction="J4" toJunction="J7" end="360" vehsPerHour="232.45037018518468" departLane="free" arrivalSpeed="0.0"/>
  <flow id="JF400656" begin="300" fromJunction="J5" toJunction="J0" end="360" vehsPerHour="140.0262527543361" departLane="free" arrivalSpeed="0.0"/>
  <flow id="JF400657" begin="300" fromJunction="J5" toJunction="J3" end="360" vehsPerHour="9.374583133365705" departLane="free" arrivalSpeed="0.0"/>
  <flow id="JF400658" begin="300" fromJunction="J5" toJunction="J6" end="360" vehsPerHour="227.56038239941876" departLane="free" arrivalSpeed="0.0"/>
  <flow id="JF400659" begin="300" fromJunction="J5" toJunction="J7" end="360" vehsPerHour="254.6896191430712" departLane="free" arrivalSpeed="0.0"/>
  <flow id="JF400660" begin="300" fromJunction="J6" toJunction="J0" end="360" vehsPerHour="261.70075436396303" departLane="free" arrivalSpeed="0.0"/>
  <flow id="JF400661" begin="300" fromJunction="J6" toJunction="J3" end="360" vehsPerHour="230.49777941592103" departLane="free" arrivalSpeed="0.0"/>
  <flow id="JF400662" begin="300" fromJunction="J6" toJunction="J4" end="360" vehsPerHour="146.8909530156943" departLane="free" arrivalSpeed="0.0"/>
  <flow id="JF400663" begin="300" fromJunction="J6" toJunction="J7" end="360" vehsPerHour="128.17721522113908" departLane="free" arrivalSpeed="0.0"/>
  <flow id="JF400664" begin="300" fromJunction="J7" toJunction="J0" end="360" vehsPerHour="181.9857474870235" departLane="free" arrivalSpeed="0.0"/>
  <flow id="JF400665" begin="300" fromJunction="J7" toJunction="J3" end="360" vehsPerHour="120.55903909255207" departLane="free" arrivalSpeed="0.0"/>
  <flow id="JF400666" begin="300" fromJunction="J7" toJunction="J4" end="360" vehsPerHour="148.13096684647866" departLane="free" arrivalSpeed="0.0"/>
  <flow id="JF400667" begin="300" fromJunction="J7" toJunction="J5" end="360" vehsPerHour="2.941418712203234" departLane="free" arrivalSpeed="0.0"/>
  <flow id="JF400668" begin="300" fromJunction="J7" toJunction="J6" end="360" vehsPerHour="248.6610718570289" departLane="free" arrivalSpeed="0.0"/>
  <flow id="JF400669" begin="360" fromJunction="J0" toJunction="J3" end="420" vehsPerHour="76.32844485805153" departLane="free" arrivalSpeed="0.0"/>
  <flow id="JF400670" begin="360" fromJunction="J0" toJunction="J4" end="420" vehsPerHour="38.92205785264281" departLane="free" arrivalSpeed="0.0"/>
  <flow id="JF400671" begin="360" fromJunction="J0" toJunction="J6" end="420" vehsPerHour="156.7311832493277" departLane="free" arrivalSpeed="0.0"/>
  <flow id="JF400672" begin="360" fromJunction="J0" toJunction="J7" end="420" vehsPerHour="393.54716038272727" departLane="free" arrivalSpeed="0.0"/>
  <flow id="JF400673" begin="360" fromJunction="J3" toJunction="J0" end="420" vehsPerHour="95.35938665100743" departLane="free" arrivalSpeed="0.0"/>
  <flow id="JF400674" begin="360" fromJunction="J3" toJunction="J4" end="420" vehsPerHour="48.076478254528034" departLane="free" arrivalSpeed="0.0"/>
  <flow id="JF400675" begin="360" fromJunction="J3" toJunction="J5" end="420" vehsPerHour="54.479692161308904" departLane="free" arrivalSpeed="0.0"/>
  <flow id="JF400676" begin="360" fromJunction="J3" toJunction="J6" end="420" vehsPerHour="417.0365894529843" departLane="free" arrivalSpeed="0.0"/>
  <flow id="JF400677" begin="360" fromJunction="J4" toJunction="J0" end="420" vehsPerHour="249.67514896054388" departLane="free" arrivalSpeed="0.0"/>
  <flow id="JF400678" begin="360" fromJunction="J4" toJunction="J3" end="420" vehsPerHour="250.44881432595832" departLane="free" arrivalSpeed="0.0"/>
  <flow id="JF400679" begin="360" fromJunction="J4" toJunction="J5" end="420" vehsPerHour="157.61067066306907" departLane="free" arrivalSpeed="0.0"/>
  <flow id="JF400680" begin="360" fromJunction="J4" toJunction="J6" end="420" vehsPerHour="20.84817716708139" departLane="free" arrivalSpeed="0.0"/>
  <flow id="JF400681" begin="360" fromJunction="J4" toJunction="J7" end="420" vehsPerHour="69.13130291516153" departLane="free" arrivalSpeed="0.0"/>
  <flow id="JF400682" begin="360" fromJunction="J5" toJunction="J0" end="420" vehsPerHour="13.505532576021903" departLane="free" arrivalSpeed="0.0"/>
  <flow id="JF400683" begin="360" fromJunction="J5" toJunction="J3" end="420" vehsPerHour="126.95675712609332" departLane="free" arrivalSpeed="0.0"/>
  <flow id="JF400684" begin="360" fromJunction="J5" toJunction="J4" end="420" vehsPerHour="108.25766872872693" departLane="free" arrivalSpeed="0.0"/>
  <flow id="JF400685" begin="360" fromJunction="J6" toJunction="J5" end="420" vehsPerHour="161.56074452262627" departLane="free" arrivalSpeed="0.0"/>
  <flow id="JF400686" begin="360" fromJunction="J6" toJunction="J7" end="420" vehsPerHour="228.81908481366054" departLane="free" arrivalSpeed="0.0"/>
  <flow id="JF400687" begin="360" fromJunction="J7" toJunction="J4" end="420" vehsPerHour="212.67213510287897" departLane="free" arrivalSpeed="0.0"/>
  <flow id="JF400688" begin="360" fromJunction="J7" toJunction="J5" end="420" vehsPerHour="184.29490696582712" departLane="free" arrivalSpeed="0.0"/>
  <flow id="JF400689" begin="360" fromJunction="J7" toJunction="J6" end="420" vehsPerHour="267.0189291603083" departLane="free" arrivalSpeed="0.0"/>
  <flow id="JF400690" begin="420" fromJunction="J0" toJunction="J3" end="480" vehsPerHour="517.8321094981129" departLane="free" arrivalSpeed="0.0"/>
  <flow id="JF400691" begin="420" fromJunction="J0" toJunction="J4" end="480" vehsPerHour="526.9654917483653" departLane="free" arrivalSpeed="0.0"/>
  <flow id="JF400692" begin="420" fromJunction="J0" toJunction="J5" end="480" vehsPerHour="374.46876902030465" departLane="free" arrivalSpeed="0.0"/>
  <flow id="JF400693" begin="420" fromJunction="J0" toJunction="J6" end="480" vehsPerHour="258.5010426141068" departLane="free" arrivalSpeed="0.0"/>
  <flow id="JF400694" begin="420" fromJunction="J0" toJunction="J7" end="480" vehsPerHour="536.3777542956708" departLane="free" arrivalSpeed="0.0"/>
  <flow id="JF400695" begin="420" fromJunction="J3" toJunction="J0" end="480" vehsPerHour="316.45957699585017" departLane="free" arrivalSpeed="0.0"/>
  <flow id="JF400696" begin="420" fromJunction="J3" toJunction="J4" end="480" vehsPerHour="320.0136022050965" departLane="free" arrivalSpeed="0.0"/>
  <flow id="JF400697" begin="420" fromJunction="J3" toJunction="J5" end="480" vehsPerHour="228.75285001918596" departLane="free" arrivalSpeed="0.0"/>
  <flow id="JF400698" begin="420" fromJunction="J3" toJunction="J6" end="480" vehsPerHour="210.74231993620057" departLane="free" arrivalSpeed="0.0"/>
  <flow id="JF400699" begin="420" fromJunction="J3" toJunction="J7" end="480" vehsPerHour="147.91598470148043" departLane="free" arrivalSpeed="0.0"/>
  <flow id="JF400700" begin="420" fromJunction="J4" toJunction="J3" end="480" vehsPerHour="239.66158391337058" departLane="free" arrivalSpeed="0.0"/>
  <flow id="JF400701" begin="420" fromJunction="J4" toJunction="J6" end="480" vehsPerHour="39.6762325315297" departLane="free" arrivalSpeed="0.0"/>
  <flow id="JF400702" begin="420" fromJunction="J5" toJunction="J0" end="480" vehsPerHour="56.286587763978815" departLane="free" arrivalSpeed="0.0"/>
  <flow id="JF400703" begin="420" fromJunction="J5" toJunction="J3" end="480" vehsPerHour="164.93727996674417" departLane="free" arrivalSpeed="0.0"/>
  <flow id="JF400704" begin="420" fromJunction="J5" toJunction="J7" end="480" vehsPerHour="138.91056897525544" departLane="free" arrivalSpeed="0.0"/>
  <flow id="JF400705" begin="420" fromJunction="J6" toJunction="J0" end="480" vehsPerHour="205.36815754739325" departLane="free" arrivalSpeed="0.0"/>
  <flow id="JF400706" begin="420" fromJunction="J6" toJunction="J3" end="480" vehsPerHour="17.17481224171149" departLane="free" arrivalSpeed="0.0"/>
  <flow id="JF400707" begin="420" fromJunction="J6" toJunction="J4" end="480" vehsPerHour="268.2312993412487" departLane="free" arrivalSpeed="0.0"/>
  <flow id="JF400708" begin="420" fromJunction="J6" toJunction="J5" end="480" vehsPerHour="39.987114389687626" departLane="free" arrivalSpeed="0.0"/>
  <flow id="JF400709" begin="420" fromJunction="J6" toJunction="J7" end="480" vehsPerHour="228.26957606129082" departLane="free" arrivalSpeed="0.0"/>
  <flow id="JF400710" begin="420" fromJunction="J7" toJunction="J0" end="480" vehsPerHour="3.2343309056656517" departLane="free" arrivalSpeed="0.0"/>
  <flow id="JF400711" begin="420" fromJunction="J7" toJunction="J3" end="480" vehsPerHour="177.3273762387111" departLane="free" arrivalSpeed="0.0"/>
  <flow id="JF400712" begin="420" fromJunction="J7" toJunction="J4" end="480" vehsPerHour="86.5708757788524" departLane="free" arrivalSpeed="0.0"/>
  <flow id="JF400713" begin="420" fromJunction="J7" toJunction="J5" end="480" vehsPerHour="93.02977173731459" departLane="free" arrivalSpeed="0.0"/>
  <flow id="JF400714" begin="420" fromJunction="J7" toJunction="J6" end="480" vehsPerHour="68.35430226130389" departLane="free" arrivalSpeed="0.0"/>
  <flow id="JF400715" begin="480" fromJunction="J0" toJunction="J3" end="540" vehsPerHour="234.3152995036552" departLane="free" arrivalSpeed="0.0"/>
  <flow id="JF400716" begin="480" fromJunction="J0" toJunction="J4" end="540" vehsPerHour="401.2803580283404" departLane="free" arrivalSpeed="0.0"/>
  <flow id="JF400717" begin="480" fromJunction="J0" toJunction="J5" end="540" vehsPerHour="542.6603259342829" departLane="free" arrivalSpeed="0.0"/>
  <flow id="JF400718" begin="480" fromJunction="J0" toJunction="J7" end="540" vehsPerHour="522.6649997910158" departLane="free" arrivalSpeed="0.0"/>
  <flow id="JF400719" begin="480" fromJunction="J3" toJunction="J0" end="540" vehsPerHour="205.62539610797003" departLane="free" arrivalSpeed="0.0"/>
  <flow id="JF400720" begin="480" fromJunction="J3" toJunction="J4" end="540" vehsPerHour="349.2949628345932" departLane="free" arrivalSpeed="0.0"/>
  <flow id="JF400721" begin="480" fromJunction="J3" toJunction="J5" end="540" vehsPerHour="194.92221123465106" departLane="free" arrivalSpeed="0.0"/>
  <flow id="JF400722" begin="480" fromJunction="J3" toJunction="J6" end="540" vehsPerHour="289.50876115839475" departLane="free" arrivalSpeed="0.0"/>
  <flow id="JF400723" begin="480" fromJunction="J3" toJunction="J7" end="540" vehsPerHour="358.4196296981031" departLane="free" arrivalSpeed="0.0"/>
  <flow id="JF400724" begin="480" fromJunction="J4" toJunction="J3" end="540" vehsPerHour="245.09179614427526" departLane="free" arrivalSpeed="0.0"/>
  <flow id="JF400725" begin="480" fromJunction="J4" toJunction="J5" end="540" vehsPerHour="169.87650428439272" departLane="free" arrivalSpeed="0.0"/>
  <flow id="JF400726" begin="480" fromJunction="J4" toJunction="J6" end="540" vehsPerHour="243.69231799795466" departLane="free" arrivalSpeed="0.0"/>
  <flow id="JF400727" begin="480" fromJunction="J5" toJunction="J0" end="540" vehsPerHour="152.9001100960884" departLane="free" arrivalSpeed="0.0"/>
  <flow id="JF400728" begin="480" fromJunction="J5" toJunction="J3" end="540" vehsPerHour="21.137346441297264" departLane="free" arrivalSpeed="0.0"/>
  <flow id="JF400729" begin="480" fromJunction="J5" toJunction="J7" end="540" vehsPerHour="252.3980755119085" departLane="free" arrivalSpeed="0.0"/>
  <flow id="JF400730" begin="480" fromJunction="J6" toJunction="J0" end="540" vehsPerHour="64.47871462081856" departLane="free" arrivalSpeed="0.0"/>
  <flow id="JF400731" begin="480" fromJunction="J6" toJunction="J3" end="540" vehsPerHour="173.22119162750062" departLane="free" arrivalSpeed="0.0"/>
  <flow id="JF400732" begin="480" fromJunction="J6" toJunction="J4" end="540" vehsPerHour="159.7301206129152" departLane="free" arrivalSpeed="0.0"/>
  <flow id="JF400733" begin="480" fromJunction="J6" toJunction="J5" end="540" vehsPerHour="90.46479406191575" departLane="free" arrivalSpeed="0.0"/>
  <flow id="JF400734" begin="480" fromJunction="J6" toJunction="J7" end="540" vehsPerHour="26.661816033685902" departLane="free" arrivalSpeed="0.0"/>
  <flow id="JF400735" begin="480" fromJunction="J7" toJunction="J0" end="540" vehsPerHour="274.54386552117506" departLane="free" arrivalSpeed="0.0"/>
  <flow id="JF400736" begin="480" fromJunction="J7" toJunction="J3" end="540" vehsPerHour="207.80168406779833" departLane="free" arrivalSpeed="0.0"/>
  <flow id="JF400737" begin="480" fromJunction="J7" toJunction="J4" end="540" vehsPerHour="170.91667433839513" departLane="free" arrivalSpeed="0.0"/>
  <flow id="JF400738" begin="480" fromJunction="J7" toJunction="J5" end="540" vehsPerHour="24.88872721842473" departLane="free" arrivalSpeed="0.0"/>
  <flow id="JF400739" begin="480" fromJunction="J7" toJunction="J6" end="540" vehsPerHour="197.53037156389414" departLane="free" arrivalSpeed="0.0"/>
  <flow id="JF400740" begin="540" fromJunction="J0" toJunction="J5" end="600" vehsPerHour="518.921367196795" departLane="free" arrivalSpeed="0.0"/>
  <flow id="JF400741" begin="540" fromJunction="J0" toJunction="J6" end="600" vehsPerHour="371.9313158546001" departLane="free" arrivalSpeed="0.0"/>
  <flow id="JF400742" begin="540" fromJunction="J0" toJunction="J7" end="600" vehsPerHour="471.46346972881526" departLane="free" arrivalSpeed="0.0"/>
  <flow id="JF400743" begin="540" fromJunction="J3" toJunction="J0" end="600" vehsPerHour="361.06394342465217" departLane="free" arrivalSpeed="0.0"/>
  <flow id="JF400744" begin="540" fromJunction="J3" toJunction="J5" end="600" vehsPerHour="213.5079406322687" departLane="free" arrivalSpeed="0.0"/>
  <flow id="JF400745" begin="540" fromJunction="J4" toJunction="J0" end="600" vehsPerHour="149.5659550867658" departLane="free" arrivalSpeed="0.0"/>
  <flow id="JF400746" begin="540" fromJunction="J4" toJunction="J3" end="600" vehsPerHour="234.0616514678531" departLane="free" arrivalSpeed="0.0"/>
  <flow id="JF400747" begin="540" fromJunction="J4" toJunction="J5" end="600" vehsPerHour="59.9662488863794" departLane="free" arrivalSpeed="0.0"/>
  <flow id="JF400748" begin="540" fromJunction="J4" toJunction="J7" end="600" vehsPerHour="269.7728927615498" departLane="free" arrivalSpeed="0.0"/>
  <flow id="JF400749" begin="540" fromJunction="J5" toJunction="J0" end="600" vehsPerHour="99.80094743234646" departLane="free" arrivalSpeed="0.0"/>
  <flow id="JF400750" begin="540" fromJunction="J5" toJunction="J3" end="600" vehsPerHour="87.90940325651277" departLane="free" arrivalSpeed="0.0"/>
  <flow id="JF400751" begin="540" fromJunction="J5" toJunction="J4" end="600" vehsPerHour="215.83342348865807" departLane="free" arrivalSpeed="0.0"/>
  <flow id="JF400752" begin="540" fromJunction="J5" toJunction="J6" end="600" vehsPerHour="207.0082999376428" departLane="free" arrivalSpeed="0.0"/>
  <flow id="JF400753" begin="540" fromJunction="J5" toJunction="J7" end="600" vehsPerHour="107.5668095661111" departLane="free" arrivalSpeed="0.0"/>