<?xml version="1.0" encoding="UTF-8"?>
<routes xmlns:xsi="http://www.w3.org/2001/XMLSchema-instance" xsi:noNamespaceSchemaLocation="http://sumo.dlr.de/xsd/routes_file.xsd">
  <flow id="JF407511" begin="0" fromJunction="J0" toJunction="J4" end="60" vehsPerHour="26.753698380672674" departLane="free" arrivalSpeed="0.0"/>
  <flow id="JF407512" begin="0" fromJunction="J0" toJunction="J6" end="60" vehsPerHour="73.69296437574174" departLane="free" arrivalSpeed="0.0"/>
  <flow id="JF407513" begin="0" fromJunction="J0" toJunction="J7" end="60" vehsPerHour="445.9474951047208" departLane="free" arrivalSpeed="0.0"/>
  <flow id="JF407514" begin="0" fromJunction="J3" toJunction="J0" end="60" vehsPerHour="148.51356072539627" departLane="free" arrivalSpeed="0.0"/>
  <flow id="JF407515" begin="0" fromJunction="J3" toJunction="J4" end="60" vehsPerHour="92.4112272451016" departLane="free" arrivalSpeed="0.0"/>
  <flow id="JF407516" begin="0" fromJunction="J3" toJunction="J5" end="60" vehsPerHour="467.82574364742646" departLane="free" arrivalSpeed="0.0"/>
  <flow id="JF407517" begin="0" fromJunction="J3" toJunction="J7" end="60" vehsPerHour="17.318275707210578" departLane="free" arrivalSpeed="0.0"/>
  <flow id="JF407518" begin="0" fromJunction="J4" toJunction="J0" end="60" vehsPerHour="177.65985904036845" departLane="free" arrivalSpeed="0.0"/>
  <flow id="JF407519" begin="0" fromJunction="J4" toJunction="J3" end="60" vehsPerHour="267.8684785057189" departLane="free" arrivalSpeed="0.0"/>
  <flow id="JF407520" begin="0" fromJunction="J4" toJunction="J6" end="60" vehsPerHour="186.15842824359515" departLane="free" arrivalSpeed="0.0"/>
  <flow id="JF407521" begin="0" fromJunction="J4" toJunction="J7" end="60" vehsPerHour="1.3620562872602537" departLane="free" arrivalSpeed="0.0"/>
  <flow id="JF407522" begin="0" fromJunction="J5" toJunction="J0" end="60" vehsPerHour="228.72237983996428" departLane="free" arrivalSpeed="0.0"/>
  <flow id="JF407523" begin="0" fromJunction="J5" toJunction="J3" end="60" vehsPerHour="217.007947532958" departLane="free" arrivalSpeed="0.0"/>
  <flow id="JF407524" begin="0" fromJunction="J5" toJunction="J6" end="60" vehsPerHour="192.52173475167885" departLane="free" arrivalSpeed="0.0"/>
  <flow id="JF407525" begin="0" fromJunction="J5" toJunction="J7" end="60" vehsPerHour="50.77842642870897" departLane="free" arrivalSpeed="0.0"/>
  <flow id="JF407526" begin="0" fromJunction="J6" toJunction="J5" end="60" vehsPerHour="165.1900467964107" departLane="free" arrivalSpeed="0.0"/>
  <flow id="JF407527" begin="0" fromJunction="J6" toJunction="J7" end="60" vehsPerHour="199.78739612606992" departLane="free" arrivalSpeed="0.0"/>
  <flow id="JF407528" begin="0" fromJunction="J7" toJunction="J6" end="60" vehsPerHour="28.57330407781865" departLane="free" arrivalSpeed="0.0"/>
  <flow id="JF407529" begin="60" fromJunction="J0" toJunction="J3" end="120" vehsPerHour="161.4415459686003" departLane="free" arrivalSpeed="0.0"/>
  <flow id="JF407530" begin="60" fromJunction="J0" toJunction="J6" end="120" vehsPerHour="49.400585089304556" departLane="free" arrivalSpeed="0.0"/>
  <flow id="JF407531" begin="60" fromJunction="J3" toJunction="J0" end="120" vehsPerHour="116.5423816379161" departLane="free" arrivalSpeed="0.0"/>
  <flow id="JF407532" begin="60" fromJunction="J3" toJunction="J4" end="120" vehsPerHour="374.6210993827592" departLane="free" arrivalSpeed="0.0"/>
  <flow id="JF407533" begin="60" fromJunction="J3" toJunction="J5" end="120" vehsPerHour="322.8533051964788" departLane="free" arrivalSpeed="0.0"/>
  <flow id="JF407534" begin="60" fromJunction="J3" toJunction="J6" end="120" vehsPerHour="510.49171095347504" departLane="free" arrivalSpeed="0.0"/>
  <flow id="JF407535" begin="60" fromJunction="J3" toJunction="J7" end="120" vehsPerHour="522.4947993195761" departLane="free" arrivalSpeed="0.0"/>
  <flow id="JF407536" begin="60" fromJunction="J4" toJunction="J0" end="120" vehsPerHour="243.71769152424034" departLane="free" arrivalSpeed="0.0"/>
  <flow id="JF407537" begin="60" fromJunction="J4" toJunction="J3" end="120" vehsPerHour="97.6274777902295" departLane="free" arrivalSpeed="0.0"/>
  <flow id="JF407538" begin="60" fromJunction="J4" toJunction="J6" end="120" vehsPerHour="270.1628583725659" departLane="free" arrivalSpeed="0.0"/>
  <flow id="JF407539" begin="60" fromJunction="J4" toJunction="J7" end="120" vehsPerHour="256.3817428593646" departLane="free" arrivalSpeed="0.0"/>
  <flow id="JF407540" begin="60" fromJunction="J5" toJunction="J0" end="120" vehsPerHour="271.3102779562817" departLane="free" arrivalSpeed="0.0"/>
  <flow id="JF407541" begin="60" fromJunction="J5" toJunction="J3" end="120" vehsPerHour="90.9717727345621" departLane="free" arrivalSpeed="0.0"/>
  <flow id="JF407542" begin="60" fromJunction="J5" toJunction="J7" end="120" vehsPerHour="88.06053028208474" departLane="free" arrivalSpeed="0.0"/>
  <flow id="JF407543" begin="60" fromJunction="J6" toJunction="J0" end="120" vehsPerHour="23.21257334972772" departLane="free" arrivalSpeed="0.0"/>
  <flow id="JF407544" begin="60" fromJunction="J6" toJunction="J4" end="120" vehsPerHour="21.89987843835021" departLane="free" arrivalSpeed="0.0"/>
  <flow id="JF407545" begin="60" fromJunction="J6" toJunction="J5" end="120" vehsPerHour="220.86158114441972" departLane="free" arrivalSpeed="0.0"/>
  <flow id="JF407546" begin="60" fromJunction="J6" toJunction="J7" end="120" vehsPerHour="150.60782899350355" departLane="free" arrivalSpeed="0.0"/>
  <flow id="JF407547" begin="60" fromJunction="J7" toJunction="J0" end="120" vehsPerHour="47.462966897385066" departLane="free" arrivalSpeed="0.0"/>
  <flow id="JF407548" begin="60" fromJunction="J7" toJunction="J4" end="120" vehsPerHour="47.883345845077464" departLane="free" arrivalSpeed="0.0"/>
  <flow id="JF407549" begin="60" fromJunction="J7" toJunction="J5" end="120" vehsPerHour="148.25351669636734" departLane="free" arrivalSpeed="0.0"/>
  <flow id="JF407550" begin="120" fromJunction="J0" toJunction="J3" end="180" vehsPerHour="144.82778059800853" departLane="free" arrivalSpeed="0.0"/>
  <flow id="JF407551" begin="120" fromJunction="J0" toJunction="J5" end="180" vehsPerHour="505.5966276278375" departLane="free" arrivalSpeed="0.0"/>
  <flow id="JF407552" begin="120" fromJunction="J0" toJunction="J6" end="180" vehsPerHour="23.79986706741267" departLane="free" arrivalSpeed="0.0"/>
  <flow id="JF407553" begin="120" fromJunction="J0" toJunction="J7" end="180" vehsPerHour="507.22979162515145" departLane="free" arrivalSpeed="0.0"/>
  <flow id="JF407554" begin="120" fromJunction="J3" toJunction="J5" end="180" vehsPerHour="87.57225412751372" departLane="free" arrivalSpeed="0.0"/>
  <flow id="JF407555" begin="120" fromJunction="J3" toJunction="J6" end="180" vehsPerHour="377.5783902595423" departLane="free" arrivalSpeed="0.0"/>
  <flow id="JF407556" begin="120" fromJunction="J4" toJunction="J0" end="180" vehsPerHour="37.49560160886609" departLane="free" arrivalSpeed="0.0"/>
  <flow id="JF407557" begin="120" fromJunction="J4" toJunction="J5" end="180" vehsPerHour="257.4681627865735" departLane="free" arrivalSpeed="0.0"/>
  <flow id="JF407558" begin="120" fromJunction="J4" toJunction="J6" end="180" vehsPerHour="254.45724470149787" departLane="free" arrivalSpeed="0.0"/>
  <flow id="JF407559" begin="120" fromJunction="J4" toJunction="J7" end="180" vehsPerHour="169.50519291062915" departLane="free" arrivalSpeed="0.0"/>
  <flow id="JF407560" begin="120" fromJunction="J5" toJunction="J4" end="180" vehsPerHour="80.34240484476045" departLane="free" arrivalSpeed="0.0"/>
  <flow id="JF407561" begin="120" fromJunction="J5" toJunction="J6" end="180" vehsPerHour="211.3993185767172" departLane="free" arrivalSpeed="0.0"/>
  <flow id="JF407562" begin="120" fromJunction="J5" toJunction="J7" end="180" vehsPerHour="271.4736074852618" departLane="free" arrivalSpeed="0.0"/>
  <flow id="JF407563" begin="120" fromJunction="J6" toJunction="J0" end="180" vehsPerHour="115.02664395115134" departLane="free" arrivalSpeed="0.0"/>
  <flow id="JF407564" begin="120" fromJunction="J6" toJunction="J3" end="180" vehsPerHour="117.69284362947988" departLane="free" arrivalSpeed="0.0"/>
  <flow id="JF407565" begin="120" fromJunction="J6" toJunction="J7" end="180" vehsPerHour="158.24015323940574" departLane="free" arrivalSpeed="0.0"/>
  <flow id="JF407566" begin="120" fromJunction="J7" toJunction="J0" end="180" vehsPerHour="253.5655606695138" departLane="free" arrivalSpeed="0.0"/>
  <flow id="JF407567" begin="120" fromJunction="J7" toJunction="J3" end="180" vehsPerHour="76.40799068632298" departLane="free" arrivalSpeed="0.0"/>
  <flow id="JF407568" begin="120" fromJunction="J7" toJunction="J4" end="180" vehsPerHour="149.8087513621868" departLane="free" arrivalSpeed="0.0"/>
  <flow id="JF407569" begin="180" fromJunction="J0" toJunction="J3" end="240" vehsPerHour="461.18007103303233" departLane="free" arrivalSpeed="0.0"/>
  <flow id="JF407570" begin="180" fromJunction="J0" toJunction="J4" end="240" vehsPerHour="221.0212855041558" departLane="free" arrivalSpeed="0.0"/>
  <flow id="JF407571" begin="180" fromJunction="J0" toJunction="J5" end="240" vehsPerHour="161.41558407663945" departLane="free" arrivalSpeed="0.0"/>
  <flow id="JF407572" begin="180" fromJunction="J0" toJunction="J6" end="240" vehsPerHour="109.7172429095694" departLane="free" arrivalSpeed="0.0"/>
  <flow id="JF407573" begin="180" fromJunction="J3" toJunction="J0" end="240" vehsPerHour="476.86311059810953" departLane="free" arrivalSpeed="0.0"/>
  <flow id="JF407574" begin="180" fromJunction="J3" toJunction="J4" end="240" vehsPerHour="379.4855770404896" departLane="free" arrivalSpeed="0.0"/>
  <flow id="JF407575" begin="180" fromJunction="J3" toJunction="J6" end="240" vehsPerHour="191.3186498785874" departLane="free" arrivalSpeed="0.0"/>
  <flow id="JF407576" begin="180" fromJunction="J3" toJunction="J7" end="240" vehsPerHour="111.7307007928787" departLane="free" arrivalSpeed="0.0"/>
  <flow id="JF407577" begin="180" fromJunction="J4" toJunction="J3" end="240" vehsPerHour="50.30410325560779" departLane="free" arrivalSpeed="0.0"/>
  <flow id="JF407578" begin="180" fromJunction="J4" toJunction="J6" end="240" vehsPerHour="267.0810385778063" departLane="free" arrivalSpeed="0.0"/>
  <flow id="JF407579" begin="180" fromJunction="J4" toJunction="J7" end="240" vehsPerHour="157.7767421217372" departLane="free" arrivalSpeed="0.0"/>
  <flow id="JF407580" begin="180" fromJunction="J5" toJunction="J4" end="240" vehsPerHour="240.2574636644636" departLane="free" arrivalSpeed="0.0"/>
  <flow id="JF407581" begin="180" fromJunction="J5" toJunction="J7" end="240" vehsPerHour="121.35208539478865" departLane="free" arrivalSpeed="0.0"/>
  <flow id="JF407582" begin="180" fromJunction="J6" toJunction="J0" end="240" vehsPerHour="213.95308060488006" departLane="free" arrivalSpeed="0.0"/>
  <flow id="JF407583" begin="180" fromJunction="J6" toJunction="J3" end="240" vehsPerHour="190.60269177159606" departLane="free" arrivalSpeed="0.0"/>
  <flow id="JF407584" begin="180" fromJunction="J6" toJunction="J4" end="240" vehsPerHour="188.6113043187217" departLane="free" arrivalSpeed="0.0"/>
  <flow id="JF407585" begin="180" fromJunction="J6" toJunction="J5" end="240" vehsPerHour="47.1094285089879" departLane="free" arrivalSpeed="0.0"/>
  <flow id="JF407586" begin="180" fromJunction="J7" toJunction="J3" end="240" vehsPerHour="112.80435313129462" departLane="free" arrivalSpeed="0.0"/>
  <flow id="JF407587" begin="180" fromJunction="J7" toJunction="J5" end="240" vehsPerHour="238.74800614385958" departLane="free" arrivalSpeed="0.0"/>
  <flow id="JF407588" begin="240" fromJunction="J0" toJunction="J3" end="300" vehsPerHour="343.09646066236036" departLane="free" arrivalSpeed="0.0"/>
  <flow id="JF407589" begin="240" fromJunction="J0" toJunction="J5" end="300" vehsPerHour="508.19501284314333" departLane="free" arrivalSpeed="0.0"/>
  <flow id="JF407590" begin="240" fromJunction="J0" toJunction="J6" end="300" vehsPerHour="260.86925648937125" departLane="free" arrivalSpeed="0.0"/>
  <flow id="JF407591" begin="240" fromJunction="J3" toJunction="J0" end="300" vehsPerHour="469.55750495550376" departLane="free" arrivalSpeed="0.0"/>
  <flow id="JF407592" begin="240" fromJunction="J3" toJunction="J4" end="300" vehsPerHour="20.748362140974912" departLane="free" arrivalSpeed="0.0"/>
  <flow id="JF407593" begin="240" fromJunction="J3" toJunction="J5" end="300" vehsPerHour="198.11349681072647" departLane="free" arrivalSpeed="0.0"/>
  <flow id="JF407594" begin="240" fromJunction="J4" toJunction="J3" end="300" vehsPerHour="207.1267857784227" departLane="free" arrivalSpeed="0.0"/>
  <flow id="JF407595" begin="240" fromJunction="J4" toJunction="J5" end="300" vehsPerHour="219.41302722404293" departLane="free" arrivalSpeed="0.0"/>
  <flow id="JF407596" begin="240" fromJunction="J4" toJunction="J6" end="300" vehsPerHour="176.59118220888786" departLane="free" arrivalSpeed="0.0"/>
  <flow id="JF407597" begin="240" fromJunction="J4" toJunction="J7" end="300" vehsPerHour="210.33897027096273" departLane="free" arrivalSpeed="0.0"/>
  <flow id="JF407598" begin="240" fromJunction="J5" toJunction="J3" end="300" vehsPerHour="70.3870241382088" departLane="free" arrivalSpeed="0.0"/>
  <flow id="JF407599" begin="240" fromJunction="J5" toJunction="J6" end="300" vehsPerHour="141.00537199526997" departLane="free" arrivalSpeed="0.0"/>
  <flow id="JF407600" begin="240" fromJunction="J5" toJunction="J7" end="300" vehsPerHour="9.857547307894782" departLane="free" arrivalSpeed="0.0"/>
  <flow id="JF407601" begin="240" fromJunction="J6" toJunction="J0" end="300" vehsPerHour="113.29963143482576" departLane="free" arrivalSpeed="0.0"/>
  <flow id="JF407602" begin="240" fromJunction="J6" toJunction="J3" end="300" vehsPerHour="235.73179470651888" departLane="free" arrivalSpeed="0.0"/>
  <flow id="JF407603" begin="240" fromJunction="J6" toJunction="J4" end="300" vehsPerHour="142.07044978409618" departLane="free" arrivalSpeed="0.0"/>
  <flow id="JF407604" begin="240" fromJunction="J6" toJunction="J7" end="300" vehsPerHour="87.00145033869954" departLane="free" arrivalSpeed="0.0"/>
  <flow id="JF407605" begin="240" fromJunction="J7" toJunction="J3" end="300" vehsPerHour="213.43223631458423" departLane="free" arrivalSpeed="0.0"/>
  <flow id="JF407606" begin="240" fromJunction="J7" toJunction="J6" end="300" vehsPerHour="50.88385083879742" departLane="free" arrivalSpeed="0.0"/>
  <flow id="JF407607" begin="300" fromJunction="J0" toJunction="J5" end="360" vehsPerHour="254.53887076878854" departLane="free" arrivalSpeed="0.0"/>
  <flow id="JF407608" begin="300" fromJunction="J0" toJunction="J7" end="360" vehsPerHour="52.494289811017445" departLane="free" arrivalSpeed="0.0"/>
  <flow id="JF407609" begin="300" fromJunction="J3" toJunction="J6" end="360" vehsPerHour="34.985988238137416" departLane="free" arrivalSpeed="0.0"/>
  <flow id="JF407610" begin="300" fromJunction="J4" toJunction="J0" end="360" vehsPerHour="127.90305187577383" departLane="free" arrivalSpeed="0.0"/>
  <flow id="JF407611" begin="300" fromJunction="J4" toJunction="J3" end="360" vehsPerHour="82.92449732046946" departLane="free" arrivalSpeed="0.0"/>
  <flow id="JF407612" begin="300" fromJunction="J4" toJunction="J5" end="360" vehsPerHour="67.1470452631717" departLane="free" arrivalSpeed="0.0"/>
  <flow id="JF407613" begin="300" fromJunction="J4" toJunction="J6" end="360" vehsPerHour="193.69720133416433" departLane="free" arrivalSpeed="0.0"/>
  <flow id="JF407614" begin="300" fromJunction="J5" toJunction="J4" end="360" vehsPerHour="180.55374133983224" departLane="free" arrivalSpeed="0.0"/>
  <flow id="JF407615" begin="300" fromJunction="J6" toJunction="J0" end="360" vehsPerHour="0.46980532251433793" departLane="free" arrivalSpeed="0.0"/>
  <flow id="JF407616" begin="300" fromJunction="J6" toJunction="J3" end="360" vehsPerHour="35.52302062430842" departLane="free" arrivalSpeed="0.0"/>
  <flow id="JF407617" begin="300" fromJunction="J7" toJunction="J3" end="360" vehsPerHour="180.7932883783834" departLane="free" arrivalSpeed="0.0"/>
  <flow id="JF407618" begin="300" fromJunction="J7" toJunction="J5" end="360" vehsPerHour="212.4961418044878" departLane="free" arrivalSpeed="0.0"/>
  <flow id="JF407619" begin="360" fromJunction="J0" toJunction="J4" end="420" vehsPerHour="499.0592136830148" departLane="free" arrivalSpeed="0.0"/>
  <flow id="JF407620" begin="360" fromJunction="J0" toJunction="J5" end="420" vehsPerHour="536.3313707440434" departLane="free" arrivalSpeed="0.0"/>
  <flow id="JF407621" begin="360" fromJunction="J0" toJunction="J6" end="420" vehsPerHour="422.7068835718929" departLane="free" arrivalSpeed="0.0"/>
  <flow id="JF407622" begin="360" fromJunction="J0" toJunction="J7" end="420" vehsPerHour="323.6271779774314" departLane="free" arrivalSpeed="0.0"/>
  <flow id="JF407623" begin="360" fromJunction="J3" toJunction="J4" end="420" vehsPerHour="543.9522964095772" departLane="free" arrivalSpeed="0.0"/>
  <flow id="JF407624" begin="360" fromJunction="J4" toJunction="J0" end="420" vehsPerHour="138.56922205152185" departLane="free" arrivalSpeed="0.0"/>
  <flow id="JF407625" begin="360" fromJunction="J4" toJunction="J3" end="420" vehsPerHour="181.15800141893354" departLane="free" arrivalSpeed="0.0"/>
  <flow id="JF407626" begin="360" fromJunction="J4" toJunction="J5" end="420" vehsPerHour="59.164165089954544" departLane="free" arrivalSpeed="0.0"/>
  <flow id="JF407627" begin="360" fromJunction="J4" toJunction="J6" end="420" vehsPerHour="86.95110162507686" departLane="free" arrivalSpeed="0.0"/>
  <flow id="JF407628" begin="360" fromJunction="J4" toJunction="J7" end="420" vehsPerHour="20.603366258036715" departLane="free" arrivalSpeed="0.0"/>
  <flow id="JF407629" begin="360" fromJunction="J5" toJunction="J0" end="420" vehsPerHour="173.7928466175387" departLane="free" arrivalSpeed="0.0"/>
  <flow id="JF407630" begin="360" fromJunction="J5" toJunction="J3" end="420" vehsPerHour="248.99878270898165" departLane="free" arrivalSpeed="0.0"/>
  <flow id="JF407631" begin="360" fromJunction="J5" toJunction="J4" end="420" vehsPerHour="147.15183536275853" departLane="free" arrivalSpeed="0.0"/>
  <flow id="JF407632" begin="360" fromJunction="J5" toJunction="J6" end="420" vehsPerHour="13.761800291341512" departLane="free" arrivalSpeed="0.0"/>
  <flow id="JF407633" begin="360" fromJunction="J6" toJunction="J3" end="420" vehsPerHour="266.89312454345514" departLane="free" arrivalSpeed="0.0"/>
  <flow id="JF407634" begin="360" fromJunction="J6" toJunction="J4" end="420" vehsPerHour="258.8480542080415" departLane="free" arrivalSpeed="0.0"/>
  <flow id="JF407635" begin="360" fromJunction="J6" toJunction="J5" end="420" vehsPerHour="100.34032837219571" departLane="free" arrivalSpeed="0.0"/>
  <flow id="JF407636" begin="360" fromJunction="J7" toJunction="J0" end="420" vehsPerHour="147.80886022888419" departLane="free" arrivalSpeed="0.0"/>
  <flow id="JF407637" begin="360" fromJunction="J7" toJunction="J3" end="420" vehsPerHour="256.9864104759497" departLane="free" arrivalSpeed="0.0"/>
  <flow id="JF407638" begin="360" fromJunction="J7" toJunction="J6" end="420" vehsPerHour="52.306845753606666" departLane="free" arrivalSpeed="0.0"/>
  <flow id="JF407639" begin="420" fromJunction="J0" toJunction="J3" end="480" vehsPerHour="125.75147193051842" departLane="free" arrivalSpeed="0.0"/>
  <flow id="JF407640" begin="420" fromJunction="J0" toJunction="J4" end="480" vehsPerHour="390.58863293463105" departLane="free" arrivalSpeed="0.0"/>
  <flow id="JF407641" begin="420" fromJunction="J0" toJunction="J5" end="480" vehsPerHour="425.6476047676826" departLane="free" arrivalSpeed="0.0"/>
  <flow id="JF407642" begin="420" fromJunction="J0" toJunction="J6" end="480" vehsPerHour="206.90496638922963" departLane="free" arrivalSpeed="0.0"/>
  <flow id="JF407643" begin="420" fromJunction="J3" toJunction="J5" end="480" vehsPerHour="122.60425182351888" departLane="free" arrivalSpeed="0.0"/>
  <flow id="JF407644" begin="420" fromJunction="J3" toJunction="J6" end="480" vehsPerHour="511.38313574710327" departLane="free" arrivalSpeed="0.0"/>
  <flow id="JF407645" begin="420" fromJunction="J3" toJunction="J7" end="480" vehsPerHour="391.2464596396507" departLane="free" arrivalSpeed="0.0"/>
  <flow id="JF407646" begin="420" fromJunction="J4" toJunction="J5" end="480" vehsPerHour="251.71793107536263" departLane="free" arrivalSpeed="0.0"/>
  <flow id="JF407647" begin="420" fromJunction="J4" toJunction="J6" end="480" vehsPerHour="258.90572087879565" departLane="free" arrivalSpeed="0.0"/>
  <flow id="JF407648" begin="420" fromJunction="J4" toJunction="J7" end="480" vehsPerHour="261.65257954950204" departLane="free" arrivalSpeed="0.0"/>
  <flow id="JF407649" begin="420" fromJunction="J5" toJunction="J0" end="480" vehsPerHour="56.184740264099354" departLane="free" arrivalSpeed="0.0"/>
  <flow id="JF407650" begin="420" fromJunction="J5" toJunction="J3" end="480" vehsPerHour="140.59620984016547" departLane="free" arrivalSpeed="0.0"/>
  <flow id="JF407651" begin="420" fromJunction="J5" toJunction="J4" end="480" vehsPerHour="198.12959519504025" departLane="free" arrivalSpeed="0.0"/>
  <flow id="JF407652" begin="420" fromJunction="J5" toJunction="J6" end="480" vehsPerHour="187.42460451473613" departLane="free" arrivalSpeed="0.0"/>
  <flow id="JF407653" begin="420" fromJunction="J5" toJunction="J7" end="480" vehsPerHour="64.46137764381581" departLane="free" arrivalSpeed="0.0"/>
  <flow id="JF407654" begin="420" fromJunction="J6" toJunction="J3" end="480" vehsPerHour="248.2532475527845" departLane="free" arrivalSpeed="0.0"/>
  <flow id="JF407655" begin="420" fromJunction="J6" toJunction="J4" end="480" vehsPerHour="229.13141305064468" departLane="free" arrivalSpeed="0.0"/>
  <flow id="JF407656" begin="420" fromJunction="J6" toJunction="J7" end="480" vehsPerHour="83.6672973920962" departLane="free" arrivalSpeed="0.0"/>
  <flow id="JF407657" begin="420" fromJunction="J7" toJunction="J3" end="480" vehsPerHour="258.4871410769942" departLane="free" arrivalSpeed="0.0"/>
  <flow id="JF407658" begin="420" fromJunction="J7" toJunction="J4" end="480" vehsPerHour="108.05042143595922" departLane="free" arrivalSpeed="0.0"/>
  <flow id="JF407659" begin="420" fromJunction="J7" toJunction="J5" end="480" vehsPerHour="88.90373514366475" departLane="free" arrivalSpeed="0.0"/>
  <flow id="JF407660" begin="420" fromJunction="J7" toJunction="J6" end="480" vehsPerHour="151.60384495004604" departLane="free" arrivalSpeed="0.0"/>
  <flow id="JF407661" begin="480" fromJunction="J0" toJunction="J5" end="540" vehsPerHour="244.64894045341026" departLane="free" arrivalSpeed="0.0"/>
  <flow id="JF407662" begin="480" fromJunction="J0" toJunction="J7" end="540" vehsPerHour="220.5874158294706" departLane="free" arrivalSpeed="0.0"/>
  <flow id="JF407663" begin="480" fromJunction="J3" toJunction="J0" end="540" vehsPerHour="4.454468230013193" departLane="free" arrivalSpeed="0.0"/>
  <flow id="JF407664" begin="480" fromJunction="J3" toJunction="J4" end="540" vehsPerHour="16.14787381487866" departLane="free" arrivalSpeed="0.0"/>
  <flow id="JF407665" begin="480" fromJunction="J3" toJunction="J5" end="540" vehsPerHour="294.3025742168565" departLane="free" arrivalSpeed="0.0"/>
  <flow id="JF407666" begin="480" fromJunction="J4" toJunction="J6" end="540" vehsPerHour="60.528904024149114" departLane="free" arrivalSpeed="0.0"/>
  <flow id="JF407667" begin="480" fromJunction="J5" toJunction="J0" end="540" vehsPerHour="32.35861572179968" departLane="free" arrivalSpeed="0.0"/>
  <flow id="JF407668" begin="480" fromJunction="J5" toJunction="J3" end="540" vehsPerHour="99.74896630915934" departLane="free" arrivalSpeed="0.0"/>
  <flow id="JF407669" begin="480" fromJunction="J5" toJunction="J4" end="540" vehsPerHour="61.916666640544065" departLane="free" arrivalSpeed="0.0"/>
  <flow id="JF407670" begin="480" fromJunction="J5" toJunction="J6" end="540" vehsPerHour="27.035819071351725" departLane="free" arrivalSpeed="0.0"/>
  <flow id="JF407671" begin="480" fromJunction="J5" toJunction="J7" end="540" vehsPerHour="57.14457970164083" departLane="free" arrivalSpeed="0.0"/>
  <flow id="JF407672" begin="480" fromJunction="J6" toJunction="J3" end="540" vehsPerHour="256.2206733700632" departLane="free" arrivalSpeed="0.0"/>
  <flow id="JF407673" begin="480" fromJunction="J6" toJunction="J4" end="540" vehsPerHour="27.193811678272418" departLane="free" arrivalSpeed="0.0"/>
  <flow id="JF407674" begin="480" fromJunction="J6" toJunction="J5" end="540" vehsPerHour="112.30406893929917" departLane="free" arrivalSpeed="0.0"/>
  <flow id="JF407675" begin="480" fromJunction="J6" toJunction="J7" end="540" vehsPerHour="132.40380038751903" departLane="free" arrivalSpeed="0.0"/>
  <flow id="JF407676" begin="480" fromJunction="J7" toJunction="J0" end="540" vehsPerHour="124.05324285400748" departLane="free" arrivalSpeed="0.0"/>
  <flow id="JF407677" begin="480" fromJunction="J7" toJunction="J3" end="540" vehsPerHour="146.2050812361777" departLane="free" arrivalSpeed="0.0"/>
  <flow id="JF407678" begin="540" fromJunction="J0" toJunction="J3" end="600" vehsPerHour="502.65062117372526" departLane="free" arrivalSpeed="0.0"/>
  <flow id="JF407679" begin="540" fromJunction="J0" toJunction="J4" end="600" vehsPerHour="495.9639905113656" departLane="free" arrivalSpeed="0.0"/>
  <flow id="JF407680" begin="540" fromJunction="J0" toJunction="J5" end="600" vehsPerHour="499.050469762981" departLane="free" arrivalSpeed="0.0"/>
  <flow id="JF407681" begin="540" fromJunction="J0" toJunction="J6" end="600" vehsPerHour="31.062073062866805" departLane="free" arrivalSpeed="0.0"/>
  <flow id="JF407682" begin="540" fromJunction="J0" toJunction="J7" end="600" vehsPerHour="200.37020099627964" departLane="free" arrivalSpeed="0.0"/>
  <flow id="JF407683" begin="540" fromJunction="J3" toJunction="J4" end="600" vehsPerHour="217.79098733723256" departLane="free" arrivalSpeed="0.0"/>
  <flow id="JF407684" begin="540" fromJunction="J3" toJunction="J5" end="600" vehsPerHour="325.29157007688906" departLane="free" arrivalSpeed="0.0"/>
  <flow id="JF407685" begin="540" fromJunction="J3" toJunction="J6" end="600" vehsPerHour="413.85696317587184" departLane="free" arrivalSpeed="0.0"/>
  <flow id="JF407686" begin="540" fromJunction="J4" toJunction="J3" end="600" vehsPerHour="95.8822450258292" departLane="free" arrivalSpeed="0.0"/>
  <flow id="JF407687" begin="540" fromJunction="J4" toJunction="J6" end="600" vehsPerHour="92.61686261483794" departLane="free" arrivalSpeed="0.0"/>
  <flow id="JF407688" begin="540" fromJunction="J4" toJunction="J7" end="600" vehsPerHour="169.29772804053133" departLane="free" arrivalSpeed="0.0"/>
  <flow id="JF407689" begin="540" fromJunction="J5" toJunction="J3" end="600" vehsPerHour="159.3388940631259" departLane="free" arrivalSpeed="0.0"/>
  <flow id="JF407690" begin="540" fromJunction="J5" toJunction="J4" end="600" vehsPerHour="115.28313081405092" departLane="free" arrivalSpeed="0.0"/>
  <flow id="JF407691" begin="540" fromJunction="J5" toJunction="J6" end="600" vehsPerHour="95.8222613737494" departLane="free" arrivalSpeed="0.0"/>
  <flow id="JF407692" begin="540" fromJunction="J6" toJunction="J0" end="600" vehsPerHour="199.21198576693635" departLane="free" arrivalSpeed="0.0"/>
  <flow id="JF407693" begin="540" fromJunction="J6" toJunction="J3" end="600" vehsPerHour="166.44171936352174" departLane="free" arrivalSpeed="0.0"/>
  <flow id="JF407694" begin="540" fromJunction="J6" toJunction="J4" end="600" vehsPerHour="58.8955351826852" departLane="free" arrivalSpeed="0.0"/>
  <flow id="JF407695" begin="540" fromJunction="J6" toJunction="J5" end="600" vehsPerHour="48.55432655772099" departLane="free" arrivalSpeed="0.0"/>
  <flow id="JF407696" begin="540" fromJunction="J7" toJunction="J0" end="600" vehsPerHour="214.0950084236167" departLane="free" arrivalSpeed="0.0"/>
  <flow id="JF407697" begin="540" fromJunction="J7" toJunction="J4" end="600" vehsPerHour="253.48511836983428" departLane="free" arrivalSpeed="0.0"/>
  <flow id="JF407698" begin="540" fromJunction="J7" toJunction="J5" end="600" vehsPerHour="2.579615324613032" departLane="free" arrivalSpeed="0.0"/>
  <flow id="JF407699" begin="540" fromJunction="J7" toJunction="J6" end="600" vehsPerHour="29.652666298038362" departLane="free" arrivalSpeed="0.0"/>
  <flow id="JF407700" begin="600" fromJunction="J0" toJunction="J4" end="660" vehsPerHour="24.272076683593294" departLane="free" arrivalSpeed="0.0"/>
  <flow id="JF407701" begin="600" fromJunction="J0" toJunction="J5" end="660" vehsPerHour="538.8604294597751" departLane="free" arrivalSpeed="0.0"/>
  <flow id="JF407702" begin="600" fromJunction="J0" toJunction="J6" end="660" vehsPerHour="182.7681895852289" departLane="free" arrivalSpeed="0.0"/>
  <flow id="JF407703" begin="600" fromJunction="J3" toJunction="J0" end="660" vehsPerHour="31.179200999624204" departLane="free" arrivalSpeed="0.0"/>
  <flow id="JF407704" begin="600" fromJunction="J3" toJunction="J6" end="660" vehsPerHour="278.7462761916625" departLane="free" arrivalSpeed="0.0"/>
  <flow id="JF407705" begin="600" fromJunction="J3" toJunction="J7" end="660" vehsPerHour="518.7437331283724" departLane="free" arrivalSpeed="0.0"/>
  <flow id="JF407706" begin="600" fromJunction="J4" toJunction="J0" end="660" vehsPerHour="28.529178817736632" departLane="free" arrivalSpeed="0.0"/>
  <flow id="JF407707" begin="600" fromJunction="J4" toJunction="J5" end="660" vehsPerHour="116.78336089254064" departLane="free" arrivalSpeed="0.0"/>
  <flow id="JF407708" begin="600" fromJunction="J4" toJunction="J6" end="660" vehsPerHour="58.27600206272879" departLane="free" arrivalSpeed="0.0"/>
  <flow id="JF407709" begin="600" fromJunction="J4" toJunction="J7" end="660" vehsPerHour="121.07210360649937" departLane="free" arrivalSpeed="0.0"/>
  <flow id="JF407710" begin="600" fromJunction="J5" toJunction="J0" end="660" vehsPerHour="87.44529790612367" departLane="free" arrivalSpeed="0.0"/>