<?xml version="1.0" encoding="UTF-8"?>
<routes xmlns:xsi="http://www.w3.org/2001/XMLSchema-instance" xsi:noNamespaceSchemaLocation="http://sumo.dlr.de/xsd/routes_file.xsd">
  <flow id="JF410978" begin="0" fromJunction="J0" toJunction="J3" end="60" vehsPerHour="335.1006870177871" departLane="free" arrivalSpeed="0.0"/>
  <flow id="JF410979" begin="0" fromJunction="J0" toJunction="J4" end="60" vehsPerHour="451.35964900157916" departLane="free" arrivalSpeed="0.0"/>
  <flow id="JF410980" begin="0" fromJunction="J0" toJunction="J5" end="60" vehsPerHour="0.3074602158509527" departLane="free" arrivalSpeed="0.0"/>
  <flow id="JF410981" begin="0" fromJunction="J0" toJunction="J7" end="60" vehsPerHour="415.55710630293504" departLane="free" arrivalSpeed="0.0"/>
  <flow id="JF410982" begin="0" fromJunction="J3" toJunction="J4" end="60" vehsPerHour="461.92770816719855" departLane="free" arrivalSpeed="0.0"/>
  <flow id="JF410983" begin="0" fromJunction="J3" toJunction="J5" end="60" vehsPerHour="162.869936334995" departLane="free" arrivalSpeed="0.0"/>
  <flow id="JF410984" begin="0" fromJunction="J3" toJunction="J6" end="60" vehsPerHour="431.8834255978468" departLane="free" arrivalSpeed="0.0"/>
  <flow id="JF410985" begin="0" fromJunction="J3" toJunction="J7" end="60" vehsPerHour="18.759623149737596" departLane="free" arrivalSpeed="0.0"/>
  <flow id="JF410986" begin="0" fromJunction="J4" toJunction="J3" end="60" vehsPerHour="114.41746696594544" departLane="free" arrivalSpeed="0.0"/>
  <flow id="JF410987" begin="0" fromJunction="J4" toJunction="J5" end="60" vehsPerHour="45.57503746923825" departLane="free" arrivalSpeed="0.0"/>
  <flow id="JF410988" begin="0" fromJunction="J4" toJunction="J6" end="60" vehsPerHour="157.2857665894935" departLane="free" arrivalSpeed="0.0"/>
  <flow id="JF410989" begin="0" fromJunction="J4" toJunction="J7" end="60" vehsPerHour="68.56234356902245" departLane="free" arrivalSpeed="0.0"/>
  <flow id="JF410990" begin="0" fromJunction="J5" toJunction="J0" end="60" vehsPerHour="41.380153901922604" departLane="free" arrivalSpeed="0.0"/>
  <flow id="JF410991" begin="0" fromJunction="J5" toJunction="J7" end="60" vehsPerHour="136.72401611147367" departLane="free" arrivalSpeed="0.0"/>
  <flow id="JF410992" begin="0" fromJunction="J6" toJunction="J0" end="60" vehsPerHour="233.87571598045315" departLane="free" arrivalSpeed="0.0"/>
  <flow id="JF410993" begin="0" fromJunction="J6" toJunction="J5" end="60" vehsPerHour="214.65443795231226" departLane="free" arrivalSpeed="0.0"/>
  <flow id="JF410994" begin="0" fromJunction="J6" toJunction="J7" end="60" vehsPerHour="114.22429591819187" departLane="free" arrivalSpeed="0.0"/>
  <flow id="JF410995" begin="0" fromJunction="J7" toJunction="J3" end="60" vehsPerHour="102.6891871353376" departLane="free" arrivalSpeed="0.0"/>
  <flow id="JF410996" begin="0" fromJunction="J7" toJunction="J4" end="60" vehsPerHour="4.146073887338678" departLane="free" arrivalSpeed="0.0"/>
  <flow id="JF410997" begin="0" fromJunction="J7" toJunction="J5" end="60" vehsPerHour="68.5958634073375" departLane="free" arrivalSpeed="0.0"/>
  <flow id="JF410998" begin="0" fromJunction="J7" toJunction="J6" end="60" vehsPerHour="237.86116687906096" departLane="free" arrivalSpeed="0.0"/>
  <flow id="JF410999" begin="60" fromJunction="J0" toJunction="J4" end="120" vehsPerHour="36.360158441401566" departLane="free" arrivalSpeed="0.0"/>
  <flow id="JF411000" begin="60" fromJunction="J0" toJunction="J5" end="120" vehsPerHour="304.8060317123838" departLane="free" arrivalSpeed="0.0"/>
  <flow id="JF411001" begin="60" fromJunction="J0" toJunction="J6" end="120" vehsPerHour="209.257684907348" departLane="free" arrivalSpeed="0.0"/>
  <flow id="JF411002" begin="60" fromJunction="J3" toJunction="J0" end="120" vehsPerHour="342.9431143868236" departLane="free" arrivalSpeed="0.0"/>
  <flow id="JF411003" begin="60" fromJunction="J3" toJunction="J4" end="120" vehsPerHour="224.70251973991896" departLane="free" arrivalSpeed="0.0"/>
  <flow id="JF411004" begin="60" fromJunction="J3" toJunction="J5" end="120" vehsPerHour="179.14675033912417" departLane="free" arrivalSpeed="0.0"/>
  <flow id="JF411005" begin="60" fromJunction="J3" toJunction="J6" end="120" vehsPerHour="94.93432692093225" departLane="free" arrivalSpeed="0.0"/>
  <flow id="JF411006" begin="60" fromJunction="J4" toJunction="J0" end="120" vehsPerHour="20.759037957005752" departLane="free" arrivalSpeed="0.0"/>
  <flow id="JF411007" begin="60" fromJunction="J4" toJunction="J3" end="120" vehsPerHour="274.66627736977074" departLane="free" arrivalSpeed="0.0"/>
  <flow id="JF411008" begin="60" fromJunction="J4" toJunction="J5" end="120" vehsPerHour="135.37140192958566" departLane="free" arrivalSpeed="0.0"/>
  <flow id="JF411009" begin="60" fromJunction="J4" toJunction="J6" end="120" vehsPerHour="237.33974535474042" departLane="free" arrivalSpeed="0.0"/>
  <flow id="JF411010" begin="60" fromJunction="J4" toJunction="J7" end="120" vehsPerHour="245.07260125497095" departLane="free" arrivalSpeed="0.0"/>
  <flow id="JF411011" begin="60" fromJunction="J5" toJunction="J4" end="120" vehsPerHour="236.88989847509077" departLane="free" arrivalSpeed="0.0"/>
  <flow id="JF411012" begin="60" fromJunction="J5" toJunction="J6" end="120" vehsPerHour="23.184034502387064" departLane="free" arrivalSpeed="0.0"/>
  <flow id="JF411013" begin="60" fromJunction="J6" toJunction="J3" end="120" vehsPerHour="186.57234398698364" departLane="free" arrivalSpeed="0.0"/>
  <flow id="JF411014" begin="60" fromJunction="J6" toJunction="J4" end="120" vehsPerHour="195.11985112394237" departLane="free" arrivalSpeed="0.0"/>
  <flow id="JF411015" begin="60" fromJunction="J6" toJunction="J5" end="120" vehsPerHour="28.703934978441968" departLane="free" arrivalSpeed="0.0"/>
  <flow id="JF411016" begin="60" fromJunction="J6" toJunction="J7" end="120" vehsPerHour="150.9769469242658" departLane="free" arrivalSpeed="0.0"/>
  <flow id="JF411017" begin="60" fromJunction="J7" toJunction="J0" end="120" vehsPerHour="163.96322019392926" departLane="free" arrivalSpeed="0.0"/>
  <flow id="JF411018" begin="60" fromJunction="J7" toJunction="J3" end="120" vehsPerHour="163.28103322390635" departLane="free" arrivalSpeed="0.0"/>
  <flow id="JF411019" begin="60" fromJunction="J7" toJunction="J4" end="120" vehsPerHour="177.5310068879309" departLane="free" arrivalSpeed="0.0"/>
  <flow id="JF411020" begin="60" fromJunction="J7" toJunction="J5" end="120" vehsPerHour="108.51653561768067" departLane="free" arrivalSpeed="0.0"/>
  <flow id="JF411021" begin="60" fromJunction="J7" toJunction="J6" end="120" vehsPerHour="106.14987681316335" departLane="free" arrivalSpeed="0.0"/>
  <flow id="JF411022" begin="120" fromJunction="J0" toJunction="J3" end="180" vehsPerHour="223.6586180642748" departLane="free" arrivalSpeed="0.0"/>
  <flow id="JF411023" begin="120" fromJunction="J0" toJunction="J4" end="180" vehsPerHour="272.6249912505075" departLane="free" arrivalSpeed="0.0"/>
  <flow id="JF411024" begin="120" fromJunction="J0" toJunction="J7" end="180" vehsPerHour="146.46099016246941" departLane="free" arrivalSpeed="0.0"/>
  <flow id="JF411025" begin="120" fromJunction="J3" toJunction="J0" end="180" vehsPerHour="342.8288847137649" departLane="free" arrivalSpeed="0.0"/>
  <flow id="JF411026" begin="120" fromJunction="J3" toJunction="J4" end="180" vehsPerHour="156.01425827741713" departLane="free" arrivalSpeed="0.0"/>
  <flow id="JF411027" begin="120" fromJunction="J3" toJunction="J5" end="180" vehsPerHour="1.2215533310692683" departLane="free" arrivalSpeed="0.0"/>
  <flow id="JF411028" begin="120" fromJunction="J3" toJunction="J6" end="180" vehsPerHour="278.49858899735034" departLane="free" arrivalSpeed="0.0"/>
  <flow id="JF411029" begin="120" fromJunction="J3" toJunction="J7" end="180" vehsPerHour="204.5714314508543" departLane="free" arrivalSpeed="0.0"/>
  <flow id="JF411030" begin="120" fromJunction="J4" toJunction="J3" end="180" vehsPerHour="197.23188598075131" departLane="free" arrivalSpeed="0.0"/>
  <flow id="JF411031" begin="120" fromJunction="J4" toJunction="J5" end="180" vehsPerHour="144.9141574762416" departLane="free" arrivalSpeed="0.0"/>
  <flow id="JF411032" begin="120" fromJunction="J4" toJunction="J6" end="180" vehsPerHour="46.62574033335637" departLane="free" arrivalSpeed="0.0"/>
  <flow id="JF411033" begin="120" fromJunction="J4" toJunction="J7" end="180" vehsPerHour="147.02163878677558" departLane="free" arrivalSpeed="0.0"/>
  <flow id="JF411034" begin="120" fromJunction="J5" toJunction="J0" end="180" vehsPerHour="173.1089074530572" departLane="free" arrivalSpeed="0.0"/>
  <flow id="JF411035" begin="120" fromJunction="J5" toJunction="J4" end="180" vehsPerHour="78.35780849432201" departLane="free" arrivalSpeed="0.0"/>
  <flow id="JF411036" begin="120" fromJunction="J6" toJunction="J0" end="180" vehsPerHour="68.21753218868874" departLane="free" arrivalSpeed="0.0"/>
  <flow id="JF411037" begin="120" fromJunction="J6" toJunction="J4" end="180" vehsPerHour="104.21814675983559" departLane="free" arrivalSpeed="0.0"/>
  <flow id="JF411038" begin="120" fromJunction="J6" toJunction="J5" end="180" vehsPerHour="197.61994679712868" departLane="free" arrivalSpeed="0.0"/>
  <flow id="JF411039" begin="120" fromJunction="J7" toJunction="J0" end="180" vehsPerHour="112.1892527692063" departLane="free" arrivalSpeed="0.0"/>
  <flow id="JF411040" begin="120" fromJunction="J7" toJunction="J3" end="180" vehsPerHour="106.26122453708686" departLane="free" arrivalSpeed="0.0"/>
  <flow id="JF411041" begin="120" fromJunction="J7" toJunction="J4" end="180" vehsPerHour="118.42352916977734" departLane="free" arrivalSpeed="0.0"/>
  <flow id="JF411042" begin="120" fromJunction="J7" toJunction="J6" end="180" vehsPerHour="188.97818445675676" departLane="free" arrivalSpeed="0.0"/>
  <flow id="JF411043" begin="180" fromJunction="J0" toJunction="J5" end="240" vehsPerHour="79.96872470963208" departLane="free" arrivalSpeed="0.0"/>
  <flow id="JF411044" begin="180" fromJunction="J0" toJunction="J6" end="240" vehsPerHour="149.87909403288091" departLane="free" arrivalSpeed="0.0"/>
  <flow id="JF411045" begin="180" fromJunction="J0" toJunction="J7" end="240" vehsPerHour="447.2906317192444" departLane="free" arrivalSpeed="0.0"/>
  <flow id="JF411046" begin="180" fromJunction="J3" toJunction="J0" end="240" vehsPerHour="185.26028722869142" departLane="free" arrivalSpeed="0.0"/>
  <flow id="JF411047" begin="180" fromJunction="J3" toJunction="J4" end="240" vehsPerHour="243.7633236172543" departLane="free" arrivalSpeed="0.0"/>
  <flow id="JF411048" begin="180" fromJunction="J3" toJunction="J5" end="240" vehsPerHour="510.3900539633441" departLane="free" arrivalSpeed="0.0"/>
  <flow id="JF411049" begin="180" fromJunction="J3" toJunction="J7" end="240" vehsPerHour="393.30291727976993" departLane="free" arrivalSpeed="0.0"/>
  <flow id="JF411050" begin="180" fromJunction="J4" toJunction="J0" end="240" vehsPerHour="218.48572645663518" departLane="free" arrivalSpeed="0.0"/>
  <flow id="JF411051" begin="180" fromJunction="J4" toJunction="J3" end="240" vehsPerHour="245.78282124987385" departLane="free" arrivalSpeed="0.0"/>
  <flow id="JF411052" begin="180" fromJunction="J4" toJunction="J5" end="240" vehsPerHour="61.84329985723961" departLane="free" arrivalSpeed="0.0"/>
  <flow id="JF411053" begin="180" fromJunction="J4" toJunction="J7" end="240" vehsPerHour="272.4414892371519" departLane="free" arrivalSpeed="0.0"/>
  <flow id="JF411054" begin="180" fromJunction="J5" toJunction="J0" end="240" vehsPerHour="237.8619022619416" departLane="free" arrivalSpeed="0.0"/>
  <flow id="JF411055" begin="180" fromJunction="J5" toJunction="J3" end="240" vehsPerHour="241.77460161225918" departLane="free" arrivalSpeed="0.0"/>
  <flow id="JF411056" begin="180" fromJunction="J5" toJunction="J4" end="240" vehsPerHour="32.69985280742796" departLane="free" arrivalSpeed="0.0"/>
  <flow id="JF411057" begin="180" fromJunction="J5" toJunction="J6" end="240" vehsPerHour="200.9698588338448" departLane="free" arrivalSpeed="0.0"/>
  <flow id="JF411058" begin="180" fromJunction="J6" toJunction="J3" end="240" vehsPerHour="216.8912858691368" departLane="free" arrivalSpeed="0.0"/>
  <flow id="JF411059" begin="180" fromJunction="J6" toJunction="J4" end="240" vehsPerHour="3.934195349133667" departLane="free" arrivalSpeed="0.0"/>
  <flow id="JF411060" begin="180" fromJunction="J6" toJunction="J5" end="240" vehsPerHour="39.91279397651253" departLane="free" arrivalSpeed="0.0"/>
  <flow id="JF411061" begin="180" fromJunction="J6" toJunction="J7" end="240" vehsPerHour="224.31603996055694" departLane="free" arrivalSpeed="0.0"/>
  <flow id="JF411062" begin="180" fromJunction="J7" toJunction="J0" end="240" vehsPerHour="220.3568576050013" departLane="free" arrivalSpeed="0.0"/>
  <flow id="JF411063" begin="180" fromJunction="J7" toJunction="J3" end="240" vehsPerHour="85.21508353795264" departLane="free" arrivalSpeed="0.0"/>
  <flow id="JF411064" begin="180" fromJunction="J7" toJunction="J4" end="240" vehsPerHour="56.76888662103445" departLane="free" arrivalSpeed="0.0"/>
  <flow id="JF411065" begin="180" fromJunction="J7" toJunction="J6" end="240" vehsPerHour="79.11692368173912" departLane="free" arrivalSpeed="0.0"/>
  <flow id="JF411066" begin="240" fromJunction="J0" toJunction="J3" end="300" vehsPerHour="367.00574230696657" departLane="free" arrivalSpeed="0.0"/>
  <flow id="JF411067" begin="240" fromJunction="J0" toJunction="J4" end="300" vehsPerHour="325.39061656252295" departLane="free" arrivalSpeed="0.0"/>
  <flow id="JF411068" begin="240" fromJunction="J0" toJunction="J5" end="300" vehsPerHour="169.9379957405395" departLane="free" arrivalSpeed="0.0"/>
  <flow id="JF411069" begin="240" fromJunction="J0" toJunction="J6" end="300" vehsPerHour="534.0648313365533" departLane="free" arrivalSpeed="0.0"/>
  <flow id="JF411070" begin="240" fromJunction="J0" toJunction="J7" end="300" vehsPerHour="261.86666296971026" departLane="free" arrivalSpeed="0.0"/>
  <flow id="JF411071" begin="240" fromJunction="J3" toJunction="J5" end="300" vehsPerHour="258.99912383739377" departLane="free" arrivalSpeed="0.0"/>
  <flow id="JF411072" begin="240" fromJunction="J3" toJunction="J6" end="300" vehsPerHour="84.60507489197295" departLane="free" arrivalSpeed="0.0"/>
  <flow id="JF411073" begin="240" fromJunction="J4" toJunction="J5" end="300" vehsPerHour="90.99989214318754" departLane="free" arrivalSpeed="0.0"/>
  <flow id="JF411074" begin="240" fromJunction="J4" toJunction="J6" end="300" vehsPerHour="20.61548270011636" departLane="free" arrivalSpeed="0.0"/>
  <flow id="JF411075" begin="240" fromJunction="J4" toJunction="J7" end="300" vehsPerHour="84.03974731296418" departLane="free" arrivalSpeed="0.0"/>
  <flow id="JF411076" begin="240" fromJunction="J5" toJunction="J0" end="300" vehsPerHour="245.93187755954474" departLane="free" arrivalSpeed="0.0"/>
  <flow id="JF411077" begin="240" fromJunction="J5" toJunction="J3" end="300" vehsPerHour="135.82657158386075" departLane="free" arrivalSpeed="0.0"/>
  <flow id="JF411078" begin="240" fromJunction="J5" toJunction="J4" end="300" vehsPerHour="43.64454536811041" departLane="free" arrivalSpeed="0.0"/>
  <flow id="JF411079" begin="240" fromJunction="J5" toJunction="J6" end="300" vehsPerHour="219.69241378131565" departLane="free" arrivalSpeed="0.0"/>
  <flow id="JF411080" begin="240" fromJunction="J5" toJunction="J7" end="300" vehsPerHour="74.93284701331045" departLane="free" arrivalSpeed="0.0"/>
  <flow id="JF411081" begin="240" fromJunction="J6" toJunction="J0" end="300" vehsPerHour="227.08638859045624" departLane="free" arrivalSpeed="0.0"/>
  <flow id="JF411082" begin="240" fromJunction="J6" toJunction="J3" end="300" vehsPerHour="260.928921946883" departLane="free" arrivalSpeed="0.0"/>
  <flow id="JF411083" begin="240" fromJunction="J6" toJunction="J4" end="300" vehsPerHour="100.85873641463336" departLane="free" arrivalSpeed="0.0"/>
  <flow id="JF411084" begin="240" fromJunction="J7" toJunction="J0" end="300" vehsPerHour="51.377750483508585" departLane="free" arrivalSpeed="0.0"/>
  <flow id="JF411085" begin="240" fromJunction="J7" toJunction="J3" end="300" vehsPerHour="209.5788565476155" departLane="free" arrivalSpeed="0.0"/>
  <flow id="JF411086" begin="240" fromJunction="J7" toJunction="J4" end="300" vehsPerHour="37.430542432127034" departLane="free" arrivalSpeed="0.0"/>
  <flow id="JF411087" begin="240" fromJunction="J7" toJunction="J5" end="300" vehsPerHour="98.67593509584577" departLane="free" arrivalSpeed="0.0"/>
  <flow id="JF411088" begin="300" fromJunction="J0" toJunction="J3" end="360" vehsPerHour="175.22497877069264" departLane="free" arrivalSpeed="0.0"/>
  <flow id="JF411089" begin="300" fromJunction="J0" toJunction="J4" end="360" vehsPerHour="414.4101958127555" departLane="free" arrivalSpeed="0.0"/>
  <flow id="JF411090" begin="300" fromJunction="J0" toJunction="J5" end="360" vehsPerHour="281.1138316885648" departLane="free" arrivalSpeed="0.0"/>
  <flow id="JF411091" begin="300" fromJunction="J0" toJunction="J6" end="360" vehsPerHour="175.33551149875512" departLane="free" arrivalSpeed="0.0"/>
  <flow id="JF411092" begin="300" fromJunction="J0" toJunction="J7" end="360" vehsPerHour="517.4239791778876" departLane="free" arrivalSpeed="0.0"/>
  <flow id="JF411093" begin="300" fromJunction="J3" toJunction="J0" end="360" vehsPerHour="165.5659894220057" departLane="free" arrivalSpeed="0.0"/>
  <flow id="JF411094" begin="300" fromJunction="J3" toJunction="J4" end="360" vehsPerHour="96.5107115191571" departLane="free" arrivalSpeed="0.0"/>
  <flow id="JF411095" begin="300" fromJunction="J3" toJunction="J7" end="360" vehsPerHour="72.37545480203" departLane="free" arrivalSpeed="0.0"/>
  <flow id="JF411096" begin="300" fromJunction="J4" toJunction="J3" end="360" vehsPerHour="95.97113005204403" departLane="free" arrivalSpeed="0.0"/>
  <flow id="JF411097" begin="300" fromJunction="J4" toJunction="J6" end="360" vehsPerHour="150.5301967575684" departLane="free" arrivalSpeed="0.0"/>
  <flow id="JF411098" begin="300" fromJunction="J4" toJunction="J7" end="360" vehsPerHour="164.073116457505" departLane="free" arrivalSpeed="0.0"/>
  <flow id="JF411099" begin="300" fromJunction="J5" toJunction="J3" end="360" vehsPerHour="143.721237271189" departLane="free" arrivalSpeed="0.0"/>
  <flow id="JF411100" begin="300" fromJunction="J5" toJunction="J4" end="360" vehsPerHour="151.7423994963333" departLane="free" arrivalSpeed="0.0"/>
  <flow id="JF411101" begin="300" fromJunction="J5" toJunction="J6" end="360" vehsPerHour="101.99541599566777" departLane="free" arrivalSpeed="0.0"/>
  <flow id="JF411102" begin="300" fromJunction="J5" toJunction="J7" end="360" vehsPerHour="51.075461358141325" departLane="free" arrivalSpeed="0.0"/>
  <flow id="JF411103" begin="300" fromJunction="J6" toJunction="J0" end="360" vehsPerHour="2.775830567635107" departLane="free" arrivalSpeed="0.0"/>
  <flow id="JF411104" begin="300" fromJunction="J6" toJunction="J3" end="360" vehsPerHour="34.45550713552244" departLane="free" arrivalSpeed="0.0"/>
  <flow id="JF411105" begin="300" fromJunction="J6" toJunction="J4" end="360" vehsPerHour="44.71554965481266" departLane="free" arrivalSpeed="0.0"/>
  <flow id="JF411106" begin="300" fromJunction="J6" toJunction="J5" end="360" vehsPerHour="251.79750198432123" departLane="free" arrivalSpeed="0.0"/>
  <flow id="JF411107" begin="300" fromJunction="J7" toJunction="J0" end="360" vehsPerHour="169.84679152626882" departLane="free" arrivalSpeed="0.0"/>
  <flow id="JF411108" begin="300" fromJunction="J7" toJunction="J3" end="360" vehsPerHour="228.4772129343398" departLane="free" arrivalSpeed="0.0"/>
  <flow id="JF411109" begin="300" fromJunction="J7" toJunction="J4" end="360" vehsPerHour="132.28041363671306" departLane="free" arrivalSpeed="0.0"/>
  <flow id="JF411110" begin="300" fromJunction="J7" toJunction="J5" end="360" vehsPerHour="55.82495540698378" departLane="free" arrivalSpeed="0.0"/>
  <flow id="JF411111" begin="300" fromJunction="J7" toJunction="J6" end="360" vehsPerHour="193.04181976638094" departLane="free" arrivalSpeed="0.0"/>
  <flow id="JF411112" begin="360" fromJunction="J0" toJunction="J4" end="420" vehsPerHour="422.40176466550986" departLane="free" arrivalSpeed="0.0"/>
  <flow id="JF411113" begin="360" fromJunction="J0" toJunction="J6" end="420" vehsPerHour="150.44058658608873" departLane="free" arrivalSpeed="0.0"/>
  <flow id="JF411114" begin="360" fromJunction="J0" toJunction="J7" end="420" vehsPerHour="118.70356210506733" departLane="free" arrivalSpeed="0.0"/>
  <flow id="JF411115" begin="360" fromJunction="J3" toJunction="J0" end="420" vehsPerHour="352.86504025808296" departLane="free" arrivalSpeed="0.0"/>
  <flow id="JF411116" begin="360" fromJunction="J3" toJunction="J4" end="420" vehsPerHour="540.1973079817303" departLane="free" arrivalSpeed="0.0"/>
  <flow id="JF411117" begin="360" fromJunction="J3" toJunction="J6" end="420" vehsPerHour="356.30291198138184" departLane="free" arrivalSpeed="0.0"/>
  <flow id="JF411118" begin="360" fromJunction="J3" toJunction="J7" end="420" vehsPerHour="231.73155093882335" departLane="free" arrivalSpeed="0.0"/>
  <flow id="JF411119" begin="360" fromJunction="J4" toJunction="J5" end="420" vehsPerHour="219.79609431221135" departLane="free" arrivalSpeed="0.0"/>
  <flow id="JF411120" begin="360" fromJunction="J4" toJunction="J6" end="420" vehsPerHour="200.0038126117245" departLane="free" arrivalSpeed="0.0"/>
  <flow id="JF411121" begin="360" fromJunction="J4" toJunction="J7" end="420" vehsPerHour="212.4023144548944" departLane="free" arrivalSpeed="0.0"/>
  <flow id="JF411122" begin="360" fromJunction="J5" toJunction="J0" end="420" vehsPerHour="118.35343886147433" departLane="free" arrivalSpeed="0.0"/>
  <flow id="JF411123" begin="360" fromJunction="J5" toJunction="J3" end="420" vehsPerHour="253.67397987195088" departLane="free" arrivalSpeed="0.0"/>
  <flow id="JF411124" begin="360" fromJunction="J5" toJunction="J4" end="420" vehsPerHour="81.77779547822723" departLane="free" arrivalSpeed="0.0"/>
  <flow id="JF411125" begin="360" fromJunction="J5" toJunction="J6" end="420" vehsPerHour="251.11853715383336" departLane="free" arrivalSpeed="0.0"/>
  <flow id="JF411126" begin="360" fromJunction="J5" toJunction="J7" end="420" vehsPerHour="11.049599682862892" departLane="free" arrivalSpeed="0.0"/>
  <flow id="JF411127" begin="360" fromJunction="J6" toJunction="J0" end="420" vehsPerHour="55.516048311341144" departLane="free" arrivalSpeed="0.0"/>
  <flow id="JF411128" begin="360" fromJunction="J6" toJunction="J3" end="420" vehsPerHour="184.36730934029694" departLane="free" arrivalSpeed="0.0"/>
  <flow id="JF411129" begin="360" fromJunction="J7" toJunction="J3" end="420" vehsPerHour="94.64224652613545" departLane="free" arrivalSpeed="0.0"/>
  <flow id="JF411130" begin="360" fromJunction="J7" toJunction="J4" end="420" vehsPerHour="255.74299733177884" departLane="free" arrivalSpeed="0.0"/>
  <flow id="JF411131" begin="360" fromJunction="J7" toJunction="J5" end="420" vehsPerHour="176.22194003051854" departLane="free" arrivalSpeed="0.0"/>
  <flow id="JF411132" begin="360" fromJunction="J7" toJunction="J6" end="420" vehsPerHour="76.12731578284915" departLane="free" arrivalSpeed="0.0"/>
  <flow id="JF411133" begin="420" fromJunction="J0" toJunction="J3" end="480" vehsPerHour="502.0990079345222" departLane="free" arrivalSpeed="0.0"/>
  <flow id="JF411134" begin="420" fromJunction="J0" toJunction="J4" end="480" vehsPerHour="159.58821431863572" departLane="free" arrivalSpeed="0.0"/>
  <flow id="JF411135" begin="420" fromJunction="J0" toJunction="J5" end="480" vehsPerHour="90.75349904578603" departLane="free" arrivalSpeed="0.0"/>
  <flow id="JF411136" begin="420" fromJunction="J0" toJunction="J6" end="480" vehsPerHour="341.1972175764286" departLane="free" arrivalSpeed="0.0"/>
  <flow id="JF411137" begin="420" fromJunction="J3" toJunction="J0" end="480" vehsPerHour="346.3201435274082" departLane="free" arrivalSpeed="0.0"/>
  <flow id="JF411138" begin="420" fromJunction="J3" toJunction="J4" end="480" vehsPerHour="526.2569800246667" departLane="free" arrivalSpeed="0.0"/>
  <flow id="JF411139" begin="420" fromJunction="J3" toJunction="J7" end="480" vehsPerHour="367.1123707570651" departLane="free" arrivalSpeed="0.0"/>
  <flow id="JF411140" begin="420" fromJunction="J4" toJunction="J3" end="480" vehsPerHour="170.35753377379723" departLane="free" arrivalSpeed="0.0"/>
  <flow id="JF411141" begin="420" fromJunction="J4" toJunction="J5" end="480" vehsPerHour="32.8854600568752" departLane="free" arrivalSpeed="0.0"/>
  <flow id="JF411142" begin="420" fromJunction="J4" toJunction="J6" end="480" vehsPerHour="91.69473986254589" departLane="free" arrivalSpeed="0.0"/>
  <flow id="JF411143" begin="420" fromJunction="J4" toJunction="J7" end="480" vehsPerHour="170.49906949579426" departLane="free" arrivalSpeed="0.0"/>
  <flow id="JF411144" begin="420" fromJunction="J5" toJunction="J0" end="480" vehsPerHour="1.7936203615548647" departLane="free" arrivalSpeed="0.0"/>
  <flow id="JF411145" begin="420" fromJunction="J5" toJunction="J4" end="480" vehsPerHour="56.40786190303632" departLane="free" arrivalSpeed="0.0"/>
  <flow id="JF411146" begin="420" fromJunction="J5" toJunction="J6" end="480" vehsPerHour="162.50124191381394" departLane="free" arrivalSpeed="0.0"/>
  <flow id="JF411147" begin="420" fromJunction="J5" toJunction="J7" end="480" vehsPerHour="91.99082666207909" departLane="free" arrivalSpeed="0.0"/>
  <flow id="JF411148" begin="420" fromJunction="J6" toJunction="J3" end="480" vehsPerHour="226.08143735528157" departLane="free" arrivalSpeed="0.0"/>
  <flow id="JF411149" begin="420" fromJunction="J6" toJunction="J4" end="480" vehsPerHour="36.33309033819401" departLane="free" arrivalSpeed="0.0"/>
  <flow id="JF411150" begin="420" fromJunction="J6" toJunction="J5" end="480" vehsPerHour="74.76649959235061" departLane="free" arrivalSpeed="0.0"/>
  <flow id="JF411151" begin="420" fromJunction="J6" toJunction="J7" end="480" vehsPerHour="162.4505853142521" departLane="free" arrivalSpeed="0.0"/>
  <flow id="JF411152" begin="420" fromJunction="J7" toJunction="J3" end="480" vehsPerHour="74.35317417687963" departLane="free" arrivalSpeed="0.0"/>
  <flow id="JF411153" begin="420" fromJunction="J7" toJunction="J4" end="480" vehsPerHour="134.4194259673004" departLane="free" arrivalSpeed="0.0"/>
  <flow id="JF411154" begin="420" fromJunction="J7" toJunction="J5" end="480" vehsPerHour="145.22549146758627" departLane="free" arrivalSpeed="0.0"/>
  <flow id="JF411155" begin="420" fromJunction="J7" toJunction="J6" end="480" vehsPerHour="273.7095546860605" departLane="free" arrivalSpeed="0.0"/>
  <flow id="JF411156" begin="480" fromJunction="J0" toJunction="J5" end="540" vehsPerHour="346.59446345593693" departLane="free" arrivalSpeed="0.0"/>
  <flow id="JF411157" begin="480" fromJunction="J0" toJunction="J6" end="540" vehsPerHour="336.41185196816593" departLane="free" arrivalSpeed="0.0"/>
  <flow id="JF411158" begin="480" fromJunction="J0" toJunction="J7" end="540" vehsPerHour="100.9683250197546" departLane="free" arrivalSpeed="0.0"/>
  <flow id="JF411159" begin="480" fromJunction="J3" toJunction="J0" end="540" vehsPerHour="93.96193461176432" departLane="free" arrivalSpeed="0.0"/>
  <flow id="JF411160" begin="480" fromJunction="J3" toJunction="J5" end="540" vehsPerHour="357.48686292306314" departLane="free" arrivalSpeed="0.0"/>
  <flow id="JF411161" begin="480" fromJunction="J3" toJunction="J7" end="540" vehsPerHour="412.91716683251815" departLane="free" arrivalSpeed="0.0"/>
  <flow id="JF411162" begin="480" fromJunction="J4" toJunction="J5" end="540" vehsPerHour="156.61330131699415" departLane="free" arrivalSpeed="0.0"/>
  <flow id="JF411163" begin="480" fromJunction="J4" toJunction="J6" end="540" vehsPerHour="65.84161002036183" departLane="free" arrivalSpeed="0.0"/>
  <flow id="JF411164" begin="480" fromJunction="J4" toJunction="J7" end="540" vehsPerHour="233.06256303366294" departLane="free" arrivalSpeed="0.0"/>
  <flow id="JF411165" begin="480" fromJunction="J5" toJunction="J3" end="540" vehsPerHour="88.63186206261517" departLane="free" arrivalSpeed="0.0"/>
  <flow id="JF411166" begin="480" fromJunction="J5" toJunction="J6" end="540" vehsPerHour="210.95660301683995" departLane="free" arrivalSpeed="0.0"/>
  <flow id="JF411167" begin="480" fromJunction="J5" toJunction="J7" end="540" vehsPerHour="174.19798604013184" departLane="free" arrivalSpeed="0.0"/>
  <flow id="JF411168" begin="480" fromJunction="J6" toJunction="J3" end="540" vehsPerHour="6.622783134840864" departLane="free" arrivalSpeed="0.0"/>
  <flow id="JF411169" begin="480" fromJunction="J6" toJunction="J4" end="540" vehsPerHour="154.77960648577985" departLane="free" arrivalSpeed="0.0"/>
  <flow id="JF411170" begin="480" fromJunction="J6" toJunction="J5" end="540" vehsPerHour="61.07456671916976" departLane="free" arrivalSpeed="0.0"/>
  <flow id="JF411171" begin="480" fromJunction="J6" toJunction="J7" end="540" vehsPerHour="228.45334798348173" departLane="free" arrivalSpeed="0.0"/>
  <flow id="JF411172" begin="480" fromJunction="J7" toJunction="J0" end="540" vehsPerHour="206.12061792409122" departLane="free" arrivalSpeed="0.0"/>
  <flow id="JF411173" begin="480" fromJunction="J7" toJunction="J3" end="540" vehsPerHour="29.33423058701514" departLane="free" arrivalSpeed="0.0"/>
  <flow id="JF411174" begin="480" fromJunction="J7" toJunction="J4" end="540" vehsPerHour="82.48951134435423" departLane="free" arrivalSpeed="0.0"/>
  <flow id="JF411175" begin="480" fromJunction="J7" toJunction="J5" end="540" vehsPerHour="61.32904526284224" departLane="free" arrivalSpeed="0.0"/>
  <flow id="JF411176" begin="480" fromJunction="J7" toJunction="J6" end="540" vehsPerHour="198.05286588033104" departLane="free" arrivalSpeed="0.0"/>
  <flow id="JF411177" begin="540" fromJunction="J0" toJunction="J4" end="600" vehsPerHour="424.54797136836794" departLane="free" arrivalSpeed="0.0"/>