<?xml version="1.0" encoding="UTF-8"?>
<routes xmlns:xsi="http://www.w3.org/2001/XMLSchema-instance" xsi:noNamespaceSchemaLocation="http://sumo.dlr.de/xsd/routes_file.xsd">
  <flow id="JF414528" begin="0" fromJunction="J0" toJunction="J3" end="60" vehsPerHour="118.33203592444522" departLane="free" arrivalSpeed="0.0"/>
  <flow id="JF414529" begin="0" fromJunction="J0" toJunction="J4" end="60" vehsPerHour="420.33803116861986" departLane="free" arrivalSpeed="0.0"/>
  <flow id="JF414530" begin="0" fromJunction="J0" toJunction="J5" end="60" vehsPerHour="389.33286801949464" departLane="free" arrivalSpeed="0.0"/>
  <flow id="JF414531" begin="0" fromJunction="J0" toJunction="J6" end="60" vehsPerHour="439.8822017966777" departLane="free" arrivalSpeed="0.0"/>
  <flow id="JF414532" begin="0" fromJunction="J0" toJunction="J7" end="60" vehsPerHour="32.646264757726755" departLane="free" arrivalSpeed="0.0"/>
  <flow id="JF414533" begin="0" fromJunction="J3" toJunction="J0" end="60" vehsPerHour="530.167135595407" departLane="free" arrivalSpeed="0.0"/>
  <flow id="JF414534" begin="0" fromJunction="J3" toJunction="J4" end="60" vehsPerHour="267.06544125983" departLane="free" arrivalSpeed="0.0"/>
  <flow id="JF414535" begin="0" fromJunction="J3" toJunction="J6" end="60" vehsPerHour="169.13138417863425" departLane="free" arrivalSpeed="0.0"/>
  <flow id="JF414536" begin="0" fromJunction="J4" toJunction="J0" end="60" vehsPerHour="55.666741874958454" departLane="free" arrivalSpeed="0.0"/>
  <flow id="JF414537" begin="0" fromJunction="J4" toJunction="J5" end="60" vehsPerHour="223.67198510697045" departLane="free" arrivalSpeed="0.0"/>
  <flow id="JF414538" begin="0" fromJunction="J4" toJunction="J6" end="60" vehsPerHour="170.51972314769512" departLane="free" arrivalSpeed="0.0"/>
  <flow id="JF414539" begin="0" fromJunction="J4" toJunction="J7" end="60" vehsPerHour="44.9360447314683" departLane="free" arrivalSpeed="0.0"/>
  <flow id="JF414540" begin="0" fromJunction="J5" toJunction="J0" end="60" vehsPerHour="144.85271292617952" departLane="free" arrivalSpeed="0.0"/>
  <flow id="JF414541" begin="0" fromJunction="J5" toJunction="J7" end="60" vehsPerHour="12.132217042911837" departLane="free" arrivalSpeed="0.0"/>
  <flow id="JF414542" begin="0" fromJunction="J6" toJunction="J3" end="60" vehsPerHour="211.43133380649053" departLane="free" arrivalSpeed="0.0"/>
  <flow id="JF414543" begin="0" fromJunction="J6" toJunction="J4" end="60" vehsPerHour="162.466642734056" departLane="free" arrivalSpeed="0.0"/>
  <flow id="JF414544" begin="0" fromJunction="J6" toJunction="J5" end="60" vehsPerHour="131.86801411292367" departLane="free" arrivalSpeed="0.0"/>
  <flow id="JF414545" begin="0" fromJunction="J6" toJunction="J7" end="60" vehsPerHour="73.72113415511978" departLane="free" arrivalSpeed="0.0"/>
  <flow id="JF414546" begin="0" fromJunction="J7" toJunction="J0" end="60" vehsPerHour="150.49823535411716" departLane="free" arrivalSpeed="0.0"/>
  <flow id="JF414547" begin="0" fromJunction="J7" toJunction="J4" end="60" vehsPerHour="231.30365698395417" departLane="free" arrivalSpeed="0.0"/>
  <flow id="JF414548" begin="0" fromJunction="J7" toJunction="J5" end="60" vehsPerHour="166.73977956996853" departLane="free" arrivalSpeed="0.0"/>
  <flow id="JF414549" begin="0" fromJunction="J7" toJunction="J6" end="60" vehsPerHour="22.362020515335615" departLane="free" arrivalSpeed="0.0"/>
  <flow id="JF414550" begin="60" fromJunction="J0" toJunction="J3" end="120" vehsPerHour="307.4750283739265" departLane="free" arrivalSpeed="0.0"/>
  <flow id="JF414551" begin="60" fromJunction="J0" toJunction="J4" end="120" vehsPerHour="399.67501719654877" departLane="free" arrivalSpeed="0.0"/>
  <flow id="JF414552" begin="60" fromJunction="J0" toJunction="J5" end="120" vehsPerHour="218.94732140159812" departLane="free" arrivalSpeed="0.0"/>
  <flow id="JF414553" begin="60" fromJunction="J0" toJunction="J6" end="120" vehsPerHour="242.27362875297771" departLane="free" arrivalSpeed="0.0"/>
  <flow id="JF414554" begin="60" fromJunction="J3" toJunction="J0" end="120" vehsPerHour="508.82368928743426" departLane="free" arrivalSpeed="0.0"/>
  <flow id="JF414555" begin="60" fromJunction="J3" toJunction="J5" end="120" vehsPerHour="222.72803510836843" departLane="free" arrivalSpeed="0.0"/>
  <flow id="JF414556" begin="60" fromJunction="J3" toJunction="J7" end="120" vehsPerHour="289.2141893661089" departLane="free" arrivalSpeed="0.0"/>
  <flow id="JF414557" begin="60" fromJunction="J4" toJunction="J0" end="120" vehsPerHour="124.66680627986678" departLane="free" arrivalSpeed="0.0"/>
  <flow id="JF414558" begin="60" fromJunction="J4" toJunction="J6" end="120" vehsPerHour="68.52758317641985" departLane="free" arrivalSpeed="0.0"/>
  <flow id="JF414559" begin="60" fromJunction="J5" toJunction="J3" end="120" vehsPerHour="190.0462022628569" departLane="free" arrivalSpeed="0.0"/>
  <flow id="JF414560" begin="60" fromJunction="J5" toJunction="J4" end="120" vehsPerHour="213.0113761966603" departLane="free" arrivalSpeed="0.0"/>
  <flow id="JF414561" begin="60" fromJunction="J5" toJunction="J6" end="120" vehsPerHour="77.80015102900562" departLane="free" arrivalSpeed="0.0"/>
  <flow id="JF414562" begin="60" fromJunction="J5" toJunction="J7" end="120" vehsPerHour="55.590085036856564" departLane="free" arrivalSpeed="0.0"/>
  <flow id="JF414563" begin="60" fromJunction="J6" toJunction="J0" end="120" vehsPerHour="134.07086725801977" departLane="free" arrivalSpeed="0.0"/>
  <flow id="JF414564" begin="60" fromJunction="J6" toJunction="J3" end="120" vehsPerHour="29.786245597692616" departLane="free" arrivalSpeed="0.0"/>
  <flow id="JF414565" begin="60" fromJunction="J6" toJunction="J4" end="120" vehsPerHour="182.26948737712553" departLane="free" arrivalSpeed="0.0"/>
  <flow id="JF414566" begin="60" fromJunction="J6" toJunction="J5" end="120" vehsPerHour="259.74483982623883" departLane="free" arrivalSpeed="0.0"/>
  <flow id="JF414567" begin="60" fromJunction="J7" toJunction="J0" end="120" vehsPerHour="51.80752107530177" departLane="free" arrivalSpeed="0.0"/>
  <flow id="JF414568" begin="60" fromJunction="J7" toJunction="J4" end="120" vehsPerHour="207.91652623841492" departLane="free" arrivalSpeed="0.0"/>
  <flow id="JF414569" begin="60" fromJunction="J7" toJunction="J5" end="120" vehsPerHour="82.21589893652757" departLane="free" arrivalSpeed="0.0"/>
  <flow id="JF414570" begin="60" fromJunction="J7" toJunction="J6" end="120" vehsPerHour="268.3950955300507" departLane="free" arrivalSpeed="0.0"/>
  <flow id="JF414571" begin="120" fromJunction="J0" toJunction="J5" end="180" vehsPerHour="487.9120410076783" departLane="free" arrivalSpeed="0.0"/>
  <flow id="JF414572" begin="120" fromJunction="J0" toJunction="J6" end="180" vehsPerHour="368.49027445330665" departLane="free" arrivalSpeed="0.0"/>
  <flow id="JF414573" begin="120" fromJunction="J0" toJunction="J7" end="180" vehsPerHour="148.6804537728336" departLane="free" arrivalSpeed="0.0"/>
  <flow id="JF414574" begin="120" fromJunction="J3" toJunction="J0" end="180" vehsPerHour="242.08675875848778" departLane="free" arrivalSpeed="0.0"/>
  <flow id="JF414575" begin="120" fromJunction="J3" toJunction="J4" end="180" vehsPerHour="262.19002281570647" departLane="free" arrivalSpeed="0.0"/>
  <flow id="JF414576" begin="120" fromJunction="J3" toJunction="J6" end="180" vehsPerHour="284.91121814955125" departLane="free" arrivalSpeed="0.0"/>
  <flow id="JF414577" begin="120" fromJunction="J3" toJunction="J7" end="180" vehsPerHour="476.3056545799911" departLane="free" arrivalSpeed="0.0"/>
  <flow id="JF414578" begin="120" fromJunction="J4" toJunction="J3" end="180" vehsPerHour="18.796584665286485" departLane="free" arrivalSpeed="0.0"/>
  <flow id="JF414579" begin="120" fromJunction="J4" toJunction="J6" end="180" vehsPerHour="186.98884625529394" departLane="free" arrivalSpeed="0.0"/>
  <flow id="JF414580" begin="120" fromJunction="J5" toJunction="J0" end="180" vehsPerHour="271.75554482633817" departLane="free" arrivalSpeed="0.0"/>
  <flow id="JF414581" begin="120" fromJunction="J5" toJunction="J3" end="180" vehsPerHour="181.93478135319657" departLane="free" arrivalSpeed="0.0"/>
  <flow id="JF414582" begin="120" fromJunction="J5" toJunction="J4" end="180" vehsPerHour="59.74170512428119" departLane="free" arrivalSpeed="0.0"/>
  <flow id="JF414583" begin="120" fromJunction="J5" toJunction="J6" end="180" vehsPerHour="235.296346463849" departLane="free" arrivalSpeed="0.0"/>
  <flow id="JF414584" begin="120" fromJunction="J5" toJunction="J7" end="180" vehsPerHour="187.75816584042713" departLane="free" arrivalSpeed="0.0"/>
  <flow id="JF414585" begin="120" fromJunction="J6" toJunction="J3" end="180" vehsPerHour="81.77080711529362" departLane="free" arrivalSpeed="0.0"/>
  <flow id="JF414586" begin="120" fromJunction="J6" toJunction="J4" end="180" vehsPerHour="85.89850162399496" departLane="free" arrivalSpeed="0.0"/>
  <flow id="JF414587" begin="120" fromJunction="J6" toJunction="J7" end="180" vehsPerHour="164.7040634467572" departLane="free" arrivalSpeed="0.0"/>
  <flow id="JF414588" begin="120" fromJunction="J7" toJunction="J3" end="180" vehsPerHour="238.3006111582706" departLane="free" arrivalSpeed="0.0"/>
  <flow id="JF414589" begin="120" fromJunction="J7" toJunction="J5" end="180" vehsPerHour="138.97741314570013" departLane="free" arrivalSpeed="0.0"/>
  <flow id="JF414590" begin="120" fromJunction="J7" toJunction="J6" end="180" vehsPerHour="174.60956162841003" departLane="free" arrivalSpeed="0.0"/>
  <flow id="JF414591" begin="180" fromJunction="J0" toJunction="J5" end="240" vehsPerHour="44.72845599330452" departLane="free" arrivalSpeed="0.0"/>
  <flow id="JF414592" begin="180" fromJunction="J0" toJunction="J6" end="240" vehsPerHour="272.481820711963" departLane="free" arrivalSpeed="0.0"/>
  <flow id="JF414593" begin="180" fromJunction="J0" toJunction="J7" end="240" vehsPerHour="50.572986424676735" departLane="free" arrivalSpeed="0.0"/>
  <flow id="JF414594" begin="180" fromJunction="J3" toJunction="J0" end="240" vehsPerHour="373.4554911069694" departLane="free" arrivalSpeed="0.0"/>
  <flow id="JF414595" begin="180" fromJunction="J3" toJunction="J4" end="240" vehsPerHour="457.4738584308578" departLane="free" arrivalSpeed="0.0"/>
  <flow id="JF414596" begin="180" fromJunction="J3" toJunction="J6" end="240" vehsPerHour="54.03270180198446" departLane="free" arrivalSpeed="0.0"/>
  <flow id="JF414597" begin="180" fromJunction="J3" toJunction="J7" end="240" vehsPerHour="253.12079454660343" departLane="free" arrivalSpeed="0.0"/>
  <flow id="JF414598" begin="180" fromJunction="J4" toJunction="J0" end="240" vehsPerHour="216.79375427950046" departLane="free" arrivalSpeed="0.0"/>
  <flow id="JF414599" begin="180" fromJunction="J4" toJunction="J5" end="240" vehsPerHour="91.11170837647593" departLane="free" arrivalSpeed="0.0"/>
  <flow id="JF414600" begin="180" fromJunction="J4" toJunction="J6" end="240" vehsPerHour="10.703917369158415" departLane="free" arrivalSpeed="0.0"/>
  <flow id="JF414601" begin="180" fromJunction="J4" toJunction="J7" end="240" vehsPerHour="206.07851186308898" departLane="free" arrivalSpeed="0.0"/>
  <flow id="JF414602" begin="180" fromJunction="J5" toJunction="J0" end="240" vehsPerHour="148.06810921379326" departLane="free" arrivalSpeed="0.0"/>
  <flow id="JF414603" begin="180" fromJunction="J5" toJunction="J3" end="240" vehsPerHour="5.108968055580559" departLane="free" arrivalSpeed="0.0"/>
  <flow id="JF414604" begin="180" fromJunction="J5" toJunction="J4" end="240" vehsPerHour="17.2102863770353" departLane="free" arrivalSpeed="0.0"/>
  <flow id="JF414605" begin="180" fromJunction="J5" toJunction="J6" end="240" vehsPerHour="25.9580285992028" departLane="free" arrivalSpeed="0.0"/>
  <flow id="JF414606" begin="180" fromJunction="J5" toJunction="J7" end="240" vehsPerHour="252.2460259558787" departLane="free" arrivalSpeed="0.0"/>
  <flow id="JF414607" begin="180" fromJunction="J6" toJunction="J3" end="240" vehsPerHour="3.6176251883573967" departLane="free" arrivalSpeed="0.0"/>
  <flow id="JF414608" begin="180" fromJunction="J6" toJunction="J4" end="240" vehsPerHour="30.612645705751923" departLane="free" arrivalSpeed="0.0"/>
  <flow id="JF414609" begin="180" fromJunction="J6" toJunction="J5" end="240" vehsPerHour="71.89251540173713" departLane="free" arrivalSpeed="0.0"/>
  <flow id="JF414610" begin="180" fromJunction="J6" toJunction="J7" end="240" vehsPerHour="129.14608205438003" departLane="free" arrivalSpeed="0.0"/>
  <flow id="JF414611" begin="180" fromJunction="J7" toJunction="J0" end="240" vehsPerHour="168.36160930149057" departLane="free" arrivalSpeed="0.0"/>
  <flow id="JF414612" begin="180" fromJunction="J7" toJunction="J3" end="240" vehsPerHour="58.20559506585235" departLane="free" arrivalSpeed="0.0"/>
  <flow id="JF414613" begin="180" fromJunction="J7" toJunction="J4" end="240" vehsPerHour="35.335540180256984" departLane="free" arrivalSpeed="0.0"/>
  <flow id="JF414614" begin="180" fromJunction="J7" toJunction="J5" end="240" vehsPerHour="223.53240586028784" departLane="free" arrivalSpeed="0.0"/>
  <flow id="JF414615" begin="180" fromJunction="J7" toJunction="J6" end="240" vehsPerHour="71.00643832455187" departLane="free" arrivalSpeed="0.0"/>
  <flow id="JF414616" begin="240" fromJunction="J0" toJunction="J3" end="300" vehsPerHour="169.90732519676837" departLane="free" arrivalSpeed="0.0"/>
  <flow id="JF414617" begin="240" fromJunction="J0" toJunction="J4" end="300" vehsPerHour="332.03226816416964" departLane="free" arrivalSpeed="0.0"/>
  <flow id="JF414618" begin="240" fromJunction="J0" toJunction="J6" end="300" vehsPerHour="431.5039244038766" departLane="free" arrivalSpeed="0.0"/>
  <flow id="JF414619" begin="240" fromJunction="J0" toJunction="J7" end="300" vehsPerHour="432.1955276778793" departLane="free" arrivalSpeed="0.0"/>
  <flow id="JF414620" begin="240" fromJunction="J3" toJunction="J0" end="300" vehsPerHour="503.93589432187355" departLane="free" arrivalSpeed="0.0"/>
  <flow id="JF414621" begin="240" fromJunction="J3" toJunction="J4" end="300" vehsPerHour="176.9852487578329" departLane="free" arrivalSpeed="0.0"/>
  <flow id="JF414622" begin="240" fromJunction="J3" toJunction="J6" end="300" vehsPerHour="312.65527621269007" departLane="free" arrivalSpeed="0.0"/>
  <flow id="JF414623" begin="240" fromJunction="J4" toJunction="J0" end="300" vehsPerHour="202.98325263802172" departLane="free" arrivalSpeed="0.0"/>
  <flow id="JF414624" begin="240" fromJunction="J4" toJunction="J5" end="300" vehsPerHour="80.18268672330991" departLane="free" arrivalSpeed="0.0"/>
  <flow id="JF414625" begin="240" fromJunction="J4" toJunction="J6" end="300" vehsPerHour="59.37742678898541" departLane="free" arrivalSpeed="0.0"/>
  <flow id="JF414626" begin="240" fromJunction="J4" toJunction="J7" end="300" vehsPerHour="184.77639030708343" departLane="free" arrivalSpeed="0.0"/>
  <flow id="JF414627" begin="240" fromJunction="J5" toJunction="J0" end="300" vehsPerHour="233.15203652622506" departLane="free" arrivalSpeed="0.0"/>
  <flow id="JF414628" begin="240" fromJunction="J5" toJunction="J3" end="300" vehsPerHour="267.90457767736564" departLane="free" arrivalSpeed="0.0"/>
  <flow id="JF414629" begin="240" fromJunction="J5" toJunction="J4" end="300" vehsPerHour="207.90198038120488" departLane="free" arrivalSpeed="0.0"/>
  <flow id="JF414630" begin="240" fromJunction="J5" toJunction="J6" end="300" vehsPerHour="247.53683293640583" departLane="free" arrivalSpeed="0.0"/>
  <flow id="JF414631" begin="240" fromJunction="J5" toJunction="J7" end="300" vehsPerHour="90.84566210735356" departLane="free" arrivalSpeed="0.0"/>
  <flow id="JF414632" begin="240" fromJunction="J6" toJunction="J0" end="300" vehsPerHour="185.76579318997497" departLane="free" arrivalSpeed="0.0"/>
  <flow id="JF414633" begin="240" fromJunction="J6" toJunction="J3" end="300" vehsPerHour="115.41284914825802" departLane="free" arrivalSpeed="0.0"/>
  <flow id="JF414634" begin="240" fromJunction="J6" toJunction="J4" end="300" vehsPerHour="78.24183102503267" departLane="free" arrivalSpeed="0.0"/>
  <flow id="JF414635" begin="240" fromJunction="J6" toJunction="J5" end="300" vehsPerHour="199.699734045159" departLane="free" arrivalSpeed="0.0"/>
  <flow id="JF414636" begin="240" fromJunction="J6" toJunction="J7" end="300" vehsPerHour="113.91502470121274" departLane="free" arrivalSpeed="0.0"/>
  <flow id="JF414637" begin="240" fromJunction="J7" toJunction="J0" end="300" vehsPerHour="223.00421076947782" departLane="free" arrivalSpeed="0.0"/>
  <flow id="JF414638" begin="240" fromJunction="J7" toJunction="J3" end="300" vehsPerHour="274.03992847169343" departLane="free" arrivalSpeed="0.0"/>
  <flow id="JF414639" begin="240" fromJunction="J7" toJunction="J5" end="300" vehsPerHour="246.01909593082087" departLane="free" arrivalSpeed="0.0"/>
  <flow id="JF414640" begin="240" fromJunction="J7" toJunction="J6" end="300" vehsPerHour="232.19861143734187" departLane="free" arrivalSpeed="0.0"/>
  <flow id="JF414641" begin="300" fromJunction="J0" toJunction="J4" end="360" vehsPerHour="360.00364510538594" departLane="free" arrivalSpeed="0.0"/>
  <flow id="JF414642" begin="300" fromJunction="J0" toJunction="J5" end="360" vehsPerHour="306.3837554579119" departLane="free" arrivalSpeed="0.0"/>
  <flow id="JF414643" begin="300" fromJunction="J0" toJunction="J7" end="360" vehsPerHour="363.66724006251155" departLane="free" arrivalSpeed="0.0"/>
  <flow id="JF414644" begin="300" fromJunction="J3" toJunction="J4" end="360" vehsPerHour="363.6350493686413" departLane="free" arrivalSpeed="0.0"/>
  <flow id="JF414645" begin="300" fromJunction="J3" toJunction="J6" end="360" vehsPerHour="385.02596357565204" departLane="free" arrivalSpeed="0.0"/>
  <flow id="JF414646" begin="300" fromJunction="J3" toJunction="J7" end="360" vehsPerHour="149.07097333112907" departLane="free" arrivalSpeed="0.0"/>
  <flow id="JF414647" begin="300" fromJunction="J4" toJunction="J0" end="360" vehsPerHour="270.97944452140456" departLane="free" arrivalSpeed="0.0"/>
  <flow id="JF414648" begin="300" fromJunction="J4" toJunction="J3" end="360" vehsPerHour="101.89462227371577" departLane="free" arrivalSpeed="0.0"/>
  <flow id="JF414649" begin="300" fromJunction="J4" toJunction="J5" end="360" vehsPerHour="226.60094720933913" departLane="free" arrivalSpeed="0.0"/>
  <flow id="JF414650" begin="300" fromJunction="J4" toJunction="J7" end="360" vehsPerHour="105.56920968093617" departLane="free" arrivalSpeed="0.0"/>
  <flow id="JF414651" begin="300" fromJunction="J5" toJunction="J3" end="360" vehsPerHour="51.401644756006455" departLane="free" arrivalSpeed="0.0"/>
  <flow id="JF414652" begin="300" fromJunction="J5" toJunction="J4" end="360" vehsPerHour="123.4322689900157" departLane="free" arrivalSpeed="0.0"/>
  <flow id="JF414653" begin="300" fromJunction="J5" toJunction="J7" end="360" vehsPerHour="1.9524731830956084" departLane="free" arrivalSpeed="0.0"/>
  <flow id="JF414654" begin="300" fromJunction="J6" toJunction="J3" end="360" vehsPerHour="189.29803207572877" departLane="free" arrivalSpeed="0.0"/>
  <flow id="JF414655" begin="300" fromJunction="J6" toJunction="J4" end="360" vehsPerHour="42.78422594871377" departLane="free" arrivalSpeed="0.0"/>
  <flow id="JF414656" begin="300" fromJunction="J6" toJunction="J5" end="360" vehsPerHour="214.34792097513278" departLane="free" arrivalSpeed="0.0"/>
  <flow id="JF414657" begin="300" fromJunction="J6" toJunction="J7" end="360" vehsPerHour="146.3362531418442" departLane="free" arrivalSpeed="0.0"/>
  <flow id="JF414658" begin="300" fromJunction="J7" toJunction="J0" end="360" vehsPerHour="220.967550393937" departLane="free" arrivalSpeed="0.0"/>
  <flow id="JF414659" begin="300" fromJunction="J7" toJunction="J4" end="360" vehsPerHour="190.4641883163697" departLane="free" arrivalSpeed="0.0"/>
  <flow id="JF414660" begin="300" fromJunction="J7" toJunction="J5" end="360" vehsPerHour="259.0203998633066" departLane="free" arrivalSpeed="0.0"/>
  <flow id="JF414661" begin="360" fromJunction="J0" toJunction="J3" end="420" vehsPerHour="296.53371483316647" departLane="free" arrivalSpeed="0.0"/>
  <flow id="JF414662" begin="360" fromJunction="J0" toJunction="J5" end="420" vehsPerHour="20.488219132035073" departLane="free" arrivalSpeed="0.0"/>
  <flow id="JF414663" begin="360" fromJunction="J0" toJunction="J6" end="420" vehsPerHour="44.33556857700092" departLane="free" arrivalSpeed="0.0"/>
  <flow id="JF414664" begin="360" fromJunction="J3" toJunction="J0" end="420" vehsPerHour="232.07009050514787" departLane="free" arrivalSpeed="0.0"/>
  <flow id="JF414665" begin="360" fromJunction="J3" toJunction="J4" end="420" vehsPerHour="426.8442703984006" departLane="free" arrivalSpeed="0.0"/>
  <flow id="JF414666" begin="360" fromJunction="J3" toJunction="J6" end="420" vehsPerHour="298.40853970080764" departLane="free" arrivalSpeed="0.0"/>
  <flow id="JF414667" begin="360" fromJunction="J4" toJunction="J0" end="420" vehsPerHour="20.140405584683" departLane="free" arrivalSpeed="0.0"/>
  <flow id="JF414668" begin="360" fromJunction="J4" toJunction="J3" end="420" vehsPerHour="118.21018738854963" departLane="free" arrivalSpeed="0.0"/>
  <flow id="JF414669" begin="360" fromJunction="J4" toJunction="J5" end="420" vehsPerHour="97.4807925785625" departLane="free" arrivalSpeed="0.0"/>
  <flow id="JF414670" begin="360" fromJunction="J4" toJunction="J6" end="420" vehsPerHour="3.079990796970596" departLane="free" arrivalSpeed="0.0"/>
  <flow id="JF414671" begin="360" fromJunction="J5" toJunction="J0" end="420" vehsPerHour="82.41271369039609" departLane="free" arrivalSpeed="0.0"/>
  <flow id="JF414672" begin="360" fromJunction="J5" toJunction="J3" end="420" vehsPerHour="12.291568828172998" departLane="free" arrivalSpeed="0.0"/>
  <flow id="JF414673" begin="360" fromJunction="J5" toJunction="J6" end="420" vehsPerHour="185.42188621176368" departLane="free" arrivalSpeed="0.0"/>
  <flow id="JF414674" begin="360" fromJunction="J6" toJunction="J0" end="420" vehsPerHour="44.434611510597954" departLane="free" arrivalSpeed="0.0"/>
  <flow id="JF414675" begin="360" fromJunction="J6" toJunction="J3" end="420" vehsPerHour="24.611520694814473" departLane="free" arrivalSpeed="0.0"/>
  <flow id="JF414676" begin="360" fromJunction="J6" toJunction="J4" end="420" vehsPerHour="244.61042194632296" departLane="free" arrivalSpeed="0.0"/>
  <flow id="JF414677" begin="360" fromJunction="J6" toJunction="J7" end="420" vehsPerHour="84.0997634078616" departLane="free" arrivalSpeed="0.0"/>
  <flow id="JF414678" begin="360" fromJunction="J7" toJunction="J0" end="420" vehsPerHour="123.2441301932671" departLane="free" arrivalSpeed="0.0"/>
  <flow id="JF414679" begin="360" fromJunction="J7" toJunction="J4" end="420" vehsPerHour="272.4633652443193" departLane="free" arrivalSpeed="0.0"/>
  <flow id="JF414680" begin="360" fromJunction="J7" toJunction="J5" end="420" vehsPerHour="114.91123441546206" departLane="free" arrivalSpeed="0.0"/>
  <flow id="JF414681" begin="360" fromJunction="J7" toJunction="J6" end="420" vehsPerHour="216.3012645398505" departLane="free" arrivalSpeed="0.0"/>
  <flow id="JF414682" begin="420" fromJunction="J0" toJunction="J5" end="480" vehsPerHour="230.24530988900364" departLane="free" arrivalSpeed="0.0"/>
  <flow id="JF414683" begin="420" fromJunction="J0" toJunction="J6" end="480" vehsPerHour="376.6048913151317" departLane="free" arrivalSpeed="0.0"/>
  <flow id="JF414684" begin="420" fromJunction="J0" toJunction="J7" end="480" vehsPerHour="208.16505506149676" departLane="free" arrivalSpeed="0.0"/>
  <flow id="JF414685" begin="420" fromJunction="J3" toJunction="J0" end="480" vehsPerHour="136.66693355350483" departLane="free" arrivalSpeed="0.0"/>
  <flow id="JF414686" begin="420" fromJunction="J3" toJunction="J5" end="480" vehsPerHour="538.3765627908804" departLane="free" arrivalSpeed="0.0"/>
  <flow id="JF414687" begin="420" fromJunction="J3" toJunction="J6" end="480" vehsPerHour="305.28508242486936" departLane="free" arrivalSpeed="0.0"/>
  <flow id="JF414688" begin="420" fromJunction="J3" toJunction="J7" end="480" vehsPerHour="421.733079332191" departLane="free" arrivalSpeed="0.0"/>
  <flow id="JF414689" begin="420" fromJunction="J4" toJunction="J0" end="480" vehsPerHour="273.0191159433745" departLane="free" arrivalSpeed="0.0"/>
  <flow id="JF414690" begin="420" fromJunction="J4" toJunction="J3" end="480" vehsPerHour="102.40709126669891" departLane="free" arrivalSpeed="0.0"/>
  <flow id="JF414691" begin="420" fromJunction="J4" toJunction="J5" end="480" vehsPerHour="217.7794760467349" departLane="free" arrivalSpeed="0.0"/>
  <flow id="JF414692" begin="420" fromJunction="J4" toJunction="J6" end="480" vehsPerHour="32.42405355602251" departLane="free" arrivalSpeed="0.0"/>
  <flow id="JF414693" begin="420" fromJunction="J4" toJunction="J7" end="480" vehsPerHour="68.85202327559891" departLane="free" arrivalSpeed="0.0"/>
  <flow id="JF414694" begin="420" fromJunction="J5" toJunction="J0" end="480" vehsPerHour="208.59489978179596" departLane="free" arrivalSpeed="0.0"/>
  <flow id="JF414695" begin="420" fromJunction="J5" toJunction="J3" end="480" vehsPerHour="222.35380285821665" departLane="free" arrivalSpeed="0.0"/>
  <flow id="JF414696" begin="420" fromJunction="J5" toJunction="J4" end="480" vehsPerHour="101.5010143347816" departLane="free" arrivalSpeed="0.0"/>
  <flow id="JF414697" begin="420" fromJunction="J5" toJunction="J7" end="480" vehsPerHour="167.5502266867045" departLane="free" arrivalSpeed="0.0"/>
  <flow id="JF414698" begin="420" fromJunction="J6" toJunction="J0" end="480" vehsPerHour="37.2390235301783" departLane="free" arrivalSpeed="0.0"/>
  <flow id="JF414699" begin="420" fromJunction="J6" toJunction="J3" end="480" vehsPerHour="265.13224099769064" departLane="free" arrivalSpeed="0.0"/>
  <flow id="JF414700" begin="420" fromJunction="J6" toJunction="J5" end="480" vehsPerHour="163.26015685858954" departLane="free" arrivalSpeed="0.0"/>
  <flow id="JF414701" begin="420" fromJunction="J6" toJunction="J7" end="480" vehsPerHour="73.36832977966756" departLane="free" arrivalSpeed="0.0"/>
  <flow id="JF414702" begin="420" fromJunction="J7" toJunction="J0" end="480" vehsPerHour="46.724311835402574" departLane="free" arrivalSpeed="0.0"/>
  <flow id="JF414703" begin="420" fromJunction="J7" toJunction="J4" end="480" vehsPerHour="260.97802796207094" departLane="free" arrivalSpeed="0.0"/>
  <flow id="JF414704" begin="420" fromJunction="J7" toJunction="J5" end="480" vehsPerHour="49.0009273024842" departLane="free" arrivalSpeed="0.0"/>
  <flow id="JF414705" begin="420" fromJunction="J7" toJunction="J6" end="480" vehsPerHour="212.45218314610824" departLane="free" arrivalSpeed="0.0"/>
  <flow id="JF414706" begin="480" fromJunction="J0" toJunction="J3" end="540" vehsPerHour="404.9137464552394" departLane="free" arrivalSpeed="0.0"/>
  <flow id="JF414707" begin="480" fromJunction="J0" toJunction="J4" end="540" vehsPerHour="412.4324736580526" departLane="free" arrivalSpeed="0.0"/>
  <flow id="JF414708" begin="480" fromJunction="J0" toJunction="J5" end="540" vehsPerHour="342.33440640793333" departLane="free" arrivalSpeed="0.0"/>
  <flow id="JF414709" begin="480" fromJunction="J0" toJunction="J7" end="540" vehsPerHour="12.870264995553525" departLane="free" arrivalSpeed="0.0"/>
  <flow id="JF414710" begin="480" fromJunction="J3" toJunction="J0" end="540" vehsPerHour="431.727310468458" departLane="free" arrivalSpeed="0.0"/>
  <flow id="JF414711" begin="480" fromJunction="J3" toJunction="J4" end="540" vehsPerHour="194.99916627758975" departLane="free" arrivalSpeed="0.0"/>
  <flow id="JF414712" begin="480" fromJunction="J3" toJunction="J5" end="540" vehsPerHour="377.2061457105009" departLane="free" arrivalSpeed="0.0"/>
  <flow id="JF414713" begin="480" fromJunction="J3" toJunction="J6" end="540" vehsPerHour="500.38708244517903" departLane="free" arrivalSpeed="0.0"/>
  <flow id="JF414714" begin="480" fromJunction="J4" toJunction="J0" end="540" vehsPerHour="188.6982560801636" departLane="free" arrivalSpeed="0.0"/>
  <flow id="JF414715" begin="480" fromJunction="J4" toJunction="J3" end="540" vehsPerHour="162.36259105992687" departLane="free" arrivalSpeed="0.0"/>
  <flow id="JF414716" begin="480" fromJunction="J4" toJunction="J5" end="540" vehsPerHour="125.59580836810551" departLane="free" arrivalSpeed="0.0"/>
  <flow id="JF414717" begin="480" fromJunction="J4" toJunction="J6" end="540" vehsPerHour="267.1974195632402" departLane="free" arrivalSpeed="0.0"/>
  <flow id="JF414718" begin="480" fromJunction="J4" toJunction="J7" end="540" vehsPerHour="178.2638267458457" departLane="free" arrivalSpeed="0.0"/>
  <flow id="JF414719" begin="480" fromJunction="J5" toJunction="J0" end="540" vehsPerHour="64.09808541896545" departLane="free" arrivalSpeed="0.0"/>
  <flow id="JF414720" begin="480" fromJunction="J5" toJunction="J3" end="540" vehsPerHour="47.88485477038888" departLane="free" arrivalSpeed="0.0"/>
  <flow id="JF414721" begin="480" fromJunction="J5" toJunction="J7" end="540" vehsPerHour="61.99176024434019" departLane="free" arrivalSpeed="0.0"/>
  <flow id="JF414722" begin="480" fromJunction="J6" toJunction="J0" end="540" vehsPerHour="52.973303253422344" departLane="free" arrivalSpeed="0.0"/>
  <flow id="JF414723" begin="480" fromJunction="J6" toJunction="J3" end="540" vehsPerHour="8.517327645714934" departLane="free" arrivalSpeed="0.0"/>
  <flow id="JF414724" begin="480" fromJunction="J6" toJunction="J5" end="540" vehsPerHour="251.7440807178989" departLane="free" arrivalSpeed="0.0"/>
  <flow id="JF414725" begin="480" fromJunction="J7" toJunction="J0" end="540" vehsPerHour="55.58498399762453" departLane="free" arrivalSpeed="0.0"/>
  <flow id="JF414726" begin="480" fromJunction="J7" toJunction="J3" end="540" vehsPerHour="6.337267977481855" departLane="free" arrivalSpeed="0.0"/>
  <flow id="JF414727" begin="480" fromJunction="J7" toJunction="J5" end="540" vehsPerHour="62.96416300177905" departLane="free" arrivalSpeed="0.0"/>