<?xml version="1.0" encoding="UTF-8"?>
<routes xmlns:xsi="http://www.w3.org/2001/XMLSchema-instance" xsi:noNamespaceSchemaLocation="http://sumo.dlr.de/xsd/routes_file.xsd">
  <flow id="JF404008" begin="0" fromJunction="J0" toJunction="J3" end="60" vehsPerHour="177.2077909447892" departLane="free" arrivalSpeed="0.0"/>
  <flow id="JF404009" begin="0" fromJunction="J0" toJunction="J5" end="60" vehsPerHour="159.29798786139986" departLane="free" arrivalSpeed="0.0"/>
  <flow id="JF404010" begin="0" fromJunction="J0" toJunction="J6" end="60" vehsPerHour="522.3826876306302" departLane="free" arrivalSpeed="0.0"/>
  <flow id="JF404011" begin="0" fromJunction="J0" toJunction="J7" end="60" vehsPerHour="204.19197366848854" departLane="free" arrivalSpeed="0.0"/>
  <flow id="JF404012" begin="0" fromJunction="J3" toJunction="J4" end="60" vehsPerHour="379.7622305981775" departLane="free" arrivalSpeed="0.0"/>
  <flow id="JF404013" begin="0" fromJunction="J3" toJunction="J5" end="60" vehsPerHour="17.599732163339304" departLane="free" arrivalSpeed="0.0"/>
  <flow id="JF404014" begin="0" fromJunction="J3" toJunction="J6" end="60" vehsPerHour="438.4688657579413" departLane="free" arrivalSpeed="0.0"/>
  <flow id="JF404015" begin="0" fromJunction="J3" toJunction="J7" end="60" vehsPerHour="206.00797586122505" departLane="free" arrivalSpeed="0.0"/>
  <flow id="JF404016" begin="0" fromJunction="J4" toJunction="J0" end="60" vehsPerHour="268.6935219699887" departLane="free" arrivalSpeed="0.0"/>
  <flow id="JF404017" begin="0" fromJunction="J4" toJunction="J3" end="60" vehsPerHour="160.65223276675238" departLane="free" arrivalSpeed="0.0"/>
  <flow id="JF404018" begin="0" fromJunction="J4" toJunction="J5" end="60" vehsPerHour="225.7726088834715" departLane="free" arrivalSpeed="0.0"/>
  <flow id="JF404019" begin="0" fromJunction="J4" toJunction="J7" end="60" vehsPerHour="114.63629294749023" departLane="free" arrivalSpeed="0.0"/>
  <flow id="JF404020" begin="0" fromJunction="J5" toJunction="J0" end="60" vehsPerHour="54.599039344879685" departLane="free" arrivalSpeed="0.0"/>
  <flow id="JF404021" begin="0" fromJunction="J5" toJunction="J4" end="60" vehsPerHour="49.781297542630085" departLane="free" arrivalSpeed="0.0"/>
  <flow id="JF404022" begin="0" fromJunction="J5" toJunction="J6" end="60" vehsPerHour="124.65063801553772" departLane="free" arrivalSpeed="0.0"/>
  <flow id="JF404023" begin="0" fromJunction="J5" toJunction="J7" end="60" vehsPerHour="235.12383212706132" departLane="free" arrivalSpeed="0.0"/>
  <flow id="JF404024" begin="0" fromJunction="J6" toJunction="J0" end="60" vehsPerHour="183.28940273270007" departLane="free" arrivalSpeed="0.0"/>
  <flow id="JF404025" begin="0" fromJunction="J6" toJunction="J3" end="60" vehsPerHour="198.27258980793533" departLane="free" arrivalSpeed="0.0"/>
  <flow id="JF404026" begin="0" fromJunction="J6" toJunction="J7" end="60" vehsPerHour="68.54692570196289" departLane="free" arrivalSpeed="0.0"/>
  <flow id="JF404027" begin="0" fromJunction="J7" toJunction="J3" end="60" vehsPerHour="187.10907730598643" departLane="free" arrivalSpeed="0.0"/>
  <flow id="JF404028" begin="0" fromJunction="J7" toJunction="J5" end="60" vehsPerHour="89.54161392692313" departLane="free" arrivalSpeed="0.0"/>
  <flow id="JF404029" begin="0" fromJunction="J7" toJunction="J6" end="60" vehsPerHour="232.17760574284011" departLane="free" arrivalSpeed="0.0"/>
  <flow id="JF404030" begin="60" fromJunction="J0" toJunction="J3" end="120" vehsPerHour="140.56225167034756" departLane="free" arrivalSpeed="0.0"/>
  <flow id="JF404031" begin="60" fromJunction="J0" toJunction="J4" end="120" vehsPerHour="268.63812562997475" departLane="free" arrivalSpeed="0.0"/>
  <flow id="JF404032" begin="60" fromJunction="J0" toJunction="J5" end="120" vehsPerHour="20.092304710594178" departLane="free" arrivalSpeed="0.0"/>
  <flow id="JF404033" begin="60" fromJunction="J0" toJunction="J7" end="120" vehsPerHour="40.70416348578296" departLane="free" arrivalSpeed="0.0"/>
  <flow id="JF404034" begin="60" fromJunction="J3" toJunction="J4" end="120" vehsPerHour="139.66704542391562" departLane="free" arrivalSpeed="0.0"/>
  <flow id="JF404035" begin="60" fromJunction="J3" toJunction="J5" end="120" vehsPerHour="261.6729902851925" departLane="free" arrivalSpeed="0.0"/>
  <flow id="JF404036" begin="60" fromJunction="J3" toJunction="J6" end="120" vehsPerHour="217.11272916369467" departLane="free" arrivalSpeed="0.0"/>
  <flow id="JF404037" begin="60" fromJunction="J3" toJunction="J7" end="120" vehsPerHour="160.1099223012836" departLane="free" arrivalSpeed="0.0"/>
  <flow id="JF404038" begin="60" fromJunction="J4" toJunction="J3" end="120" vehsPerHour="214.81058713649136" departLane="free" arrivalSpeed="0.0"/>
  <flow id="JF404039" begin="60" fromJunction="J4" toJunction="J5" end="120" vehsPerHour="161.94629179673998" departLane="free" arrivalSpeed="0.0"/>
  <flow id="JF404040" begin="60" fromJunction="J4" toJunction="J7" end="120" vehsPerHour="223.82567302845834" departLane="free" arrivalSpeed="0.0"/>
  <flow id="JF404041" begin="60" fromJunction="J5" toJunction="J4" end="120" vehsPerHour="237.45212669380527" departLane="free" arrivalSpeed="0.0"/>
  <flow id="JF404042" begin="60" fromJunction="J5" toJunction="J6" end="120" vehsPerHour="163.31399267583376" departLane="free" arrivalSpeed="0.0"/>
  <flow id="JF404043" begin="60" fromJunction="J6" toJunction="J4" end="120" vehsPerHour="61.403294760341126" departLane="free" arrivalSpeed="0.0"/>
  <flow id="JF404044" begin="60" fromJunction="J6" toJunction="J5" end="120" vehsPerHour="214.98351991160675" departLane="free" arrivalSpeed="0.0"/>
  <flow id="JF404045" begin="60" fromJunction="J6" toJunction="J7" end="120" vehsPerHour="26.080854237841763" departLane="free" arrivalSpeed="0.0"/>
  <flow id="JF404046" begin="60" fromJunction="J7" toJunction="J0" end="120" vehsPerHour="262.09676622657406" departLane="free" arrivalSpeed="0.0"/>
  <flow id="JF404047" begin="60" fromJunction="J7" toJunction="J3" end="120" vehsPerHour="153.42749804606953" departLane="free" arrivalSpeed="0.0"/>
  <flow id="JF404048" begin="60" fromJunction="J7" toJunction="J4" end="120" vehsPerHour="125.71476923848452" departLane="free" arrivalSpeed="0.0"/>
  <flow id="JF404049" begin="60" fromJunction="J7" toJunction="J6" end="120" vehsPerHour="40.324201964626596" departLane="free" arrivalSpeed="0.0"/>
  <flow id="JF404050" begin="120" fromJunction="J0" toJunction="J4" end="180" vehsPerHour="87.2087373441248" departLane="free" arrivalSpeed="0.0"/>
  <flow id="JF404051" begin="120" fromJunction="J0" toJunction="J5" end="180" vehsPerHour="146.85279954067644" departLane="free" arrivalSpeed="0.0"/>
  <flow id="JF404052" begin="120" fromJunction="J0" toJunction="J6" end="180" vehsPerHour="253.4963558021614" departLane="free" arrivalSpeed="0.0"/>
  <flow id="JF404053" begin="120" fromJunction="J0" toJunction="J7" end="180" vehsPerHour="262.4578507596774" departLane="free" arrivalSpeed="0.0"/>
  <flow id="JF404054" begin="120" fromJunction="J3" toJunction="J0" end="180" vehsPerHour="24.349574078432756" departLane="free" arrivalSpeed="0.0"/>
  <flow id="JF404055" begin="120" fromJunction="J3" toJunction="J4" end="180" vehsPerHour="536.8350030938748" departLane="free" arrivalSpeed="0.0"/>
  <flow id="JF404056" begin="120" fromJunction="J3" toJunction="J5" end="180" vehsPerHour="500.4238611270303" departLane="free" arrivalSpeed="0.0"/>
  <flow id="JF404057" begin="120" fromJunction="J3" toJunction="J7" end="180" vehsPerHour="535.7096793205142" departLane="free" arrivalSpeed="0.0"/>
  <flow id="JF404058" begin="120" fromJunction="J4" toJunction="J0" end="180" vehsPerHour="87.77080786825458" departLane="free" arrivalSpeed="0.0"/>
  <flow id="JF404059" begin="120" fromJunction="J4" toJunction="J6" end="180" vehsPerHour="273.00785937823883" departLane="free" arrivalSpeed="0.0"/>
  <flow id="JF404060" begin="120" fromJunction="J4" toJunction="J7" end="180" vehsPerHour="46.70066555689013" departLane="free" arrivalSpeed="0.0"/>
  <flow id="JF404061" begin="120" fromJunction="J5" toJunction="J0" end="180" vehsPerHour="202.00312915170704" departLane="free" arrivalSpeed="0.0"/>
  <flow id="JF404062" begin="120" fromJunction="J5" toJunction="J3" end="180" vehsPerHour="41.705814879042684" departLane="free" arrivalSpeed="0.0"/>
  <flow id="JF404063" begin="120" fromJunction="J5" toJunction="J4" end="180" vehsPerHour="107.03379436468923" departLane="free" arrivalSpeed="0.0"/>
  <flow id="JF404064" begin="120" fromJunction="J5" toJunction="J6" end="180" vehsPerHour="57.420173108100684" departLane="free" arrivalSpeed="0.0"/>
  <flow id="JF404065" begin="120" fromJunction="J6" toJunction="J0" end="180" vehsPerHour="138.75141825464945" departLane="free" arrivalSpeed="0.0"/>
  <flow id="JF404066" begin="120" fromJunction="J6" toJunction="J4" end="180" vehsPerHour="119.41862590837812" departLane="free" arrivalSpeed="0.0"/>
  <flow id="JF404067" begin="120" fromJunction="J6" toJunction="J5" end="180" vehsPerHour="61.682023218840094" departLane="free" arrivalSpeed="0.0"/>
  <flow id="JF404068" begin="120" fromJunction="J6" toJunction="J7" end="180" vehsPerHour="159.27754014031504" departLane="free" arrivalSpeed="0.0"/>
  <flow id="JF404069" begin="120" fromJunction="J7" toJunction="J3" end="180" vehsPerHour="48.306908818164686" departLane="free" arrivalSpeed="0.0"/>
  <flow id="JF404070" begin="120" fromJunction="J7" toJunction="J5" end="180" vehsPerHour="245.6367624040348" departLane="free" arrivalSpeed="0.0"/>
  <flow id="JF404071" begin="180" fromJunction="J0" toJunction="J5" end="240" vehsPerHour="257.0128380947563" departLane="free" arrivalSpeed="0.0"/>
  <flow id="JF404072" begin="180" fromJunction="J0" toJunction="J6" end="240" vehsPerHour="370.15092906525325" departLane="free" arrivalSpeed="0.0"/>
  <flow id="JF404073" begin="180" fromJunction="J3" toJunction="J0" end="240" vehsPerHour="455.1611437850851" departLane="free" arrivalSpeed="0.0"/>
  <flow id="JF404074" begin="180" fromJunction="J3" toJunction="J5" end="240" vehsPerHour="172.44660068966616" departLane="free" arrivalSpeed="0.0"/>
  <flow id="JF404075" begin="180" fromJunction="J3" toJunction="J6" end="240" vehsPerHour="76.13054290825511" departLane="free" arrivalSpeed="0.0"/>
  <flow id="JF404076" begin="180" fromJunction="J3" toJunction="J7" end="240" vehsPerHour="60.53646737031878" departLane="free" arrivalSpeed="0.0"/>
  <flow id="JF404077" begin="180" fromJunction="J4" toJunction="J0" end="240" vehsPerHour="115.53960396012366" departLane="free" arrivalSpeed="0.0"/>
  <flow id="JF404078" begin="180" fromJunction="J4" toJunction="J3" end="240" vehsPerHour="17.006021938171184" departLane="free" arrivalSpeed="0.0"/>
  <flow id="JF404079" begin="180" fromJunction="J4" toJunction="J6" end="240" vehsPerHour="150.48054419090371" departLane="free" arrivalSpeed="0.0"/>
  <flow id="JF404080" begin="180" fromJunction="J5" toJunction="J0" end="240" vehsPerHour="236.48567884172914" departLane="free" arrivalSpeed="0.0"/>
  <flow id="JF404081" begin="180" fromJunction="J5" toJunction="J3" end="240" vehsPerHour="18.68863233448123" departLane="free" arrivalSpeed="0.0"/>
  <flow id="JF404082" begin="180" fromJunction="J5" toJunction="J4" end="240" vehsPerHour="227.10286689318988" departLane="free" arrivalSpeed="0.0"/>
  <flow id="JF404083" begin="180" fromJunction="J5" toJunction="J7" end="240" vehsPerHour="132.35470484379226" departLane="free" arrivalSpeed="0.0"/>
  <flow id="JF404084" begin="180" fromJunction="J6" toJunction="J0" end="240" vehsPerHour="106.48542033469178" departLane="free" arrivalSpeed="0.0"/>
  <flow id="JF404085" begin="180" fromJunction="J6" toJunction="J3" end="240" vehsPerHour="53.36018115817256" departLane="free" arrivalSpeed="0.0"/>
  <flow id="JF404086" begin="180" fromJunction="J6" toJunction="J5" end="240" vehsPerHour="254.92372955372977" departLane="free" arrivalSpeed="0.0"/>
  <flow id="JF404087" begin="180" fromJunction="J6" toJunction="J7" end="240" vehsPerHour="247.19107984122556" departLane="free" arrivalSpeed="0.0"/>
  <flow id="JF404088" begin="180" fromJunction="J7" toJunction="J0" end="240" vehsPerHour="109.4840366371923" departLane="free" arrivalSpeed="0.0"/>
  <flow id="JF404089" begin="180" fromJunction="J7" toJunction="J4" end="240" vehsPerHour="128.27793925162646" departLane="free" arrivalSpeed="0.0"/>
  <flow id="JF404090" begin="180" fromJunction="J7" toJunction="J6" end="240" vehsPerHour="88.81533445038251" departLane="free" arrivalSpeed="0.0"/>
  <flow id="JF404091" begin="240" fromJunction="J0" toJunction="J3" end="300" vehsPerHour="514.2865413512616" departLane="free" arrivalSpeed="0.0"/>
  <flow id="JF404092" begin="240" fromJunction="J0" toJunction="J4" end="300" vehsPerHour="166.76813765640892" departLane="free" arrivalSpeed="0.0"/>
  <flow id="JF404093" begin="240" fromJunction="J0" toJunction="J5" end="300" vehsPerHour="358.7733218449023" departLane="free" arrivalSpeed="0.0"/>
  <flow id="JF404094" begin="240" fromJunction="J0" toJunction="J6" end="300" vehsPerHour="125.54774297012173" departLane="free" arrivalSpeed="0.0"/>
  <flow id="JF404095" begin="240" fromJunction="J0" toJunction="J7" end="300" vehsPerHour="288.198084143087" departLane="free" arrivalSpeed="0.0"/>
  <flow id="JF404096" begin="240" fromJunction="J3" toJunction="J0" end="300" vehsPerHour="45.336746738551724" departLane="free" arrivalSpeed="0.0"/>
  <flow id="JF404097" begin="240" fromJunction="J3" toJunction="J5" end="300" vehsPerHour="136.17250759475098" departLane="free" arrivalSpeed="0.0"/>
  <flow id="JF404098" begin="240" fromJunction="J4" toJunction="J0" end="300" vehsPerHour="148.969587309268" departLane="free" arrivalSpeed="0.0"/>
  <flow id="JF404099" begin="240" fromJunction="J4" toJunction="J5" end="300" vehsPerHour="158.327686058357" departLane="free" arrivalSpeed="0.0"/>
  <flow id="JF404100" begin="240" fromJunction="J5" toJunction="J3" end="300" vehsPerHour="153.2064564910044" departLane="free" arrivalSpeed="0.0"/>
  <flow id="JF404101" begin="240" fromJunction="J5" toJunction="J4" end="300" vehsPerHour="209.49394432013668" departLane="free" arrivalSpeed="0.0"/>
  <flow id="JF404102" begin="240" fromJunction="J5" toJunction="J6" end="300" vehsPerHour="100.87573663870435" departLane="free" arrivalSpeed="0.0"/>
  <flow id="JF404103" begin="240" fromJunction="J6" toJunction="J3" end="300" vehsPerHour="21.42247988288301" departLane="free" arrivalSpeed="0.0"/>
  <flow id="JF404104" begin="240" fromJunction="J6" toJunction="J4" end="300" vehsPerHour="55.0457545178519" departLane="free" arrivalSpeed="0.0"/>
  <flow id="JF404105" begin="240" fromJunction="J6" toJunction="J7" end="300" vehsPerHour="127.03901512360112" departLane="free" arrivalSpeed="0.0"/>
  <flow id="JF404106" begin="240" fromJunction="J7" toJunction="J0" end="300" vehsPerHour="106.05209677997946" departLane="free" arrivalSpeed="0.0"/>
  <flow id="JF404107" begin="240" fromJunction="J7" toJunction="J3" end="300" vehsPerHour="43.32738502012101" departLane="free" arrivalSpeed="0.0"/>
  <flow id="JF404108" begin="240" fromJunction="J7" toJunction="J4" end="300" vehsPerHour="270.07874459425796" departLane="free" arrivalSpeed="0.0"/>
  <flow id="JF404109" begin="240" fromJunction="J7" toJunction="J5" end="300" vehsPerHour="203.72975409971463" departLane="free" arrivalSpeed="0.0"/>
  <flow id="JF404110" begin="240" fromJunction="J7" toJunction="J6" end="300" vehsPerHour="122.60007733386712" departLane="free" arrivalSpeed="0.0"/>
  <flow id="JF404111" begin="300" fromJunction="J0" toJunction="J3" end="360" vehsPerHour="363.1042887551242" departLane="free" arrivalSpeed="0.0"/>
  <flow id="JF404112" begin="300" fromJunction="J0" toJunction="J4" end="360" vehsPerHour="129.6671535143843" departLane="free" arrivalSpeed="0.0"/>
  <flow id="JF404113" begin="300" fromJunction="J0" toJunction="J5" end="360" vehsPerHour="21.26030171067649" departLane="free" arrivalSpeed="0.0"/>
  <flow id="JF404114" begin="300" fromJunction="J0" toJunction="J6" end="360" vehsPerHour="412.8716963316772" departLane="free" arrivalSpeed="0.0"/>
  <flow id="JF404115" begin="300" fromJunction="J0" toJunction="J7" end="360" vehsPerHour="206.12770329984255" departLane="free" arrivalSpeed="0.0"/>
  <flow id="JF404116" begin="300" fromJunction="J3" toJunction="J4" end="360" vehsPerHour="260.8891207578605" departLane="free" arrivalSpeed="0.0"/>
  <flow id="JF404117" begin="300" fromJunction="J3" toJunction="J5" end="360" vehsPerHour="278.01073280772744" departLane="free" arrivalSpeed="0.0"/>
  <flow id="JF404118" begin="300" fromJunction="J3" toJunction="J7" end="360" vehsPerHour="12.76632224148163" departLane="free" arrivalSpeed="0.0"/>
  <flow id="JF404119" begin="300" fromJunction="J4" toJunction="J5" end="360" vehsPerHour="41.71288581484008" departLane="free" arrivalSpeed="0.0"/>
  <flow id="JF404120" begin="300" fromJunction="J4" toJunction="J6" end="360" vehsPerHour="189.4525202510377" departLane="free" arrivalSpeed="0.0"/>
  <flow id="JF404121" begin="300" fromJunction="J4" toJunction="J7" end="360" vehsPerHour="148.78115363687564" departLane="free" arrivalSpeed="0.0"/>
  <flow id="JF404122" begin="300" fromJunction="J5" toJunction="J0" end="360" vehsPerHour="228.57604906522454" departLane="free" arrivalSpeed="0.0"/>
  <flow id="JF404123" begin="300" fromJunction="J5" toJunction="J3" end="360" vehsPerHour="8.055714313554365" departLane="free" arrivalSpeed="0.0"/>
  <flow id="JF404124" begin="300" fromJunction="J5" toJunction="J6" end="360" vehsPerHour="17.36464070229356" departLane="free" arrivalSpeed="0.0"/>
  <flow id="JF404125" begin="300" fromJunction="J5" toJunction="J7" end="360" vehsPerHour="218.9547045105102" departLane="free" arrivalSpeed="0.0"/>
  <flow id="JF404126" begin="300" fromJunction="J6" toJunction="J0" end="360" vehsPerHour="274.3644065374873" departLane="free" arrivalSpeed="0.0"/>
  <flow id="JF404127" begin="300" fromJunction="J6" toJunction="J3" end="360" vehsPerHour="243.12884618132" departLane="free" arrivalSpeed="0.0"/>
  <flow id="JF404128" begin="300" fromJunction="J6" toJunction="J4" end="360" vehsPerHour="53.76151246179387" departLane="free" arrivalSpeed="0.0"/>
  <flow id="JF404129" begin="300" fromJunction="J6" toJunction="J5" end="360" vehsPerHour="70.6915008757315" departLane="free" arrivalSpeed="0.0"/>
  <flow id="JF404130" begin="300" fromJunction="J6" toJunction="J7" end="360" vehsPerHour="174.11439038284388" departLane="free" arrivalSpeed="0.0"/>
  <flow id="JF404131" begin="300" fromJunction="J7" toJunction="J0" end="360" vehsPerHour="224.23933106289425" departLane="free" arrivalSpeed="0.0"/>
  <flow id="JF404132" begin="300" fromJunction="J7" toJunction="J3" end="360" vehsPerHour="264.5172314414677" departLane="free" arrivalSpeed="0.0"/>
  <flow id="JF404133" begin="300" fromJunction="J7" toJunction="J4" end="360" vehsPerHour="196.67799926323931" departLane="free" arrivalSpeed="0.0"/>
  <flow id="JF404134" begin="300" fromJunction="J7" toJunction="J5" end="360" vehsPerHour="142.52229375479382" departLane="free" arrivalSpeed="0.0"/>
  <flow id="JF404135" begin="300" fromJunction="J7" toJunction="J6" end="360" vehsPerHour="173.23412125222828" departLane="free" arrivalSpeed="0.0"/>
  <flow id="JF404136" begin="360" fromJunction="J0" toJunction="J3" end="420" vehsPerHour="274.4261427544447" departLane="free" arrivalSpeed="0.0"/>
  <flow id="JF404137" begin="360" fromJunction="J0" toJunction="J4" end="420" vehsPerHour="469.52777908797214" departLane="free" arrivalSpeed="0.0"/>
  <flow id="JF404138" begin="360" fromJunction="J0" toJunction="J5" end="420" vehsPerHour="515.6706281467868" departLane="free" arrivalSpeed="0.0"/>
  <flow id="JF404139" begin="360" fromJunction="J0" toJunction="J6" end="420" vehsPerHour="525.4971910580734" departLane="free" arrivalSpeed="0.0"/>
  <flow id="JF404140" begin="360" fromJunction="J0" toJunction="J7" end="420" vehsPerHour="56.45531612889563" departLane="free" arrivalSpeed="0.0"/>
  <flow id="JF404141" begin="360" fromJunction="J3" toJunction="J0" end="420" vehsPerHour="166.1200093054075" departLane="free" arrivalSpeed="0.0"/>
  <flow id="JF404142" begin="360" fromJunction="J3" toJunction="J4" end="420" vehsPerHour="182.67986755195656" departLane="free" arrivalSpeed="0.0"/>
  <flow id="JF404143" begin="360" fromJunction="J3" toJunction="J5" end="420" vehsPerHour="538.2894405751912" departLane="free" arrivalSpeed="0.0"/>
  <flow id="JF404144" begin="360" fromJunction="J3" toJunction="J6" end="420" vehsPerHour="377.58117191713444" departLane="free" arrivalSpeed="0.0"/>
  <flow id="JF404145" begin="360" fromJunction="J3" toJunction="J7" end="420" vehsPerHour="215.186547028831" departLane="free" arrivalSpeed="0.0"/>
  <flow id="JF404146" begin="360" fromJunction="J4" toJunction="J0" end="420" vehsPerHour="90.22131803427683" departLane="free" arrivalSpeed="0.0"/>
  <flow id="JF404147" begin="360" fromJunction="J4" toJunction="J5" end="420" vehsPerHour="105.7639276787589" departLane="free" arrivalSpeed="0.0"/>
  <flow id="JF404148" begin="360" fromJunction="J4" toJunction="J6" end="420" vehsPerHour="214.46836311773197" departLane="free" arrivalSpeed="0.0"/>
  <flow id="JF404149" begin="360" fromJunction="J4" toJunction="J7" end="420" vehsPerHour="241.41843170869424" departLane="free" arrivalSpeed="0.0"/>
  <flow id="JF404150" begin="360" fromJunction="J5" toJunction="J0" end="420" vehsPerHour="94.75493970271148" departLane="free" arrivalSpeed="0.0"/>
  <flow id="JF404151" begin="360" fromJunction="J5" toJunction="J3" end="420" vehsPerHour="139.889562134581" departLane="free" arrivalSpeed="0.0"/>
  <flow id="JF404152" begin="360" fromJunction="J5" toJunction="J4" end="420" vehsPerHour="91.99146732853342" departLane="free" arrivalSpeed="0.0"/>
  <flow id="JF404153" begin="360" fromJunction="J5" toJunction="J6" end="420" vehsPerHour="231.2499821290721" departLane="free" arrivalSpeed="0.0"/>
  <flow id="JF404154" begin="360" fromJunction="J5" toJunction="J7" end="420" vehsPerHour="56.80531877881027" departLane="free" arrivalSpeed="0.0"/>
  <flow id="JF404155" begin="360" fromJunction="J6" toJunction="J0" end="420" vehsPerHour="235.767974440323" departLane="free" arrivalSpeed="0.0"/>
  <flow id="JF404156" begin="360" fromJunction="J6" toJunction="J4" end="420" vehsPerHour="259.15058508540153" departLane="free" arrivalSpeed="0.0"/>
  <flow id="JF404157" begin="360" fromJunction="J6" toJunction="J7" end="420" vehsPerHour="153.51259334513674" departLane="free" arrivalSpeed="0.0"/>
  <flow id="JF404158" begin="360" fromJunction="J7" toJunction="J0" end="420" vehsPerHour="48.523007480894" departLane="free" arrivalSpeed="0.0"/>
  <flow id="JF404159" begin="360" fromJunction="J7" toJunction="J6" end="420" vehsPerHour="254.04290765357007" departLane="free" arrivalSpeed="0.0"/>
  <flow id="JF404160" begin="420" fromJunction="J0" toJunction="J3" end="480" vehsPerHour="208.15137360653776" departLane="free" arrivalSpeed="0.0"/>
  <flow id="JF404161" begin="420" fromJunction="J0" toJunction="J6" end="480" vehsPerHour="378.33996992192556" departLane="free" arrivalSpeed="0.0"/>
  <flow id="JF404162" begin="420" fromJunction="J0" toJunction="J7" end="480" vehsPerHour="525.8938777272988" departLane="free" arrivalSpeed="0.0"/>
  <flow id="JF404163" begin="420" fromJunction="J3" toJunction="J4" end="480" vehsPerHour="129.54997315853078" departLane="free" arrivalSpeed="0.0"/>
  <flow id="JF404164" begin="420" fromJunction="J3" toJunction="J5" end="480" vehsPerHour="212.45679353267465" departLane="free" arrivalSpeed="0.0"/>
  <flow id="JF404165" begin="420" fromJunction="J3" toJunction="J6" end="480" vehsPerHour="247.1439100844436" departLane="free" arrivalSpeed="0.0"/>
  <flow id="JF404166" begin="420" fromJunction="J3" toJunction="J7" end="480" vehsPerHour="306.9345625556665" departLane="free" arrivalSpeed="0.0"/>
  <flow id="JF404167" begin="420" fromJunction="J4" toJunction="J3" end="480" vehsPerHour="59.16754377365808" departLane="free" arrivalSpeed="0.0"/>
  <flow id="JF404168" begin="420" fromJunction="J4" toJunction="J5" end="480" vehsPerHour="58.268400179361905" departLane="free" arrivalSpeed="0.0"/>
  <flow id="JF404169" begin="420" fromJunction="J4" toJunction="J6" end="480" vehsPerHour="9.692775154997188" departLane="free" arrivalSpeed="0.0"/>
  <flow id="JF404170" begin="420" fromJunction="J4" toJunction="J7" end="480" vehsPerHour="210.87754262752867" departLane="free" arrivalSpeed="0.0"/>
  <flow id="JF404171" begin="420" fromJunction="J5" toJunction="J3" end="480" vehsPerHour="101.16162082377211" departLane="free" arrivalSpeed="0.0"/>
  <flow id="JF404172" begin="420" fromJunction="J5" toJunction="J4" end="480" vehsPerHour="236.9774713011596" departLane="free" arrivalSpeed="0.0"/>
  <flow id="JF404173" begin="420" fromJunction="J5" toJunction="J7" end="480" vehsPerHour="273.8037192651237" departLane="free" arrivalSpeed="0.0"/>
  <flow id="JF404174" begin="420" fromJunction="J6" toJunction="J3" end="480" vehsPerHour="190.82414071701558" departLane="free" arrivalSpeed="0.0"/>
  <flow id="JF404175" begin="420" fromJunction="J6" toJunction="J4" end="480" vehsPerHour="172.99747283087487" departLane="free" arrivalSpeed="0.0"/>
  <flow id="JF404176" begin="420" fromJunction="J6" toJunction="J5" end="480" vehsPerHour="117.6612262794336" departLane="free" arrivalSpeed="0.0"/>
  <flow id="JF404177" begin="420" fromJunction="J6" toJunction="J7" end="480" vehsPerHour="261.3343311391638" departLane="free" arrivalSpeed="0.0"/>
  <flow id="JF404178" begin="420" fromJunction="J7" toJunction="J0" end="480" vehsPerHour="71.12196055743662" departLane="free" arrivalSpeed="0.0"/>
  <flow id="JF404179" begin="420" fromJunction="J7" toJunction="J3" end="480" vehsPerHour="87.89517167678216" departLane="free" arrivalSpeed="0.0"/>
  <flow id="JF404180" begin="420" fromJunction="J7" toJunction="J4" end="480" vehsPerHour="23.10755378803064" departLane="free" arrivalSpeed="0.0"/>
  <flow id="JF404181" begin="420" fromJunction="J7" toJunction="J5" end="480" vehsPerHour="127.20441733524477" departLane="free" arrivalSpeed="0.0"/>
  <flow id="JF404182" begin="420" fromJunction="J7" toJunction="J6" end="480" vehsPerHour="11.934489704135048" departLane="free" arrivalSpeed="0.0"/>
  <flow id="JF404183" begin="480" fromJunction="J0" toJunction="J4" end="540" vehsPerHour="111.96033534037109" departLane="free" arrivalSpeed="0.0"/>
  <flow id="JF404184" begin="480" fromJunction="J0" toJunction="J5" end="540" vehsPerHour="512.4122414240983" departLane="free" arrivalSpeed="0.0"/>
  <flow id="JF404185" begin="480" fromJunction="J0" toJunction="J6" end="540" vehsPerHour="24.454342641136357" departLane="free" arrivalSpeed="0.0"/>
  <flow id="JF404186" begin="480" fromJunction="J0" toJunction="J7" end="540" vehsPerHour="236.4922931828048" departLane="free" arrivalSpeed="0.0"/>
  <flow id="JF404187" begin="480" fromJunction="J3" toJunction="J0" end="540" vehsPerHour="524.7827105981677" departLane="free" arrivalSpeed="0.0"/>
  <flow id="JF404188" begin="480" fromJunction="J3" toJunction="J6" end="540" vehsPerHour="43.12167242337757" departLane="free" arrivalSpeed="0.0"/>
  <flow id="JF404189" begin="480" fromJunction="J3" toJunction="J7" end="540" vehsPerHour="498.52559809901476" departLane="free" arrivalSpeed="0.0"/>
  <flow id="JF404190" begin="480" fromJunction="J4" toJunction="J3" end="540" vehsPerHour="74.90128546198758" departLane="free" arrivalSpeed="0.0"/>
  <flow id="JF404191" begin="480" fromJunction="J4" toJunction="J5" end="540" vehsPerHour="217.42914174272477" departLane="free" arrivalSpeed="0.0"/>
  <flow id="JF404192" begin="480" fromJunction="J4" toJunction="J7" end="540" vehsPerHour="106.8734139831152" departLane="free" arrivalSpeed="0.0"/>
  <flow id="JF404193" begin="480" fromJunction="J5" toJunction="J0" end="540" vehsPerHour="187.32624416545082" departLane="free" arrivalSpeed="0.0"/>
  <flow id="JF404194" begin="480" fromJunction="J5" toJunction="J3" end="540" vehsPerHour="234.65988848694656" departLane="free" arrivalSpeed="0.0"/>
  <flow id="JF404195" begin="480" fromJunction="J5" toJunction="J4" end="540" vehsPerHour="6.6531552719687665" departLane="free" arrivalSpeed="0.0"/>
  <flow id="JF404196" begin="480" fromJunction="J5" toJunction="J7" end="540" vehsPerHour="188.61252352850863" departLane="free" arrivalSpeed="0.0"/>
  <flow id="JF404197" begin="480" fromJunction="J6" toJunction="J0" end="540" vehsPerHour="199.3286736751513" departLane="free" arrivalSpeed="0.0"/>
  <flow id="JF404198" begin="480" fromJunction="J6" toJunction="J3" end="540" vehsPerHour="1.7965745719795994" departLane="free" arrivalSpeed="0.0"/>
  <flow id="JF404199" begin="480" fromJunction="J6" toJunction="J4" end="540" vehsPerHour="244.7612294466969" departLane="free" arrivalSpeed="0.0"/>
  <flow id="JF404200" begin="480" fromJunction="J6" toJunction="J7" end="540" vehsPerHour="172.37689153252734" departLane="free" arrivalSpeed="0.0"/>
  <flow id="JF404201" begin="480" fromJunction="J7" toJunction="J0" end="540" vehsPerHour="100.67721782482565" departLane="free" arrivalSpeed="0.0"/>
  <flow id="JF404202" begin="480" fromJunction="J7" toJunction="J3" end="540" vehsPerHour="214.02596032333264" departLane="free" arrivalSpeed="0.0"/>
  <flow id="JF404203" begin="480" fromJunction="J7" toJunction="J4" end="540" vehsPerHour="237.67569912974898" departLane="free" arrivalSpeed="0.0"/>
  <flow id="JF404204" begin="480" fromJunction="J7" toJunction="J6" end="540" vehsPerHour="173.13687655729782" departLane="free" arrivalSpeed="0.0"/>
  <flow id="JF404205" begin="540" fromJunction="J0" toJunction="J3" end="600" vehsPerHour="226.32553304955388" departLane="free" arrivalSpeed="0.0"/>
  <flow id="JF404206" begin="540" fromJunction="J0" toJunction="J4" end="600" vehsPerHour="347.7926717027521" departLane="free" arrivalSpeed="0.0"/>
  <flow id="JF404207" begin="540" fromJunction="J0" toJunction="J5" end="600" vehsPerHour="93.97344277614613" departLane="free" arrivalSpeed="0.0"/>