<?xml version="1.0" encoding="UTF-8"?>
<routes xmlns:xsi="http://www.w3.org/2001/XMLSchema-instance" xsi:noNamespaceSchemaLocation="http://sumo.dlr.de/xsd/routes_file.xsd">
  <flow id="JF41657" begin="0" fromJunction="J0" toJunction="J14" end="360" vehsPerHour="38.569470697357076" departLane="free" arrivalSpeed="0.0"/>
  <flow id="JF41658" begin="0" fromJunction="J0" toJunction="J2" end="360" vehsPerHour="67.20173948278044" departLane="free" arrivalSpeed="0.0"/>
  <flow id="JF41659" begin="0" fromJunction="J0" toJunction="J3" end="360" vehsPerHour="45.58795407521614" departLane="free" arrivalSpeed="0.0"/>
  <flow id="JF41660" begin="0" fromJunction="J0" toJunction="J7" end="360" vehsPerHour="16.03041144687175" departLane="free" arrivalSpeed="0.0"/>
  <flow id="JF41661" begin="0" fromJunction="J0" toJunction="J8" end="360" vehsPerHour="13.815861982598827" departLane="free" arrivalSpeed="0.0"/>
  <flow id="JF41662" begin="0" fromJunction="J12" toJunction="J16" end="360" vehsPerHour="34.43498372986106" departLane="free" arrivalSpeed="0.0"/>
  <flow id="JF41663" begin="0" fromJunction="J12" toJunction="J2" end="360" vehsPerHour="23.424335010552674" departLane="free" arrivalSpeed="0.0"/>
  <flow id="JF41664" begin="0" fromJunction="J12" toJunction="J3" end="360" vehsPerHour="39.36239658790084" departLane="free" arrivalSpeed="0.0"/>
  <flow id="JF41665" begin="0" fromJunction="J12" toJunction="J6" end="360" vehsPerHour="12.844786603973928" departLane="free" arrivalSpeed="0.0"/>
  <flow id="JF41666" begin="0" fromJunction="J12" toJunction="J7" end="360" vehsPerHour="26.018211989141932" departLane="free" arrivalSpeed="0.0"/>
  <flow id="JF41667" begin="0" fromJunction="J12" toJunction="J8" end="360" vehsPerHour="51.74603054564826" departLane="free" arrivalSpeed="0.0"/>
  <flow id="JF41668" begin="0" fromJunction="J12" toJunction="J9" end="360" vehsPerHour="43.22190282175129" departLane="free" arrivalSpeed="0.0"/>
  <flow id="JF41669" begin="0" fromJunction="J13" toJunction="J0" end="360" vehsPerHour="30.94676371792214" departLane="free" arrivalSpeed="0.0"/>
  <flow id="JF41670" begin="0" fromJunction="J13" toJunction="J14" end="360" vehsPerHour="28.6904829094134" departLane="free" arrivalSpeed="0.0"/>
  <flow id="JF41671" begin="0" fromJunction="J13" toJunction="J15" end="360" vehsPerHour="53.52455381196959" departLane="free" arrivalSpeed="0.0"/>
  <flow id="JF41672" begin="0" fromJunction="J13" toJunction="J16" end="360" vehsPerHour="47.54708088296358" departLane="free" arrivalSpeed="0.0"/>
  <flow id="JF41673" begin="0" fromJunction="J13" toJunction="J2" end="360" vehsPerHour="1.0221103240533236" departLane="free" arrivalSpeed="0.0"/>
  <flow id="JF41674" begin="0" fromJunction="J13" toJunction="J3" end="360" vehsPerHour="58.9517247486612" departLane="free" arrivalSpeed="0.0"/>
  <flow id="JF41675" begin="0" fromJunction="J13" toJunction="J6" end="360" vehsPerHour="2.0704342084744103" departLane="free" arrivalSpeed="0.0"/>
  <flow id="JF41676" begin="0" fromJunction="J13" toJunction="J7" end="360" vehsPerHour="38.41774548903572" departLane="free" arrivalSpeed="0.0"/>
  <flow id="JF41677" begin="0" fromJunction="J13" toJunction="J8" end="360" vehsPerHour="7.853612445305445" departLane="free" arrivalSpeed="0.0"/>
  <flow id="JF41678" begin="0" fromJunction="J14" toJunction="J0" end="360" vehsPerHour="4.265460675373288" departLane="free" arrivalSpeed="0.0"/>
  <flow id="JF41679" begin="0" fromJunction="J14" toJunction="J12" end="360" vehsPerHour="41.8544712856669" departLane="free" arrivalSpeed="0.0"/>
  <flow id="JF41680" begin="0" fromJunction="J14" toJunction="J13" end="360" vehsPerHour="19.704417384044817" departLane="free" arrivalSpeed="0.0"/>
  <flow id="JF41681" begin="0" fromJunction="J14" toJunction="J16" end="360" vehsPerHour="61.148863786210846" departLane="free" arrivalSpeed="0.0"/>
  <flow id="JF41682" begin="0" fromJunction="J14" toJunction="J2" end="360" vehsPerHour="22.339703587157008" departLane="free" arrivalSpeed="0.0"/>
  <flow id="JF41683" begin="0" fromJunction="J14" toJunction="J3" end="360" vehsPerHour="38.36625441750594" departLane="free" arrivalSpeed="0.0"/>
  <flow id="JF41684" begin="0" fromJunction="J14" toJunction="J6" end="360" vehsPerHour="9.88814902918654" departLane="free" arrivalSpeed="0.0"/>
  <flow id="JF41685" begin="0" fromJunction="J14" toJunction="J7" end="360" vehsPerHour="67.00140374669071" departLane="free" arrivalSpeed="0.0"/>
  <flow id="JF41686" begin="0" fromJunction="J14" toJunction="J9" end="360" vehsPerHour="46.01266862519881" departLane="free" arrivalSpeed="0.0"/>
  <flow id="JF41687" begin="0" fromJunction="J15" toJunction="J0" end="360" vehsPerHour="44.28837347448067" departLane="free" arrivalSpeed="0.0"/>
  <flow id="JF41688" begin="0" fromJunction="J15" toJunction="J12" end="360" vehsPerHour="47.09012038407519" departLane="free" arrivalSpeed="0.0"/>
  <flow id="JF41689" begin="0" fromJunction="J15" toJunction="J13" end="360" vehsPerHour="10.207943572032285" departLane="free" arrivalSpeed="0.0"/>
  <flow id="JF41690" begin="0" fromJunction="J15" toJunction="J16" end="360" vehsPerHour="3.6685324339625796" departLane="free" arrivalSpeed="0.0"/>
  <flow id="JF41691" begin="0" fromJunction="J15" toJunction="J3" end="360" vehsPerHour="51.458180512354225" departLane="free" arrivalSpeed="0.0"/>
  <flow id="JF41692" begin="0" fromJunction="J15" toJunction="J7" end="360" vehsPerHour="24.745652455109006" departLane="free" arrivalSpeed="0.0"/>
  <flow id="JF41693" begin="0" fromJunction="J15" toJunction="J8" end="360" vehsPerHour="44.78271325208316" departLane="free" arrivalSpeed="0.0"/>
  <flow id="JF41694" begin="0" fromJunction="J15" toJunction="J9" end="360" vehsPerHour="15.728524483368137" departLane="free" arrivalSpeed="0.0"/>
  <flow id="JF41695" begin="0" fromJunction="J16" toJunction="J0" end="360" vehsPerHour="22.513776232748175" departLane="free" arrivalSpeed="0.0"/>
  <flow id="JF41696" begin="0" fromJunction="J16" toJunction="J13" end="360" vehsPerHour="91.73874268291853" departLane="free" arrivalSpeed="0.0"/>
  <flow id="JF41697" begin="0" fromJunction="J16" toJunction="J14" end="360" vehsPerHour="113.8241472557764" departLane="free" arrivalSpeed="0.0"/>
  <flow id="JF41698" begin="0" fromJunction="J16" toJunction="J15" end="360" vehsPerHour="1.6961387112333575" departLane="free" arrivalSpeed="0.0"/>
  <flow id="JF41699" begin="0" fromJunction="J16" toJunction="J2" end="360" vehsPerHour="108.34480993797484" departLane="free" arrivalSpeed="0.0"/>
  <flow id="JF41700" begin="0" fromJunction="J16" toJunction="J6" end="360" vehsPerHour="102.05462128193972" departLane="free" arrivalSpeed="0.0"/>
  <flow id="JF41701" begin="0" fromJunction="J16" toJunction="J7" end="360" vehsPerHour="0.14124883049360856" departLane="free" arrivalSpeed="0.0"/>
  <flow id="JF41702" begin="0" fromJunction="J16" toJunction="J8" end="360" vehsPerHour="103.62351476534131" departLane="free" arrivalSpeed="0.0"/>
  <flow id="JF41703" begin="0" fromJunction="J16" toJunction="J9" end="360" vehsPerHour="38.92522019172868" departLane="free" arrivalSpeed="0.0"/>
  <flow id="JF41704" begin="0" fromJunction="J2" toJunction="J0" end="360" vehsPerHour="81.07562644435693" departLane="free" arrivalSpeed="0.0"/>
  <flow id="JF41705" begin="0" fromJunction="J2" toJunction="J12" end="360" vehsPerHour="28.42694507199202" departLane="free" arrivalSpeed="0.0"/>
  <flow id="JF41706" begin="0" fromJunction="J2" toJunction="J13" end="360" vehsPerHour="72.29461681414155" departLane="free" arrivalSpeed="0.0"/>
  <flow id="JF41707" begin="0" fromJunction="J2" toJunction="J14" end="360" vehsPerHour="95.96412792735622" departLane="free" arrivalSpeed="0.0"/>
  <flow id="JF41708" begin="0" fromJunction="J2" toJunction="J3" end="360" vehsPerHour="74.14847497281384" departLane="free" arrivalSpeed="0.0"/>
  <flow id="JF41709" begin="0" fromJunction="J2" toJunction="J6" end="360" vehsPerHour="22.606425600830722" departLane="free" arrivalSpeed="0.0"/>
  <flow id="JF41710" begin="0" fromJunction="J2" toJunction="J9" end="360" vehsPerHour="44.88355888442987" departLane="free" arrivalSpeed="0.0"/>
  <flow id="JF41711" begin="0" fromJunction="J3" toJunction="J13" end="360" vehsPerHour="61.784243344765315" departLane="free" arrivalSpeed="0.0"/>
  <flow id="JF41712" begin="0" fromJunction="J3" toJunction="J14" end="360" vehsPerHour="26.075018886976157" departLane="free" arrivalSpeed="0.0"/>
  <flow id="JF41713" begin="0" fromJunction="J3" toJunction="J6" end="360" vehsPerHour="67.63137391193727" departLane="free" arrivalSpeed="0.0"/>
  <flow id="JF41714" begin="0" fromJunction="J3" toJunction="J8" end="360" vehsPerHour="68.45970652542916" departLane="free" arrivalSpeed="0.0"/>
  <flow id="JF41715" begin="0" fromJunction="J6" toJunction="J0" end="360" vehsPerHour="62.618910673376234" departLane="free" arrivalSpeed="0.0"/>
  <flow id="JF41716" begin="0" fromJunction="J6" toJunction="J13" end="360" vehsPerHour="63.09804254254248" departLane="free" arrivalSpeed="0.0"/>
  <flow id="JF41717" begin="0" fromJunction="J6" toJunction="J15" end="360" vehsPerHour="31.572940520166025" departLane="free" arrivalSpeed="0.0"/>
  <flow id="JF41718" begin="0" fromJunction="J6" toJunction="J16" end="360" vehsPerHour="68.00227766414912" departLane="free" arrivalSpeed="0.0"/>
  <flow id="JF41719" begin="0" fromJunction="J6" toJunction="J2" end="360" vehsPerHour="63.19329288466055" departLane="free" arrivalSpeed="0.0"/>
  <flow id="JF41720" begin="0" fromJunction="J7" toJunction="J12" end="360" vehsPerHour="36.7838350749979" departLane="free" arrivalSpeed="0.0"/>
  <flow id="JF41721" begin="0" fromJunction="J7" toJunction="J14" end="360" vehsPerHour="54.93154236724499" departLane="free" arrivalSpeed="0.0"/>
  <flow id="JF41722" begin="0" fromJunction="J7" toJunction="J15" end="360" vehsPerHour="47.27364658525183" departLane="free" arrivalSpeed="0.0"/>
  <flow id="JF41723" begin="0" fromJunction="J7" toJunction="J16" end="360" vehsPerHour="41.23849113607616" departLane="free" arrivalSpeed="0.0"/>
  <flow id="JF41724" begin="0" fromJunction="J7" toJunction="J2" end="360" vehsPerHour="13.002527426831254" departLane="free" arrivalSpeed="0.0"/>
  <flow id="JF41725" begin="0" fromJunction="J7" toJunction="J6" end="360" vehsPerHour="3.6654222644846666" departLane="free" arrivalSpeed="0.0"/>
  <flow id="JF41726" begin="0" fromJunction="J7" toJunction="J9" end="360" vehsPerHour="6.898517136510934" departLane="free" arrivalSpeed="0.0"/>
  <flow id="JF41727" begin="0" fromJunction="J8" toJunction="J0" end="360" vehsPerHour="59.54173537523509" departLane="free" arrivalSpeed="0.0"/>
  <flow id="JF41728" begin="0" fromJunction="J8" toJunction="J12" end="360" vehsPerHour="36.13112332618622" departLane="free" arrivalSpeed="0.0"/>
  <flow id="JF41729" begin="0" fromJunction="J8" toJunction="J13" end="360" vehsPerHour="16.459495977119783" departLane="free" arrivalSpeed="0.0"/>
  <flow id="JF41730" begin="0" fromJunction="J8" toJunction="J14" end="360" vehsPerHour="54.13673898574365" departLane="free" arrivalSpeed="0.0"/>
  <flow id="JF41731" begin="0" fromJunction="J8" toJunction="J16" end="360" vehsPerHour="8.025008764999559" departLane="free" arrivalSpeed="0.0"/>
  <flow id="JF41732" begin="0" fromJunction="J8" toJunction="J3" end="360" vehsPerHour="14.354944281189216" departLane="free" arrivalSpeed="0.0"/>
  <flow id="JF41733" begin="0" fromJunction="J8" toJunction="J6" end="360" vehsPerHour="6.735242321851996" departLane="free" arrivalSpeed="0.0"/>
  <flow id="JF41734" begin="0" fromJunction="J8" toJunction="J7" end="360" vehsPerHour="18.85508895741099" departLane="free" arrivalSpeed="0.0"/>
  <flow id="JF41735" begin="0" fromJunction="J8" toJunction="J9" end="360" vehsPerHour="10.172099581037218" departLane="free" arrivalSpeed="0.0"/>
  <flow id="JF41736" begin="0" fromJunction="J9" toJunction="J12" end="360" vehsPerHour="30.0925613978184" departLane="free" arrivalSpeed="0.0"/>
  <flow id="JF41737" begin="0" fromJunction="J9" toJunction="J13" end="360" vehsPerHour="17.361590177207734" departLane="free" arrivalSpeed="0.0"/>
  <flow id="JF41738" begin="0" fromJunction="J9" toJunction="J16" end="360" vehsPerHour="58.67136297129562" departLane="free" arrivalSpeed="0.0"/>
  <flow id="JF41739" begin="0" fromJunction="J9" toJunction="J2" end="360" vehsPerHour="21.595772427921037" departLane="free" arrivalSpeed="0.0"/>
  <flow id="JF41740" begin="0" fromJunction="J9" toJunction="J3" end="360" vehsPerHour="9.70131172943843" departLane="free" arrivalSpeed="0.0"/>
  <flow id="JF41741" begin="0" fromJunction="J9" toJunction="J6" end="360" vehsPerHour="36.443876407445934" departLane="free" arrivalSpeed="0.0"/>
  <flow id="JF41742" begin="0" fromJunction="J9" toJunction="J7" end="360" vehsPerHour="13.812674987962644" departLane="free" arrivalSpeed="0.0"/>
  <flow id="JF41743" begin="0" fromJunction="J9" toJunction="J8" end="360" vehsPerHour="37.46829593202308" departLane="free" arrivalSpeed="0.0"/>
  <flow id="JF41744" begin="360" fromJunction="J0" toJunction="J12" end="720" vehsPerHour="60.42779561997349" departLane="free" arrivalSpeed="0.0"/>
  <flow id="JF41745" begin="360" fromJunction="J0" toJunction="J13" end="720" vehsPerHour="41.65323812097937" departLane="free" arrivalSpeed="0.0"/>
  <flow id="JF41746" begin="360" fromJunction="J0" toJunction="J15" end="720" vehsPerHour="7.431555490391158" departLane="free" arrivalSpeed="0.0"/>
  <flow id="JF41747" begin="360" fromJunction="J0" toJunction="J16" end="720" vehsPerHour="20.499155852085064" departLane="free" arrivalSpeed="0.0"/>
  <flow id="JF41748" begin="360" fromJunction="J0" toJunction="J2" end="720" vehsPerHour="66.61483263885233" departLane="free" arrivalSpeed="0.0"/>
  <flow id="JF41749" begin="360" fromJunction="J0" toJunction="J7" end="720" vehsPerHour="25.422628286707777" departLane="free" arrivalSpeed="0.0"/>
  <flow id="JF41750" begin="360" fromJunction="J0" toJunction="J8" end="720" vehsPerHour="5.773523035664766" departLane="free" arrivalSpeed="0.0"/>
  <flow id="JF41751" begin="360" fromJunction="J0" toJunction="J9" end="720" vehsPerHour="0.9184168705711451" departLane="free" arrivalSpeed="0.0"/>
  <flow id="JF41752" begin="360" fromJunction="J12" toJunction="J0" end="720" vehsPerHour="15.358554071805289" departLane="free" arrivalSpeed="0.0"/>
  <flow id="JF41753" begin="360" fromJunction="J12" toJunction="J13" end="720" vehsPerHour="43.077098340821365" departLane="free" arrivalSpeed="0.0"/>
  <flow id="JF41754" begin="360" fromJunction="J12" toJunction="J15" end="720" vehsPerHour="8.504930982599785" departLane="free" arrivalSpeed="0.0"/>
  <flow id="JF41755" begin="360" fromJunction="J12" toJunction="J16" end="720" vehsPerHour="44.59777185120591" departLane="free" arrivalSpeed="0.0"/>
  <flow id="JF41756" begin="360" fromJunction="J12" toJunction="J2" end="720" vehsPerHour="6.146264086183187" departLane="free" arrivalSpeed="0.0"/>
  <flow id="JF41757" begin="360" fromJunction="J12" toJunction="J3" end="720" vehsPerHour="68.14443801440477" departLane="free" arrivalSpeed="0.0"/>
  <flow id="JF41758" begin="360" fromJunction="J12" toJunction="J6" end="720" vehsPerHour="27.291508800835413" departLane="free" arrivalSpeed="0.0"/>
  <flow id="JF41759" begin="360" fromJunction="J12" toJunction="J8" end="720" vehsPerHour="8.457961541096875" departLane="free" arrivalSpeed="0.0"/>
  <flow id="JF41760" begin="360" fromJunction="J13" toJunction="J0" end="720" vehsPerHour="19.50208937885761" departLane="free" arrivalSpeed="0.0"/>
  <flow id="JF41761" begin="360" fromJunction="J13" toJunction="J12" end="720" vehsPerHour="32.283958242334116" departLane="free" arrivalSpeed="0.0"/>
  <flow id="JF41762" begin="360" fromJunction="J13" toJunction="J14" end="720" vehsPerHour="21.578077751412405" departLane="free" arrivalSpeed="0.0"/>
  <flow id="JF41763" begin="360" fromJunction="J13" toJunction="J15" end="720" vehsPerHour="38.527637104554906" departLane="free" arrivalSpeed="0.0"/>
  <flow id="JF41764" begin="360" fromJunction="J13" toJunction="J3" end="720" vehsPerHour="15.72671648074608" departLane="free" arrivalSpeed="0.0"/>
  <flow id="JF41765" begin="360" fromJunction="J13" toJunction="J7" end="720" vehsPerHour="34.10565036095213" departLane="free" arrivalSpeed="0.0"/>
  <flow id="JF41766" begin="360" fromJunction="J13" toJunction="J9" end="720" vehsPerHour="58.22900580228069" departLane="free" arrivalSpeed="0.0"/>
  <flow id="JF41767" begin="360" fromJunction="J14" toJunction="J15" end="720" vehsPerHour="36.93157975885398" departLane="free" arrivalSpeed="0.0"/>
  <flow id="JF41768" begin="360" fromJunction="J14" toJunction="J16" end="720" vehsPerHour="49.047516474277494" departLane="free" arrivalSpeed="0.0"/>
  <flow id="JF41769" begin="360" fromJunction="J14" toJunction="J2" end="720" vehsPerHour="21.635320725824357" departLane="free" arrivalSpeed="0.0"/>
  <flow id="JF41770" begin="360" fromJunction="J14" toJunction="J3" end="720" vehsPerHour="62.49628770390606" departLane="free" arrivalSpeed="0.0"/>
  <flow id="JF41771" begin="360" fromJunction="J14" toJunction="J6" end="720" vehsPerHour="28.98350022444365" departLane="free" arrivalSpeed="0.0"/>
  <flow id="JF41772" begin="360" fromJunction="J14" toJunction="J7" end="720" vehsPerHour="35.4742680404675" departLane="free" arrivalSpeed="0.0"/>
  <flow id="JF41773" begin="360" fromJunction="J14" toJunction="J8" end="720" vehsPerHour="18.297203569103015" departLane="free" arrivalSpeed="0.0"/>
  <flow id="JF41774" begin="360" fromJunction="J15" toJunction="J0" end="720" vehsPerHour="13.049221377803445" departLane="free" arrivalSpeed="0.0"/>
  <flow id="JF41775" begin="360" fromJunction="J15" toJunction="J12" end="720" vehsPerHour="8.498090306068075" departLane="free" arrivalSpeed="0.0"/>
  <flow id="JF41776" begin="360" fromJunction="J15" toJunction="J13" end="720" vehsPerHour="25.092863852111325" departLane="free" arrivalSpeed="0.0"/>
  <flow id="JF41777" begin="360" fromJunction="J15" toJunction="J2" end="720" vehsPerHour="62.955004291006965" departLane="free" arrivalSpeed="0.0"/>
  <flow id="JF41778" begin="360" fromJunction="J15" toJunction="J7" end="720" vehsPerHour="14.825040012058114" departLane="free" arrivalSpeed="0.0"/>
  <flow id="JF41779" begin="360" fromJunction="J15" toJunction="J9" end="720" vehsPerHour="17.93367133452277" departLane="free" arrivalSpeed="0.0"/>
  <flow id="JF41780" begin="360" fromJunction="J16" toJunction="J0" end="720" vehsPerHour="19.860324508249025" departLane="free" arrivalSpeed="0.0"/>
  <flow id="JF41781" begin="360" fromJunction="J16" toJunction="J13" end="720" vehsPerHour="136.22290502912028" departLane="free" arrivalSpeed="0.0"/>
  <flow id="JF41782" begin="360" fromJunction="J16" toJunction="J2" end="720" vehsPerHour="121.22276594751243" departLane="free" arrivalSpeed="0.0"/>
  <flow id="JF41783" begin="360" fromJunction="J2" toJunction="J13" end="720" vehsPerHour="5.563364753098849" departLane="free" arrivalSpeed="0.0"/>
  <flow id="JF41784" begin="360" fromJunction="J2" toJunction="J14" end="720" vehsPerHour="108.23816950010877" departLane="free" arrivalSpeed="0.0"/>
  <flow id="JF41785" begin="360" fromJunction="J2" toJunction="J16" end="720" vehsPerHour="32.01471438614383" departLane="free" arrivalSpeed="0.0"/>
  <flow id="JF41786" begin="360" fromJunction="J2" toJunction="J3" end="720" vehsPerHour="68.53303557256515" departLane="free" arrivalSpeed="0.0"/>
  <flow id="JF41787" begin="360" fromJunction="J2" toJunction="J6" end="720" vehsPerHour="82.23279522030857" departLane="free" arrivalSpeed="0.0"/>
  <flow id="JF41788" begin="360" fromJunction="J2" toJunction="J7" end="720" vehsPerHour="58.253216562837544" departLane="free" arrivalSpeed="0.0"/>
  <flow id="JF41789" begin="360" fromJunction="J2" toJunction="J8" end="720" vehsPerHour="94.80037729616993" departLane="free" arrivalSpeed="0.0"/>
  <flow id="JF41790" begin="360" fromJunction="J2" toJunction="J9" end="720" vehsPerHour="6.325597988522769" departLane="free" arrivalSpeed="0.0"/>
  <flow id="JF41791" begin="360" fromJunction="J3" toJunction="J12" end="720" vehsPerHour="7.683921990362811" departLane="free" arrivalSpeed="0.0"/>
  <flow id="JF41792" begin="360" fromJunction="J3" toJunction="J14" end="720" vehsPerHour="20.53027962314709" departLane="free" arrivalSpeed="0.0"/>
  <flow id="JF41793" begin="360" fromJunction="J3" toJunction="J15" end="720" vehsPerHour="49.68803674950645" departLane="free" arrivalSpeed="0.0"/>
  <flow id="JF41794" begin="360" fromJunction="J3" toJunction="J16" end="720" vehsPerHour="15.405889544792135" departLane="free" arrivalSpeed="0.0"/>
  <flow id="JF41795" begin="360" fromJunction="J3" toJunction="J2" end="720" vehsPerHour="37.12874705694688" departLane="free" arrivalSpeed="0.0"/>
  <flow id="JF41796" begin="360" fromJunction="J3" toJunction="J7" end="720" vehsPerHour="14.164884083182768" departLane="free" arrivalSpeed="0.0"/>
  <flow id="JF41797" begin="360" fromJunction="J3" toJunction="J9" end="720" vehsPerHour="21.626157025048393" departLane="free" arrivalSpeed="0.0"/>
  <flow id="JF41798" begin="360" fromJunction="J6" toJunction="J15" end="720" vehsPerHour="11.30110242262003" departLane="free" arrivalSpeed="0.0"/>
  <flow id="JF41799" begin="360" fromJunction="J6" toJunction="J16" end="720" vehsPerHour="38.44353171177931" departLane="free" arrivalSpeed="0.0"/>
  <flow id="JF41800" begin="360" fromJunction="J6" toJunction="J3" end="720" vehsPerHour="5.214196738129834" departLane="free" arrivalSpeed="0.0"/>
  <flow id="JF41801" begin="360" fromJunction="J6" toJunction="J7" end="720" vehsPerHour="36.87047142010835" departLane="free" arrivalSpeed="0.0"/>
  <flow id="JF41802" begin="360" fromJunction="J6" toJunction="J8" end="720" vehsPerHour="35.04586673706309" departLane="free" arrivalSpeed="0.0"/>
  <flow id="JF41803" begin="360" fromJunction="J6" toJunction="J9" end="720" vehsPerHour="61.368738290836156" departLane="free" arrivalSpeed="0.0"/>
  <flow id="JF41804" begin="360" fromJunction="J7" toJunction="J0" end="720" vehsPerHour="19.547794297305444" departLane="free" arrivalSpeed="0.0"/>
  <flow id="JF41805" begin="360" fromJunction="J7" toJunction="J12" end="720" vehsPerHour="44.5250651479178" departLane="free" arrivalSpeed="0.0"/>
  <flow id="JF41806" begin="360" fromJunction="J7" toJunction="J13" end="720" vehsPerHour="20.81396864824554" departLane="free" arrivalSpeed="0.0"/>
  <flow id="JF41807" begin="360" fromJunction="J7" toJunction="J14" end="720" vehsPerHour="11.24444877249181" departLane="free" arrivalSpeed="0.0"/>
  <flow id="JF41808" begin="360" fromJunction="J7" toJunction="J15" end="720" vehsPerHour="35.56180871991607" departLane="free" arrivalSpeed="0.0"/>
  <flow id="JF41809" begin="360" fromJunction="J7" toJunction="J16" end="720" vehsPerHour="29.858081212023183" departLane="free" arrivalSpeed="0.0"/>
  <flow id="JF41810" begin="360" fromJunction="J7" toJunction="J2" end="720" vehsPerHour="55.02575956621097" departLane="free" arrivalSpeed="0.0"/>
  <flow id="JF41811" begin="360" fromJunction="J7" toJunction="J3" end="720" vehsPerHour="44.79187211361809" departLane="free" arrivalSpeed="0.0"/>
  <flow id="JF41812" begin="360" fromJunction="J7" toJunction="J8" end="720" vehsPerHour="61.4479834964627" departLane="free" arrivalSpeed="0.0"/>
  <flow id="JF41813" begin="360" fromJunction="J7" toJunction="J9" end="720" vehsPerHour="44.020224125535805" departLane="free" arrivalSpeed="0.0"/>
  <flow id="JF41814" begin="360" fromJunction="J8" toJunction="J0" end="720" vehsPerHour="8.116664102478653" departLane="free" arrivalSpeed="0.0"/>
  <flow id="JF41815" begin="360" fromJunction="J8" toJunction="J12" end="720" vehsPerHour="54.38765264488327" departLane="free" arrivalSpeed="0.0"/>
  <flow id="JF41816" begin="360" fromJunction="J8" toJunction="J13" end="720" vehsPerHour="44.47956239580512" departLane="free" arrivalSpeed="0.0"/>
  <flow id="JF41817" begin="360" fromJunction="J8" toJunction="J14" end="720" vehsPerHour="44.55736335084341" departLane="free" arrivalSpeed="0.0"/>
  <flow id="JF41818" begin="360" fromJunction="J8" toJunction="J16" end="720" vehsPerHour="22.734955846779553" departLane="free" arrivalSpeed="0.0"/>
  <flow id="JF41819" begin="360" fromJunction="J8" toJunction="J3" end="720" vehsPerHour="57.511947720703326" departLane="free" arrivalSpeed="0.0"/>
  <flow id="JF41820" begin="360" fromJunction="J8" toJunction="J6" end="720" vehsPerHour="31.750855025437996" departLane="free" arrivalSpeed="0.0"/>
  <flow id="JF41821" begin="360" fromJunction="J8" toJunction="J7" end="720" vehsPerHour="25.433227870925034" departLane="free" arrivalSpeed="0.0"/>
  <flow id="JF41822" begin="360" fromJunction="J8" toJunction="J9" end="720" vehsPerHour="37.87054224713201" departLane="free" arrivalSpeed="0.0"/>
  <flow id="JF41823" begin="360" fromJunction="J9" toJunction="J12" end="720" vehsPerHour="67.32944920791998" departLane="free" arrivalSpeed="0.0"/>
  <flow id="JF41824" begin="360" fromJunction="J9" toJunction="J14" end="720" vehsPerHour="57.30798052913481" departLane="free" arrivalSpeed="0.0"/>
  <flow id="JF41825" begin="360" fromJunction="J9" toJunction="J15" end="720" vehsPerHour="52.828771908829054" departLane="free" arrivalSpeed="0.0"/>
  <flow id="JF41826" begin="360" fromJunction="J9" toJunction="J16" end="720" vehsPerHour="45.153918721692584" departLane="free" arrivalSpeed="0.0"/>
  <flow id="JF41827" begin="360" fromJunction="J9" toJunction="J2" end="720" vehsPerHour="56.91591738189022" departLane="free" arrivalSpeed="0.0"/>
  <flow id="JF41828" begin="360" fromJunction="J9" toJunction="J3" end="720" vehsPerHour="36.85650425353885" departLane="free" arrivalSpeed="0.0"/>
  <flow id="JF41829" begin="360" fromJunction="J9" toJunction="J6" end="720" vehsPerHour="32.88762555227295" departLane="free" arrivalSpeed="0.0"/>
  <flow id="JF41830" begin="360" fromJunction="J9" toJunction="J7" end="720" vehsPerHour="57.140136638235006" departLane="free" arrivalSpeed="0.0"/>
  <flow id="JF41831" begin="360" fromJunction="J9" toJunction="J8" end="720" vehsPerHour="12.509784093027069" departLane="free" arrivalSpeed="0.0"/>
  <flow id="JF41832" begin="720" fromJunction="J0" toJunction="J13" end="1080" vehsPerHour="62.42517171021205" departLane="free" arrivalSpeed="0.0"/>
  <flow id="JF41833" begin="720" fromJunction="J0" toJunction="J14" end="1080" vehsPerHour="64.53680034593557" departLane="free" arrivalSpeed="0.0"/>
  <flow id="JF41834" begin="720" fromJunction="J0" toJunction="J15" end="1080" vehsPerHour="24.71861328525779" departLane="free" arrivalSpeed="0.0"/>
  <flow id="JF41835" begin="720" fromJunction="J0" toJunction="J16" end="1080" vehsPerHour="26.370342384841035" departLane="free" arrivalSpeed="0.0"/>
  <flow id="JF41836" begin="720" fromJunction="J0" toJunction="J2" end="1080" vehsPerHour="37.33253773447286" departLane="free" arrivalSpeed="0.0"/>
  <flow id="JF41837" begin="720" fromJunction="J0" toJunction="J6" end="1080" vehsPerHour="1.055151478020008" departLane="free" arrivalSpeed="0.0"/>
  <flow id="JF41838" begin="720" fromJunction="J0" toJunction="J8" end="1080" vehsPerHour="49.407777546449594" departLane="free" arrivalSpeed="0.0"/>
  <flow id="JF41839" begin="720" fromJunction="J0" toJunction="J9" end="1080" vehsPerHour="19.178987061423395" departLane="free" arrivalSpeed="0.0"/>
  <flow id="JF41840" begin="720" fromJunction="J12" toJunction="J0" end="1080" vehsPerHour="55.049855134766254" departLane="free" arrivalSpeed="0.0"/>
  <flow id="JF41841" begin="720" fromJunction="J12" toJunction="J13" end="1080" vehsPerHour="33.753683398068354" departLane="free" arrivalSpeed="0.0"/>
  <flow id="JF41842" begin="720" fromJunction="J12" toJunction="J14" end="1080" vehsPerHour="55.782023301074965" departLane="free" arrivalSpeed="0.0"/>
  <flow id="JF41843" begin="720" fromJunction="J12" toJunction="J16" end="1080" vehsPerHour="41.895404930514296" departLane="free" arrivalSpeed="0.0"/>
  <flow id="JF41844" begin="720" fromJunction="J12" toJunction="J2" end="1080" vehsPerHour="48.19478501026855" departLane="free" arrivalSpeed="0.0"/>
  <flow id="JF41845" begin="720" fromJunction="J12" toJunction="J6" end="1080" vehsPerHour="58.159574488058226" departLane="free" arrivalSpeed="0.0"/>
  <flow id="JF41846" begin="720" fromJunction="J12" toJunction="J7" end="1080" vehsPerHour="35.22704528530718" departLane="free" arrivalSpeed="0.0"/>
  <flow id="JF41847" begin="720" fromJunction="J12" toJunction="J8" end="1080" vehsPerHour="50.572063086091624" departLane="free" arrivalSpeed="0.0"/>
  <flow id="JF41848" begin="720" fromJunction="J12" toJunction="J9" end="1080" vehsPerHour="67.12294854578835" departLane="free" arrivalSpeed="0.0"/>
  <flow id="JF41849" begin="720" fromJunction="J13" toJunction="J0" end="1080" vehsPerHour="43.704026665564015" departLane="free" arrivalSpeed="0.0"/>
  <flow id="JF41850" begin="720" fromJunction="J13" toJunction="J14" end="1080" vehsPerHour="52.669818475301824" departLane="free" arrivalSpeed="0.0"/>
  <flow id="JF41851" begin="720" fromJunction="J13" toJunction="J15" end="1080" vehsPerHour="62.88381078980425" departLane="free" arrivalSpeed="0.0"/>
  <flow id="JF41852" begin="720" fromJunction="J13" toJunction="J2" end="1080" vehsPerHour="52.55195683989381" departLane="free" arrivalSpeed="0.0"/>
  <flow id="JF41853" begin="720" fromJunction="J13" toJunction="J3" end="1080" vehsPerHour="4.761474813649623" departLane="free" arrivalSpeed="0.0"/>
  <flow id="JF41854" begin="720" fromJunction="J13" toJunction="J6" end="1080" vehsPerHour="38.026389813129704" departLane="free" arrivalSpeed="0.0"/>
  <flow id="JF41855" begin="720" fromJunction="J13" toJunction="J7" end="1080" vehsPerHour="37.413591156962184" departLane="free" arrivalSpeed="0.0"/>
  <flow id="JF41856" begin="720" fromJunction="J13" toJunction="J8" end="1080" vehsPerHour="9.963788886076461" departLane="free" arrivalSpeed="0.0"/>