<?xml version="1.0" encoding="UTF-8"?>
<routes xmlns:xsi="http://www.w3.org/2001/XMLSchema-instance" xsi:noNamespaceSchemaLocation="http://sumo.dlr.de/xsd/routes_file.xsd">
  <flow id="JF393415" begin="0" fromJunction="J0" toJunction="J3" end="5000" vehsPerHour="1354.2855634478703" departLane="free"/>
  <flow id="JF393416" begin="0" fromJunction="J3" toJunction="J0" end="5000" vehsPerHour="984.6726354417069" departLane="free"/>
  <flow id="JF393417" begin="0" fromJunction="J0" toJunction="J6" end="5000" vehsPerHour="70.09506451149181" departLane="free"/>
  <flow id="JF393418" begin="0" fromJunction="J0" toJunction="J7" end="5000" vehsPerHour="0.282298830238871" departLane="free"/>
  <flow id="JF393419" begin="0" fromJunction="J0" toJunction="J4" end="5000" vehsPerHour="103.38236192683348" departLane="free"/>
  <flow id="JF393420" begin="0" fromJunction="J0" toJunction="J5" end="5000" vehsPerHour="39.03021732321591" departLane="free"/>
  <flow id="JF393421" begin="0" fromJunction="J3" toJunction="J6" end="5000" vehsPerHour="122.08641397527816" departLane="free"/>
  <flow id="JF393422" begin="0" fromJunction="J3" toJunction="J7" end="5000" vehsPerHour="123.07578696843841" departLane="free"/>
  <flow id="JF393423" begin="0" fromJunction="J3" toJunction="J4" end="5000" vehsPerHour="70.08610018083141" departLane="free"/>
  <flow id="JF393424" begin="0" fromJunction="J3" toJunction="J5" end="5000" vehsPerHour="29.12400972017293" departLane="free"/>
  <flow id="JF393425" begin="0" fromJunction="J6" toJunction="J7" end="5000" vehsPerHour="55.135346565184186" departLane="free"/>
  <flow id="JF393426" begin="0" fromJunction="J6" toJunction="J4" end="5000" vehsPerHour="56.5867765045453" departLane="free"/>
  <flow id="JF393427" begin="0" fromJunction="J6" toJunction="J5" end="5000" vehsPerHour="10.51752318415456" departLane="free"/>
  <flow id="JF393428" begin="0" fromJunction="J7" toJunction="J6" end="5000" vehsPerHour="6.140457617440659" departLane="free"/>
  <flow id="JF393429" begin="0" fromJunction="J7" toJunction="J4" end="5000" vehsPerHour="8.962180025775883" departLane="free"/>
  <flow id="JF393430" begin="0" fromJunction="J7" toJunction="J5" end="5000" vehsPerHour="57.00084379381125" departLane="free"/>
  <flow id="JF393431" begin="0" fromJunction="J4" toJunction="J6" end="5000" vehsPerHour="54.79034433209031" departLane="free"/>
  <flow id="JF393432" begin="0" fromJunction="J4" toJunction="J7" end="5000" vehsPerHour="20.038864246348087" departLane="free"/>
  <flow id="JF393433" begin="0" fromJunction="J4" toJunction="J5" end="5000" vehsPerHour="39.89326375508843" departLane="free"/>
  <flow id="JF393434" begin="0" fromJunction="J5" toJunction="J6" end="5000" vehsPerHour="53.93777766510895" departLane="free"/>
  <flow id="JF393435" begin="0" fromJunction="J5" toJunction="J7" end="5000" vehsPerHour="29.822616348182603" departLane="free"/>
  <flow id="JF393436" begin="0" fromJunction="J5" toJunction="J4" end="5000" vehsPerHour="22.852405592574293" departLane="free"/>
  <flow id="JF393437" begin="0" fromJunction="J6" toJunction="J0" end="5000" vehsPerHour="14.654340936016315" departLane="free"/>
  <flow id="JF393438" begin="0" fromJunction="J6" toJunction="J3" end="5000" vehsPerHour="21.81992844556637" departLane="free"/>
  <flow id="JF393439" begin="0" fromJunction="J7" toJunction="J0" end="5000" vehsPerHour="57.05223512381149" departLane="free"/>
  <flow id="JF393440" begin="0" fromJunction="J7" toJunction="J3" end="5000" vehsPerHour="54.3608328182992" departLane="free"/>
  <flow id="JF393441" begin="0" fromJunction="J4" toJunction="J0" end="5000" vehsPerHour="52.2814997763914" departLane="free"/>
  <flow id="JF393442" begin="0" fromJunction="J4" toJunction="J3" end="5000" vehsPerHour="3.417499941717561" departLane="free"/>
  <flow id="JF393443" begin="0" fromJunction="J5" toJunction="J0" end="5000" vehsPerHour="17.766175497090106" departLane="free"/>
  <flow id="JF393444" begin="0" fromJunction="J5" toJunction="J3" end="5000" vehsPerHour="64.92434704768257" departLane="free"/>
  <flow id="JF393445" begin="5000" fromJunction="J0" toJunction="J3" end="5060" vehsPerHour="70.13201959004927" departLane="free"/>
  <flow id="JF393446" begin="5000" fromJunction="J0" toJunction="J4" end="5060" vehsPerHour="10.825573208695081" departLane="free"/>
  <flow id="JF393447" begin="5000" fromJunction="J0" toJunction="J6" end="5060" vehsPerHour="75.21951278093351" departLane="free"/>
  <flow id="JF393448" begin="5000" fromJunction="J0" toJunction="J7" end="5060" vehsPerHour="170.84584736543454" departLane="free"/>
  <flow id="JF393449" begin="5000" fromJunction="J3" toJunction="J0" end="5060" vehsPerHour="226.4089524735298" departLane="free"/>
  <flow id="JF393450" begin="5000" fromJunction="J3" toJunction="J4" end="5060" vehsPerHour="82.9685283356021" departLane="free"/>
  <flow id="JF393451" begin="5000" fromJunction="J3" toJunction="J5" end="5060" vehsPerHour="293.09171919839184" departLane="free"/>
  <flow id="JF393452" begin="5000" fromJunction="J3" toJunction="J6" end="5060" vehsPerHour="351.1579344625409" departLane="free"/>
  <flow id="JF393453" begin="5000" fromJunction="J4" toJunction="J0" end="5060" vehsPerHour="29.014558030015944" departLane="free"/>
  <flow id="JF393454" begin="5000" fromJunction="J4" toJunction="J3" end="5060" vehsPerHour="209.89932786901437" departLane="free"/>
  <flow id="JF393455" begin="5000" fromJunction="J4" toJunction="J5" end="5060" vehsPerHour="161.3654880713478" departLane="free"/>
  <flow id="JF393456" begin="5000" fromJunction="J4" toJunction="J6" end="5060" vehsPerHour="67.02709898687489" departLane="free"/>
  <flow id="JF393457" begin="5000" fromJunction="J4" toJunction="J7" end="5060" vehsPerHour="78.21651046678355" departLane="free"/>
  <flow id="JF393458" begin="5000" fromJunction="J5" toJunction="J7" end="5060" vehsPerHour="212.4502778280924" departLane="free"/>
  <flow id="JF393459" begin="5000" fromJunction="J6" toJunction="J0" end="5060" vehsPerHour="259.30002942642034" departLane="free"/>
  <flow id="JF393460" begin="5000" fromJunction="J6" toJunction="J3" end="5060" vehsPerHour="96.22947943305815" departLane="free"/>
  <flow id="JF393461" begin="5000" fromJunction="J7" toJunction="J3" end="5060" vehsPerHour="139.7109032013843" departLane="free"/>
  <flow id="JF393462" begin="5000" fromJunction="J7" toJunction="J4" end="5060" vehsPerHour="17.17335845796054" departLane="free"/>
  <flow id="JF393463" begin="5000" fromJunction="J7" toJunction="J5" end="5060" vehsPerHour="26.424737752912584" departLane="free"/>
  <flow id="JF393464" begin="5000" fromJunction="J7" toJunction="J6" end="5060" vehsPerHour="267.4422284286147" departLane="free"/>
  <flow id="JF393465" begin="5060" fromJunction="J0" toJunction="J3" end="5120" vehsPerHour="309.76534452347687" departLane="free"/>
  <flow id="JF393466" begin="5060" fromJunction="J0" toJunction="J4" end="5120" vehsPerHour="225.5053171578739" departLane="free"/>
  <flow id="JF393467" begin="5060" fromJunction="J0" toJunction="J6" end="5120" vehsPerHour="381.151178510161" departLane="free"/>
  <flow id="JF393468" begin="5060" fromJunction="J0" toJunction="J7" end="5120" vehsPerHour="5.927980026331541" departLane="free"/>
  <flow id="JF393469" begin="5060" fromJunction="J3" toJunction="J0" end="5120" vehsPerHour="43.08766632843919" departLane="free"/>
  <flow id="JF393470" begin="5060" fromJunction="J3" toJunction="J4" end="5120" vehsPerHour="113.71953240633562" departLane="free"/>
  <flow id="JF393471" begin="5060" fromJunction="J3" toJunction="J7" end="5120" vehsPerHour="67.98992845186702" departLane="free"/>
  <flow id="JF393472" begin="5060" fromJunction="J4" toJunction="J0" end="5120" vehsPerHour="19.324381644108524" departLane="free"/>
  <flow id="JF393473" begin="5060" fromJunction="J4" toJunction="J5" end="5120" vehsPerHour="17.957820174717416" departLane="free"/>
  <flow id="JF393474" begin="5060" fromJunction="J4" toJunction="J7" end="5120" vehsPerHour="116.70041407368956" departLane="free"/>
  <flow id="JF393475" begin="5060" fromJunction="J5" toJunction="J0" end="5120" vehsPerHour="0.5850200892532751" departLane="free"/>
  <flow id="JF393476" begin="5060" fromJunction="J5" toJunction="J3" end="5120" vehsPerHour="173.16798832801794" departLane="free"/>
  <flow id="JF393477" begin="5060" fromJunction="J5" toJunction="J4" end="5120" vehsPerHour="209.15741165437154" departLane="free"/>
  <flow id="JF393478" begin="5060" fromJunction="J5" toJunction="J7" end="5120" vehsPerHour="44.639331354702094" departLane="free"/>
  <flow id="JF393479" begin="5060" fromJunction="J6" toJunction="J4" end="5120" vehsPerHour="139.55796485335287" departLane="free"/>
  <flow id="JF393480" begin="5060" fromJunction="J6" toJunction="J5" end="5120" vehsPerHour="224.93254900550625" departLane="free"/>
  <flow id="JF393481" begin="5060" fromJunction="J6" toJunction="J7" end="5120" vehsPerHour="58.961351192987664" departLane="free"/>
  <flow id="JF393482" begin="5060" fromJunction="J7" toJunction="J0" end="5120" vehsPerHour="205.26778484993383" departLane="free"/>
  <flow id="JF393483" begin="5060" fromJunction="J7" toJunction="J3" end="5120" vehsPerHour="239.16379822386492" departLane="free"/>
  <flow id="JF393484" begin="5060" fromJunction="J7" toJunction="J5" end="5120" vehsPerHour="224.3979388734729" departLane="free"/>
  <flow id="JF393485" begin="5060" fromJunction="J7" toJunction="J6" end="5120" vehsPerHour="63.55108738552861" departLane="free"/>
  <flow id="JF393486" begin="5120" fromJunction="J0" toJunction="J3" end="5180" vehsPerHour="452.18949920474137" departLane="free"/>
  <flow id="JF393487" begin="5120" fromJunction="J0" toJunction="J4" end="5180" vehsPerHour="332.4798468491577" departLane="free"/>
  <flow id="JF393488" begin="5120" fromJunction="J0" toJunction="J5" end="5180" vehsPerHour="131.79613650434948" departLane="free"/>
  <flow id="JF393489" begin="5120" fromJunction="J0" toJunction="J6" end="5180" vehsPerHour="60.761781958308376" departLane="free"/>
  <flow id="JF393490" begin="5120" fromJunction="J3" toJunction="J0" end="5180" vehsPerHour="9.968635232247708" departLane="free"/>
  <flow id="JF393491" begin="5120" fromJunction="J3" toJunction="J4" end="5180" vehsPerHour="282.3573916604988" departLane="free"/>
  <flow id="JF393492" begin="5120" fromJunction="J3" toJunction="J5" end="5180" vehsPerHour="180.38118492645503" departLane="free"/>
  <flow id="JF393493" begin="5120" fromJunction="J3" toJunction="J6" end="5180" vehsPerHour="275.4519805530338" departLane="free"/>
  <flow id="JF393494" begin="5120" fromJunction="J3" toJunction="J7" end="5180" vehsPerHour="536.2274664767261" departLane="free"/>
  <flow id="JF393495" begin="5120" fromJunction="J4" toJunction="J0" end="5180" vehsPerHour="222.69746874620768" departLane="free"/>
  <flow id="JF393496" begin="5120" fromJunction="J4" toJunction="J3" end="5180" vehsPerHour="155.46858277835125" departLane="free"/>
  <flow id="JF393497" begin="5120" fromJunction="J4" toJunction="J7" end="5180" vehsPerHour="267.70844648715126" departLane="free"/>
  <flow id="JF393498" begin="5120" fromJunction="J5" toJunction="J6" end="5180" vehsPerHour="131.62573501781694" departLane="free"/>
  <flow id="JF393499" begin="5120" fromJunction="J5" toJunction="J7" end="5180" vehsPerHour="273.5691953094871" departLane="free"/>
  <flow id="JF393500" begin="5120" fromJunction="J6" toJunction="J4" end="5180" vehsPerHour="259.8327080083574" departLane="free"/>
  <flow id="JF393501" begin="5120" fromJunction="J6" toJunction="J5" end="5180" vehsPerHour="40.044892897593435" departLane="free"/>
  <flow id="JF393502" begin="5120" fromJunction="J6" toJunction="J7" end="5180" vehsPerHour="176.7346282734524" departLane="free"/>
  <flow id="JF393503" begin="5120" fromJunction="J7" toJunction="J0" end="5180" vehsPerHour="169.9063225439209" departLane="free"/>
  <flow id="JF393504" begin="5120" fromJunction="J7" toJunction="J3" end="5180" vehsPerHour="60.44807736248395" departLane="free"/>
  <flow id="JF393505" begin="5120" fromJunction="J7" toJunction="J6" end="5180" vehsPerHour="120.04272112655795" departLane="free"/>
  <flow id="JF393506" begin="5180" fromJunction="J0" toJunction="J4" end="5240" vehsPerHour="164.37558030172852" departLane="free"/>
  <flow id="JF393507" begin="5180" fromJunction="J0" toJunction="J6" end="5240" vehsPerHour="509.84689390199054" departLane="free"/>
  <flow id="JF393508" begin="5180" fromJunction="J3" toJunction="J0" end="5240" vehsPerHour="244.76175950816605" departLane="free"/>
  <flow id="JF393509" begin="5180" fromJunction="J3" toJunction="J4" end="5240" vehsPerHour="426.2738151907792" departLane="free"/>
  <flow id="JF393510" begin="5180" fromJunction="J3" toJunction="J5" end="5240" vehsPerHour="246.90360343699683" departLane="free"/>
  <flow id="JF393511" begin="5180" fromJunction="J3" toJunction="J6" end="5240" vehsPerHour="315.68614008776433" departLane="free"/>
  <flow id="JF393512" begin="5180" fromJunction="J4" toJunction="J0" end="5240" vehsPerHour="228.64369432385672" departLane="free"/>
  <flow id="JF393513" begin="5180" fromJunction="J4" toJunction="J3" end="5240" vehsPerHour="84.65723684114496" departLane="free"/>
  <flow id="JF393514" begin="5180" fromJunction="J4" toJunction="J5" end="5240" vehsPerHour="4.520735747546764" departLane="free"/>
  <flow id="JF393515" begin="5180" fromJunction="J4" toJunction="J6" end="5240" vehsPerHour="218.30016666296183" departLane="free"/>
  <flow id="JF393516" begin="5180" fromJunction="J5" toJunction="J0" end="5240" vehsPerHour="107.37799231946568" departLane="free"/>
  <flow id="JF393517" begin="5180" fromJunction="J5" toJunction="J3" end="5240" vehsPerHour="39.97644966093879" departLane="free"/>
  <flow id="JF393518" begin="5180" fromJunction="J5" toJunction="J6" end="5240" vehsPerHour="29.365639863817265" departLane="free"/>
  <flow id="JF393519" begin="5180" fromJunction="J5" toJunction="J7" end="5240" vehsPerHour="220.05700073704247" departLane="free"/>
  <flow id="JF393520" begin="5180" fromJunction="J6" toJunction="J0" end="5240" vehsPerHour="244.19795868300434" departLane="free"/>
  <flow id="JF393521" begin="5180" fromJunction="J6" toJunction="J3" end="5240" vehsPerHour="209.7331609206042" departLane="free"/>
  <flow id="JF393522" begin="5180" fromJunction="J6" toJunction="J4" end="5240" vehsPerHour="41.21355239140457" departLane="free"/>
  <flow id="JF393523" begin="5180" fromJunction="J6" toJunction="J7" end="5240" vehsPerHour="129.6742834422913" departLane="free"/>
  <flow id="JF393524" begin="5180" fromJunction="J7" toJunction="J0" end="5240" vehsPerHour="13.078619175686626" departLane="free"/>
  <flow id="JF393525" begin="5180" fromJunction="J7" toJunction="J3" end="5240" vehsPerHour="236.4874770632658" departLane="free"/>
  <flow id="JF393526" begin="5180" fromJunction="J7" toJunction="J4" end="5240" vehsPerHour="232.7291459805607" departLane="free"/>
  <flow id="JF393527" begin="5180" fromJunction="J7" toJunction="J5" end="5240" vehsPerHour="31.066827336045662" departLane="free"/>
  <flow id="JF393528" begin="5240" fromJunction="J0" toJunction="J3" end="5300" vehsPerHour="173.76139773683107" departLane="free"/>
  <flow id="JF393529" begin="5240" fromJunction="J0" toJunction="J5" end="5300" vehsPerHour="328.059486597253" departLane="free"/>
  <flow id="JF393530" begin="5240" fromJunction="J0" toJunction="J7" end="5300" vehsPerHour="13.301492590114345" departLane="free"/>
  <flow id="JF393531" begin="5240" fromJunction="J3" toJunction="J0" end="5300" vehsPerHour="200.58969249349187" departLane="free"/>
  <flow id="JF393532" begin="5240" fromJunction="J3" toJunction="J6" end="5300" vehsPerHour="402.7542499576957" departLane="free"/>
  <flow id="JF393533" begin="5240" fromJunction="J4" toJunction="J0" end="5300" vehsPerHour="10.683471238318914" departLane="free"/>
  <flow id="JF393534" begin="5240" fromJunction="J4" toJunction="J5" end="5300" vehsPerHour="223.23094564685985" departLane="free"/>
  <flow id="JF393535" begin="5240" fromJunction="J4" toJunction="J7" end="5300" vehsPerHour="121.40025026832052" departLane="free"/>
  <flow id="JF393536" begin="5240" fromJunction="J5" toJunction="J0" end="5300" vehsPerHour="58.52989228197337" departLane="free"/>
  <flow id="JF393537" begin="5240" fromJunction="J5" toJunction="J3" end="5300" vehsPerHour="228.27031523613806" departLane="free"/>
  <flow id="JF393538" begin="5240" fromJunction="J5" toJunction="J4" end="5300" vehsPerHour="92.73658457203665" departLane="free"/>
  <flow id="JF393539" begin="5240" fromJunction="J5" toJunction="J6" end="5300" vehsPerHour="16.20774728717518" departLane="free"/>
  <flow id="JF393540" begin="5240" fromJunction="J5" toJunction="J7" end="5300" vehsPerHour="108.08301044886211" departLane="free"/>
  <flow id="JF393541" begin="5240" fromJunction="J6" toJunction="J3" end="5300" vehsPerHour="4.05082709418976" departLane="free"/>
  <flow id="JF393542" begin="5240" fromJunction="J6" toJunction="J4" end="5300" vehsPerHour="230.06761934377155" departLane="free"/>
  <flow id="JF393543" begin="5240" fromJunction="J6" toJunction="J5" end="5300" vehsPerHour="271.775675435713" departLane="free"/>
  <flow id="JF393544" begin="5240" fromJunction="J6" toJunction="J7" end="5300" vehsPerHour="211.39528639534333" departLane="free"/>
  <flow id="JF393545" begin="5240" fromJunction="J7" toJunction="J0" end="5300" vehsPerHour="181.05262169415406" departLane="free"/>
  <flow id="JF393546" begin="5240" fromJunction="J7" toJunction="J3" end="5300" vehsPerHour="240.07787389559047" departLane="free"/>
  <flow id="JF393547" begin="5240" fromJunction="J7" toJunction="J5" end="5300" vehsPerHour="142.44675268213757" departLane="free"/>
  <flow id="JF393548" begin="5240" fromJunction="J7" toJunction="J6" end="5300" vehsPerHour="143.94964674230874" departLane="free"/>
  <flow id="JF393549" begin="5300" fromJunction="J0" toJunction="J3" end="5360" vehsPerHour="401.6805106585078" departLane="free"/>
  <flow id="JF393550" begin="5300" fromJunction="J0" toJunction="J6" end="5360" vehsPerHour="465.3755602159854" departLane="free"/>
  <flow id="JF393551" begin="5300" fromJunction="J0" toJunction="J7" end="5360" vehsPerHour="509.1189220484069" departLane="free"/>
  <flow id="JF393552" begin="5300" fromJunction="J3" toJunction="J5" end="5360" vehsPerHour="86.68185938516409" departLane="free"/>
  <flow id="JF393553" begin="5300" fromJunction="J4" toJunction="J3" end="5360" vehsPerHour="58.850367998497184" departLane="free"/>
  <flow id="JF393554" begin="5300" fromJunction="J4" toJunction="J5" end="5360" vehsPerHour="55.170156096325165" departLane="free"/>
  <flow id="JF393555" begin="5300" fromJunction="J4" toJunction="J6" end="5360" vehsPerHour="157.21336661817895" departLane="free"/>
  <flow id="JF393556" begin="5300" fromJunction="J4" toJunction="J7" end="5360" vehsPerHour="30.787141116625463" departLane="free"/>
  <flow id="JF393557" begin="5300" fromJunction="J5" toJunction="J0" end="5360" vehsPerHour="182.9778020241383" departLane="free"/>
  <flow id="JF393558" begin="5300" fromJunction="J5" toJunction="J4" end="5360" vehsPerHour="103.79161057616786" departLane="free"/>
  <flow id="JF393559" begin="5300" fromJunction="J5" toJunction="J7" end="5360" vehsPerHour="184.8618875325216" departLane="free"/>
  <flow id="JF393560" begin="5300" fromJunction="J6" toJunction="J0" end="5360" vehsPerHour="203.02213808004663" departLane="free"/>
  <flow id="JF393561" begin="5300" fromJunction="J6" toJunction="J3" end="5360" vehsPerHour="204.2339951972346" departLane="free"/>
  <flow id="JF393562" begin="5300" fromJunction="J7" toJunction="J0" end="5360" vehsPerHour="24.47204071184765" departLane="free"/>
  <flow id="JF393563" begin="5300" fromJunction="J7" toJunction="J3" end="5360" vehsPerHour="61.1789539449853" departLane="free"/>
  <flow id="JF393564" begin="5300" fromJunction="J7" toJunction="J5" end="5360" vehsPerHour="196.62653876971666" departLane="free"/>
  <flow id="JF393565" begin="5300" fromJunction="J7" toJunction="J6" end="5360" vehsPerHour="255.11277916395832" departLane="free"/>
  <flow id="JF393566" begin="5360" fromJunction="J0" toJunction="J3" end="5420" vehsPerHour="478.0596805468254" departLane="free"/>
  <flow id="JF393567" begin="5360" fromJunction="J0" toJunction="J6" end="5420" vehsPerHour="496.14651385098716" departLane="free"/>
  <flow id="JF393568" begin="5360" fromJunction="J3" toJunction="J0" end="5420" vehsPerHour="489.0998549373691" departLane="free"/>
  <flow id="JF393569" begin="5360" fromJunction="J3" toJunction="J4" end="5420" vehsPerHour="358.42122405797954" departLane="free"/>
  <flow id="JF393570" begin="5360" fromJunction="J3" toJunction="J6" end="5420" vehsPerHour="258.5123959080209" departLane="free"/>
  <flow id="JF393571" begin="5360" fromJunction="J3" toJunction="J7" end="5420" vehsPerHour="204.74051024584315" departLane="free"/>
  <flow id="JF393572" begin="5360" fromJunction="J4" toJunction="J0" end="5420" vehsPerHour="189.67309439429172" departLane="free"/>
  <flow id="JF393573" begin="5360" fromJunction="J4" toJunction="J3" end="5420" vehsPerHour="273.5334808783601" departLane="free"/>
  <flow id="JF393574" begin="5360" fromJunction="J4" toJunction="J5" end="5420" vehsPerHour="269.7232322067916" departLane="free"/>
  <flow id="JF393575" begin="5360" fromJunction="J4" toJunction="J6" end="5420" vehsPerHour="205.33224909212225" departLane="free"/>
  <flow id="JF393576" begin="5360" fromJunction="J4" toJunction="J7" end="5420" vehsPerHour="201.09185835187628" departLane="free"/>
  <flow id="JF393577" begin="5360" fromJunction="J5" toJunction="J0" end="5420" vehsPerHour="213.95168869847276" departLane="free"/>
  <flow id="JF393578" begin="5360" fromJunction="J5" toJunction="J3" end="5420" vehsPerHour="152.6107559927394" departLane="free"/>
  <flow id="JF393579" begin="5360" fromJunction="J5" toJunction="J6" end="5420" vehsPerHour="265.8023348147855" departLane="free"/>
  <flow id="JF393580" begin="5360" fromJunction="J6" toJunction="J0" end="5420" vehsPerHour="16.08534789594309" departLane="free"/>
  <flow id="JF393581" begin="5360" fromJunction="J6" toJunction="J3" end="5420" vehsPerHour="101.29532123685294" departLane="free"/>
  <flow id="JF393582" begin="5360" fromJunction="J6" toJunction="J4" end="5420" vehsPerHour="130.50589005542884" departLane="free"/>
  <flow id="JF393583" begin="5360" fromJunction="J6" toJunction="J5" end="5420" vehsPerHour="271.54135820567024" departLane="free"/>
  <flow id="JF393584" begin="5360" fromJunction="J7" toJunction="J0" end="5420" vehsPerHour="65.49546959484243" departLane="free"/>
  <flow id="JF393585" begin="5360" fromJunction="J7" toJunction="J3" end="5420" vehsPerHour="141.47426353315402" departLane="free"/>
  <flow id="JF393586" begin="5360" fromJunction="J7" toJunction="J4" end="5420" vehsPerHour="52.17058067100357" departLane="free"/>
  <flow id="JF393587" begin="5360" fromJunction="J7" toJunction="J5" end="5420" vehsPerHour="78.23096909813927" departLane="free"/>
  <flow id="JF393588" begin="5360" fromJunction="J7" toJunction="J6" end="5420" vehsPerHour="252.3356984515566" departLane="free"/>
  <flow id="JF393589" begin="5420" fromJunction="J0" toJunction="J3" end="5480" vehsPerHour="340.9114632681218" departLane="free"/>
  <flow id="JF393590" begin="5420" fromJunction="J0" toJunction="J4" end="5480" vehsPerHour="150.25748895517435" departLane="free"/>
  <flow id="JF393591" begin="5420" fromJunction="J0" toJunction="J6" end="5480" vehsPerHour="89.49497842074437" departLane="free"/>
  <flow id="JF393592" begin="5420" fromJunction="J0" toJunction="J7" end="5480" vehsPerHour="2.578307442678213" departLane="free"/>
  <flow id="JF393593" begin="5420" fromJunction="J3" toJunction="J4" end="5480" vehsPerHour="267.2343671642839" departLane="free"/>
  <flow id="JF393594" begin="5420" fromJunction="J3" toJunction="J5" end="5480" vehsPerHour="243.70434560532215" departLane="free"/>
  <flow id="JF393595" begin="5420" fromJunction="J3" toJunction="J6" end="5480" vehsPerHour="265.18038920787933" departLane="free"/>
  <flow id="JF393596" begin="5420" fromJunction="J3" toJunction="J7" end="5480" vehsPerHour="131.55120350710482" departLane="free"/>
  <flow id="JF393597" begin="5420" fromJunction="J4" toJunction="J0" end="5480" vehsPerHour="196.85749439822402" departLane="free"/>
  <flow id="JF393598" begin="5420" fromJunction="J4" toJunction="J3" end="5480" vehsPerHour="95.77453174427652" departLane="free"/>
  <flow id="JF393599" begin="5420" fromJunction="J4" toJunction="J6" end="5480" vehsPerHour="237.76939960355128" departLane="free"/>
  <flow id="JF393600" begin="5420" fromJunction="J5" toJunction="J0" end="5480" vehsPerHour="143.146663113184" departLane="free"/>
  <flow id="JF393601" begin="5420" fromJunction="J5" toJunction="J3" end="5480" vehsPerHour="253.91014565466617" departLane="free"/>
  <flow id="JF393602" begin="5420" fromJunction="J5" toJunction="J4" end="5480" vehsPerHour="156.2725665086564" departLane="free"/>
  <flow id="JF393603" begin="5420" fromJunction="J5" toJunction="J6" end="5480" vehsPerHour="257.41494883697163" departLane="free"/>
  <flow id="JF393604" begin="5420" fromJunction="J5" toJunction="J7" end="5480" vehsPerHour="138.6056527651063" departLane="free"/>
  <flow id="JF393605" begin="5420" fromJunction="J6" toJunction="J3" end="5480" vehsPerHour="137.9532082744847" departLane="free"/>
  <flow id="JF393606" begin="5420" fromJunction="J6" toJunction="J4" end="5480" vehsPerHour="0.30380820804911307" departLane="free"/>
  <flow id="JF393607" begin="5420" fromJunction="J6" toJunction="J5" end="5480" vehsPerHour="5.062786960447907" departLane="free"/>
  <flow id="JF393608" begin="5420" fromJunction="J6" toJunction="J7" end="5480" vehsPerHour="59.47337465717622" departLane="free"/>
  <flow id="JF393609" begin="5420" fromJunction="J7" toJunction="J0" end="5480" vehsPerHour="159.86285244779793" departLane="free"/>
  <flow id="JF393610" begin="5420" fromJunction="J7" toJunction="J4" end="5480" vehsPerHour="274.73926095345075" departLane="free"/>
  <flow id="JF393611" begin="5420" fromJunction="J7" toJunction="J6" end="5480" vehsPerHour="70.48838403940289" departLane="free"/>
  <flow id="JF393612" begin="5480" fromJunction="J0" toJunction="J3" end="5540" vehsPerHour="451.48688873766287" departLane="free"/>
  <flow id="JF393613" begin="5480" fromJunction="J0" toJunction="J4" end="5540" vehsPerHour="140.5178315483725" departLane="free"/>
  <flow id="JF393614" begin="5480" fromJunction="J0" toJunction="J6" end="5540" vehsPerHour="325.72233767102784" departLane="free"/>
  <flow id="JF393615" begin="5480" fromJunction="J0" toJunction="J7" end="5540" vehsPerHour="51.741790651982875" departLane="free"/>
  <flow id="JF393616" begin="5480" fromJunction="J3" toJunction="J5" end="5540" vehsPerHour="89.21763362901076" departLane="free"/>
  <flow id="JF393617" begin="5480" fromJunction="J4" toJunction="J0" end="5540" vehsPerHour="20.283413979015386" departLane="free"/>
  <flow id="JF393618" begin="5480" fromJunction="J4" toJunction="J3" end="5540" vehsPerHour="5.000948142391732" departLane="free"/>
  <flow id="JF393619" begin="5480" fromJunction="J4" toJunction="J5" end="5540" vehsPerHour="254.27525792102833" departLane="free"/>
  <flow id="JF393620" begin="5480" fromJunction="J4" toJunction="J6" end="5540" vehsPerHour="133.7548013982246" departLane="free"/>
  <flow id="JF393621" begin="5480" fromJunction="J4" toJunction="J7" end="5540" vehsPerHour="132.28079169327847" departLane="free"/>
  <flow id="JF393622" begin="5480" fromJunction="J5" toJunction="J0" end="5540" vehsPerHour="220.9764458351399" departLane="free"/>
  <flow id="JF393623" begin="5480" fromJunction="J5" toJunction="J3" end="5540" vehsPerHour="112.18603862337186" departLane="free"/>
  <flow id="JF393624" begin="5480" fromJunction="J5" toJunction="J6" end="5540" vehsPerHour="32.63555457629689" departLane="free"/>
  <flow id="JF393625" begin="5480" fromJunction="J6" toJunction="J0" end="5540" vehsPerHour="48.4315003096022" departLane="free"/>
  <flow id="JF393626" begin="5480" fromJunction="J6" toJunction="J3" end="5540" vehsPerHour="58.335776235040306" departLane="free"/>
  <flow id="JF393627" begin="5480" fromJunction="J6" toJunction="J4" end="5540" vehsPerHour="177.20526589688598" departLane="free"/>
  <flow id="JF393628" begin="5480" fromJunction="J6" toJunction="J5" end="5540" vehsPerHour="68.96066593243657" departLane="free"/>
  <flow id="JF393629" begin="5480" fromJunction="J6" toJunction="J7" end="5540" vehsPerHour="199.01955775989015" departLane="free"/>
  <flow id="JF393630" begin="5480" fromJunction="J7" toJunction="J0" end="5540" vehsPerHour="158.3334291804576" departLane="free"/>
  <flow id="JF393631" begin="5480" fromJunction="J7" toJunction="J3" end="5540" vehsPerHour="125.55424355085513" departLane="free"/>
  <flow id="JF393632" begin="5480" fromJunction="J7" toJunction="J5" end="5540" vehsPerHour="7.894407454469831" departLane="free"/>
  <flow id="JF393633" begin="5540" fromJunction="J0" toJunction="J3" end="5600" vehsPerHour="493.72285809652055" departLane="free"/>
  <flow id="JF393634" begin="5540" fromJunction="J0" toJunction="J4" end="5600" vehsPerHour="389.4853192336257" departLane="free"/>
  <flow id="JF393635" begin="5540" fromJunction="J0" toJunction="J5" end="5600" vehsPerHour="478.1888705741065" departLane="free"/>
  <flow id="JF393636" begin="5540" fromJunction="J3" toJunction="J4" end="5600" vehsPerHour="134.60387977132226" departLane="free"/>
  <flow id="JF393637" begin="5540" fromJunction="J3" toJunction="J5" end="5600" vehsPerHour="413.3437226175782" departLane="free"/>
  <flow id="JF393638" begin="5540" fromJunction="J3" toJunction="J7" end="5600" vehsPerHour="140.84418855096652" departLane="free"/>
  <flow id="JF393639" begin="5540" fromJunction="J4" toJunction="J0" end="5600" vehsPerHour="164.17844680681057" departLane="free"/>