<?xml version="1.0" encoding="UTF-8"?>
<routes xmlns:xsi="http://www.w3.org/2001/XMLSchema-instance" xsi:noNamespaceSchemaLocation="http://sumo.dlr.de/xsd/routes_file.xsd">
  <flow id="JF398764" begin="0" fromJunction="J0" toJunction="J3" end="5000" vehsPerHour="949.6182609531904" departLane="free"/>
  <flow id="JF398765" begin="0" fromJunction="J3" toJunction="J0" end="5000" vehsPerHour="239.72735503025925" departLane="free"/>
  <flow id="JF398766" begin="0" fromJunction="J0" toJunction="J6" end="5000" vehsPerHour="25.482491749965064" departLane="free"/>
  <flow id="JF398767" begin="0" fromJunction="J0" toJunction="J7" end="5000" vehsPerHour="100.35519353648775" departLane="free"/>
  <flow id="JF398768" begin="0" fromJunction="J0" toJunction="J4" end="5000" vehsPerHour="120.46063067300692" departLane="free"/>
  <flow id="JF398769" begin="0" fromJunction="J0" toJunction="J5" end="5000" vehsPerHour="125.51007693523282" departLane="free"/>
  <flow id="JF398770" begin="0" fromJunction="J3" toJunction="J6" end="5000" vehsPerHour="21.334686217969267" departLane="free"/>
  <flow id="JF398771" begin="0" fromJunction="J3" toJunction="J7" end="5000" vehsPerHour="128.05890278839064" departLane="free"/>
  <flow id="JF398772" begin="0" fromJunction="J3" toJunction="J4" end="5000" vehsPerHour="101.51495002339303" departLane="free"/>
  <flow id="JF398773" begin="0" fromJunction="J3" toJunction="J5" end="5000" vehsPerHour="131.3503047328254" departLane="free"/>
  <flow id="JF398774" begin="0" fromJunction="J6" toJunction="J7" end="5000" vehsPerHour="65.69405295400202" departLane="free"/>
  <flow id="JF398775" begin="0" fromJunction="J6" toJunction="J4" end="5000" vehsPerHour="14.797023191998411" departLane="free"/>
  <flow id="JF398776" begin="0" fromJunction="J6" toJunction="J5" end="5000" vehsPerHour="2.5853484848902877" departLane="free"/>
  <flow id="JF398777" begin="0" fromJunction="J7" toJunction="J6" end="5000" vehsPerHour="11.08533528122338" departLane="free"/>
  <flow id="JF398778" begin="0" fromJunction="J7" toJunction="J4" end="5000" vehsPerHour="63.52686140737017" departLane="free"/>
  <flow id="JF398779" begin="0" fromJunction="J7" toJunction="J5" end="5000" vehsPerHour="59.505606648351204" departLane="free"/>
  <flow id="JF398780" begin="0" fromJunction="J4" toJunction="J6" end="5000" vehsPerHour="16.63059834912291" departLane="free"/>
  <flow id="JF398781" begin="0" fromJunction="J4" toJunction="J7" end="5000" vehsPerHour="38.53121446704188" departLane="free"/>
  <flow id="JF398782" begin="0" fromJunction="J4" toJunction="J5" end="5000" vehsPerHour="28.801057614890414" departLane="free"/>
  <flow id="JF398783" begin="0" fromJunction="J5" toJunction="J6" end="5000" vehsPerHour="64.68844828270635" departLane="free"/>
  <flow id="JF398784" begin="0" fromJunction="J5" toJunction="J7" end="5000" vehsPerHour="48.85663390457901" departLane="free"/>
  <flow id="JF398785" begin="0" fromJunction="J5" toJunction="J4" end="5000" vehsPerHour="50.0404576925384" departLane="free"/>
  <flow id="JF398786" begin="0" fromJunction="J6" toJunction="J0" end="5000" vehsPerHour="40.71146473758273" departLane="free"/>
  <flow id="JF398787" begin="0" fromJunction="J6" toJunction="J3" end="5000" vehsPerHour="43.61366556908446" departLane="free"/>
  <flow id="JF398788" begin="0" fromJunction="J7" toJunction="J0" end="5000" vehsPerHour="45.139465757688086" departLane="free"/>
  <flow id="JF398789" begin="0" fromJunction="J7" toJunction="J3" end="5000" vehsPerHour="45.724536618165885" departLane="free"/>
  <flow id="JF398790" begin="0" fromJunction="J4" toJunction="J0" end="5000" vehsPerHour="20.200909745978816" departLane="free"/>
  <flow id="JF398791" begin="0" fromJunction="J4" toJunction="J3" end="5000" vehsPerHour="0.6247848507937439" departLane="free"/>
  <flow id="JF398792" begin="0" fromJunction="J5" toJunction="J0" end="5000" vehsPerHour="0.04956374250074961" departLane="free"/>
  <flow id="JF398793" begin="0" fromJunction="J5" toJunction="J3" end="5000" vehsPerHour="26.423533494816706" departLane="free"/>
  <flow id="JF398794" begin="5000" fromJunction="J0" toJunction="J3" end="5060" vehsPerHour="140.6363075656145" departLane="free"/>
  <flow id="JF398795" begin="5000" fromJunction="J0" toJunction="J4" end="5060" vehsPerHour="381.824246481864" departLane="free"/>
  <flow id="JF398796" begin="5000" fromJunction="J0" toJunction="J6" end="5060" vehsPerHour="281.37729550990383" departLane="free"/>
  <flow id="JF398797" begin="5000" fromJunction="J3" toJunction="J0" end="5060" vehsPerHour="467.7679990570197" departLane="free"/>
  <flow id="JF398798" begin="5000" fromJunction="J3" toJunction="J5" end="5060" vehsPerHour="4.681396297165305" departLane="free"/>
  <flow id="JF398799" begin="5000" fromJunction="J4" toJunction="J0" end="5060" vehsPerHour="201.6942429868038" departLane="free"/>
  <flow id="JF398800" begin="5000" fromJunction="J4" toJunction="J3" end="5060" vehsPerHour="233.26041907067497" departLane="free"/>
  <flow id="JF398801" begin="5000" fromJunction="J4" toJunction="J5" end="5060" vehsPerHour="252.13507056193697" departLane="free"/>
  <flow id="JF398802" begin="5000" fromJunction="J4" toJunction="J6" end="5060" vehsPerHour="105.98562852387025" departLane="free"/>
  <flow id="JF398803" begin="5000" fromJunction="J4" toJunction="J7" end="5060" vehsPerHour="124.02508140220289" departLane="free"/>
  <flow id="JF398804" begin="5000" fromJunction="J5" toJunction="J0" end="5060" vehsPerHour="93.8124185663223" departLane="free"/>
  <flow id="JF398805" begin="5000" fromJunction="J5" toJunction="J3" end="5060" vehsPerHour="26.607862249822613" departLane="free"/>
  <flow id="JF398806" begin="5000" fromJunction="J5" toJunction="J4" end="5060" vehsPerHour="186.96461264005777" departLane="free"/>
  <flow id="JF398807" begin="5000" fromJunction="J5" toJunction="J6" end="5060" vehsPerHour="48.76274189512378" departLane="free"/>
  <flow id="JF398808" begin="5000" fromJunction="J6" toJunction="J0" end="5060" vehsPerHour="52.87649971729696" departLane="free"/>
  <flow id="JF398809" begin="5000" fromJunction="J6" toJunction="J3" end="5060" vehsPerHour="181.6813841641426" departLane="free"/>
  <flow id="JF398810" begin="5000" fromJunction="J7" toJunction="J0" end="5060" vehsPerHour="57.01944970512303" departLane="free"/>
  <flow id="JF398811" begin="5000" fromJunction="J7" toJunction="J3" end="5060" vehsPerHour="158.34533121999897" departLane="free"/>
  <flow id="JF398812" begin="5000" fromJunction="J7" toJunction="J4" end="5060" vehsPerHour="17.971867606147946" departLane="free"/>
  <flow id="JF398813" begin="5000" fromJunction="J7" toJunction="J6" end="5060" vehsPerHour="35.875975028806984" departLane="free"/>
  <flow id="JF398814" begin="5060" fromJunction="J0" toJunction="J3" end="5120" vehsPerHour="336.1712233767469" departLane="free"/>
  <flow id="JF398815" begin="5060" fromJunction="J0" toJunction="J5" end="5120" vehsPerHour="343.7279712760646" departLane="free"/>
  <flow id="JF398816" begin="5060" fromJunction="J0" toJunction="J7" end="5120" vehsPerHour="69.00672410253732" departLane="free"/>
  <flow id="JF398817" begin="5060" fromJunction="J3" toJunction="J0" end="5120" vehsPerHour="132.1667149195886" departLane="free"/>
  <flow id="JF398818" begin="5060" fromJunction="J3" toJunction="J4" end="5120" vehsPerHour="100.69658639718057" departLane="free"/>
  <flow id="JF398819" begin="5060" fromJunction="J3" toJunction="J6" end="5120" vehsPerHour="225.97158949734873" departLane="free"/>
  <flow id="JF398820" begin="5060" fromJunction="J3" toJunction="J7" end="5120" vehsPerHour="360.6000267800193" departLane="free"/>
  <flow id="JF398821" begin="5060" fromJunction="J4" toJunction="J0" end="5120" vehsPerHour="54.56439281083659" departLane="free"/>
  <flow id="JF398822" begin="5060" fromJunction="J4" toJunction="J6" end="5120" vehsPerHour="34.4482934017871" departLane="free"/>
  <flow id="JF398823" begin="5060" fromJunction="J4" toJunction="J7" end="5120" vehsPerHour="76.66855915441592" departLane="free"/>
  <flow id="JF398824" begin="5060" fromJunction="J5" toJunction="J0" end="5120" vehsPerHour="232.01842994942365" departLane="free"/>
  <flow id="JF398825" begin="5060" fromJunction="J5" toJunction="J3" end="5120" vehsPerHour="230.8531004764156" departLane="free"/>
  <flow id="JF398826" begin="5060" fromJunction="J5" toJunction="J4" end="5120" vehsPerHour="60.90298648989831" departLane="free"/>
  <flow id="JF398827" begin="5060" fromJunction="J5" toJunction="J6" end="5120" vehsPerHour="38.14041257916325" departLane="free"/>
  <flow id="JF398828" begin="5060" fromJunction="J5" toJunction="J7" end="5120" vehsPerHour="273.97406216432285" departLane="free"/>
  <flow id="JF398829" begin="5060" fromJunction="J6" toJunction="J0" end="5120" vehsPerHour="123.2626787372922" departLane="free"/>
  <flow id="JF398830" begin="5060" fromJunction="J6" toJunction="J3" end="5120" vehsPerHour="73.28862145619341" departLane="free"/>
  <flow id="JF398831" begin="5060" fromJunction="J6" toJunction="J5" end="5120" vehsPerHour="225.40398741811748" departLane="free"/>
  <flow id="JF398832" begin="5060" fromJunction="J6" toJunction="J7" end="5120" vehsPerHour="218.6818497687317" departLane="free"/>
  <flow id="JF398833" begin="5060" fromJunction="J7" toJunction="J3" end="5120" vehsPerHour="61.67261539524359" departLane="free"/>
  <flow id="JF398834" begin="5060" fromJunction="J7" toJunction="J4" end="5120" vehsPerHour="32.69752512705769" departLane="free"/>
  <flow id="JF398835" begin="5060" fromJunction="J7" toJunction="J5" end="5120" vehsPerHour="262.3713634493005" departLane="free"/>
  <flow id="JF398836" begin="5060" fromJunction="J7" toJunction="J6" end="5120" vehsPerHour="11.890011516853622" departLane="free"/>
  <flow id="JF398837" begin="5120" fromJunction="J0" toJunction="J3" end="5180" vehsPerHour="231.19885259410407" departLane="free"/>
  <flow id="JF398838" begin="5120" fromJunction="J0" toJunction="J5" end="5180" vehsPerHour="329.4678820355078" departLane="free"/>
  <flow id="JF398839" begin="5120" fromJunction="J0" toJunction="J6" end="5180" vehsPerHour="97.3948087068433" departLane="free"/>
  <flow id="JF398840" begin="5120" fromJunction="J0" toJunction="J7" end="5180" vehsPerHour="305.65644229884873" departLane="free"/>
  <flow id="JF398841" begin="5120" fromJunction="J3" toJunction="J0" end="5180" vehsPerHour="84.517191834297" departLane="free"/>
  <flow id="JF398842" begin="5120" fromJunction="J3" toJunction="J4" end="5180" vehsPerHour="387.5437684122036" departLane="free"/>
  <flow id="JF398843" begin="5120" fromJunction="J3" toJunction="J5" end="5180" vehsPerHour="110.00501580386067" departLane="free"/>
  <flow id="JF398844" begin="5120" fromJunction="J3" toJunction="J6" end="5180" vehsPerHour="151.60062217394855" departLane="free"/>
  <flow id="JF398845" begin="5120" fromJunction="J3" toJunction="J7" end="5180" vehsPerHour="407.982067108477" departLane="free"/>
  <flow id="JF398846" begin="5120" fromJunction="J4" toJunction="J0" end="5180" vehsPerHour="24.616592443369605" departLane="free"/>
  <flow id="JF398847" begin="5120" fromJunction="J4" toJunction="J6" end="5180" vehsPerHour="85.49266623364613" departLane="free"/>
  <flow id="JF398848" begin="5120" fromJunction="J4" toJunction="J7" end="5180" vehsPerHour="144.99555850912316" departLane="free"/>
  <flow id="JF398849" begin="5120" fromJunction="J5" toJunction="J3" end="5180" vehsPerHour="10.535627323174205" departLane="free"/>
  <flow id="JF398850" begin="5120" fromJunction="J5" toJunction="J4" end="5180" vehsPerHour="53.27942810423369" departLane="free"/>
  <flow id="JF398851" begin="5120" fromJunction="J5" toJunction="J6" end="5180" vehsPerHour="257.7576868205152" departLane="free"/>
  <flow id="JF398852" begin="5120" fromJunction="J5" toJunction="J7" end="5180" vehsPerHour="166.60524518146994" departLane="free"/>
  <flow id="JF398853" begin="5120" fromJunction="J6" toJunction="J0" end="5180" vehsPerHour="156.45371334900477" departLane="free"/>
  <flow id="JF398854" begin="5120" fromJunction="J6" toJunction="J3" end="5180" vehsPerHour="134.32572206896566" departLane="free"/>
  <flow id="JF398855" begin="5120" fromJunction="J6" toJunction="J4" end="5180" vehsPerHour="271.83649931278177" departLane="free"/>
  <flow id="JF398856" begin="5120" fromJunction="J6" toJunction="J5" end="5180" vehsPerHour="2.9394585684583494" departLane="free"/>
  <flow id="JF398857" begin="5120" fromJunction="J6" toJunction="J7" end="5180" vehsPerHour="193.2440085408497" departLane="free"/>
  <flow id="JF398858" begin="5120" fromJunction="J7" toJunction="J3" end="5180" vehsPerHour="194.69578907904824" departLane="free"/>
  <flow id="JF398859" begin="5120" fromJunction="J7" toJunction="J4" end="5180" vehsPerHour="129.12060907101775" departLane="free"/>
  <flow id="JF398860" begin="5120" fromJunction="J7" toJunction="J5" end="5180" vehsPerHour="130.90414110179776" departLane="free"/>
  <flow id="JF398861" begin="5180" fromJunction="J0" toJunction="J3" end="5240" vehsPerHour="93.37339256678396" departLane="free"/>
  <flow id="JF398862" begin="5180" fromJunction="J0" toJunction="J4" end="5240" vehsPerHour="76.14987972437828" departLane="free"/>
  <flow id="JF398863" begin="5180" fromJunction="J0" toJunction="J5" end="5240" vehsPerHour="263.1103210477683" departLane="free"/>
  <flow id="JF398864" begin="5180" fromJunction="J0" toJunction="J7" end="5240" vehsPerHour="124.08022497678759" departLane="free"/>
  <flow id="JF398865" begin="5180" fromJunction="J3" toJunction="J0" end="5240" vehsPerHour="43.50433368244375" departLane="free"/>
  <flow id="JF398866" begin="5180" fromJunction="J3" toJunction="J5" end="5240" vehsPerHour="437.9302439345064" departLane="free"/>
  <flow id="JF398867" begin="5180" fromJunction="J3" toJunction="J7" end="5240" vehsPerHour="523.1026328418022" departLane="free"/>
  <flow id="JF398868" begin="5180" fromJunction="J4" toJunction="J0" end="5240" vehsPerHour="114.01405706861753" departLane="free"/>
  <flow id="JF398869" begin="5180" fromJunction="J4" toJunction="J5" end="5240" vehsPerHour="178.15572686879852" departLane="free"/>
  <flow id="JF398870" begin="5180" fromJunction="J4" toJunction="J6" end="5240" vehsPerHour="109.77985816633999" departLane="free"/>
  <flow id="JF398871" begin="5180" fromJunction="J4" toJunction="J7" end="5240" vehsPerHour="215.07084423925582" departLane="free"/>
  <flow id="JF398872" begin="5180" fromJunction="J5" toJunction="J0" end="5240" vehsPerHour="192.21231400430622" departLane="free"/>
  <flow id="JF398873" begin="5180" fromJunction="J5" toJunction="J3" end="5240" vehsPerHour="79.27720618153009" departLane="free"/>
  <flow id="JF398874" begin="5180" fromJunction="J5" toJunction="J4" end="5240" vehsPerHour="101.12345751524684" departLane="free"/>
  <flow id="JF398875" begin="5180" fromJunction="J5" toJunction="J6" end="5240" vehsPerHour="176.81544884009548" departLane="free"/>
  <flow id="JF398876" begin="5180" fromJunction="J6" toJunction="J5" end="5240" vehsPerHour="98.1979104809884" departLane="free"/>
  <flow id="JF398877" begin="5180" fromJunction="J6" toJunction="J7" end="5240" vehsPerHour="5.073091122616015" departLane="free"/>
  <flow id="JF398878" begin="5180" fromJunction="J7" toJunction="J3" end="5240" vehsPerHour="8.95041542181328" departLane="free"/>
  <flow id="JF398879" begin="5180" fromJunction="J7" toJunction="J4" end="5240" vehsPerHour="167.7188145372643" departLane="free"/>
  <flow id="JF398880" begin="5240" fromJunction="J0" toJunction="J3" end="5300" vehsPerHour="441.76259442118334" departLane="free"/>
  <flow id="JF398881" begin="5240" fromJunction="J0" toJunction="J4" end="5300" vehsPerHour="268.8492209639537" departLane="free"/>
  <flow id="JF398882" begin="5240" fromJunction="J0" toJunction="J6" end="5300" vehsPerHour="503.64826346085425" departLane="free"/>
  <flow id="JF398883" begin="5240" fromJunction="J3" toJunction="J4" end="5300" vehsPerHour="133.7959863091021" departLane="free"/>
  <flow id="JF398884" begin="5240" fromJunction="J3" toJunction="J6" end="5300" vehsPerHour="267.5854239480192" departLane="free"/>
  <flow id="JF398885" begin="5240" fromJunction="J3" toJunction="J7" end="5300" vehsPerHour="432.40419022521746" departLane="free"/>
  <flow id="JF398886" begin="5240" fromJunction="J4" toJunction="J3" end="5300" vehsPerHour="16.966826867259332" departLane="free"/>
  <flow id="JF398887" begin="5240" fromJunction="J4" toJunction="J6" end="5300" vehsPerHour="236.10778018571594" departLane="free"/>
  <flow id="JF398888" begin="5240" fromJunction="J5" toJunction="J4" end="5300" vehsPerHour="182.2688180781319" departLane="free"/>
  <flow id="JF398889" begin="5240" fromJunction="J6" toJunction="J0" end="5300" vehsPerHour="140.16105219249343" departLane="free"/>
  <flow id="JF398890" begin="5240" fromJunction="J6" toJunction="J3" end="5300" vehsPerHour="105.58501653585488" departLane="free"/>
  <flow id="JF398891" begin="5240" fromJunction="J6" toJunction="J4" end="5300" vehsPerHour="149.41224853285595" departLane="free"/>
  <flow id="JF398892" begin="5240" fromJunction="J6" toJunction="J5" end="5300" vehsPerHour="114.40224548680452" departLane="free"/>
  <flow id="JF398893" begin="5240" fromJunction="J6" toJunction="J7" end="5300" vehsPerHour="169.65494895931477" departLane="free"/>
  <flow id="JF398894" begin="5240" fromJunction="J7" toJunction="J3" end="5300" vehsPerHour="136.8562306143863" departLane="free"/>
  <flow id="JF398895" begin="5240" fromJunction="J7" toJunction="J5" end="5300" vehsPerHour="256.11171401674767" departLane="free"/>
  <flow id="JF398896" begin="5300" fromJunction="J0" toJunction="J6" end="5360" vehsPerHour="143.7539981713048" departLane="free"/>
  <flow id="JF398897" begin="5300" fromJunction="J0" toJunction="J7" end="5360" vehsPerHour="217.80675757131678" departLane="free"/>
  <flow id="JF398898" begin="5300" fromJunction="J3" toJunction="J0" end="5360" vehsPerHour="186.69094048545017" departLane="free"/>
  <flow id="JF398899" begin="5300" fromJunction="J3" toJunction="J4" end="5360" vehsPerHour="549.4037628382931" departLane="free"/>
  <flow id="JF398900" begin="5300" fromJunction="J3" toJunction="J5" end="5360" vehsPerHour="225.16587576543512" departLane="free"/>
  <flow id="JF398901" begin="5300" fromJunction="J4" toJunction="J0" end="5360" vehsPerHour="248.6581970595469" departLane="free"/>
  <flow id="JF398902" begin="5300" fromJunction="J4" toJunction="J3" end="5360" vehsPerHour="204.40453247624666" departLane="free"/>
  <flow id="JF398903" begin="5300" fromJunction="J4" toJunction="J6" end="5360" vehsPerHour="199.44707118586064" departLane="free"/>
  <flow id="JF398904" begin="5300" fromJunction="J4" toJunction="J7" end="5360" vehsPerHour="79.89842447330712" departLane="free"/>
  <flow id="JF398905" begin="5300" fromJunction="J5" toJunction="J3" end="5360" vehsPerHour="114.20505556968072" departLane="free"/>
  <flow id="JF398906" begin="5300" fromJunction="J5" toJunction="J4" end="5360" vehsPerHour="236.20650858667025" departLane="free"/>
  <flow id="JF398907" begin="5300" fromJunction="J5" toJunction="J7" end="5360" vehsPerHour="242.78963660557397" departLane="free"/>
  <flow id="JF398908" begin="5300" fromJunction="J6" toJunction="J0" end="5360" vehsPerHour="2.684099343918489" departLane="free"/>
  <flow id="JF398909" begin="5300" fromJunction="J6" toJunction="J4" end="5360" vehsPerHour="220.6087305591065" departLane="free"/>
  <flow id="JF398910" begin="5300" fromJunction="J6" toJunction="J5" end="5360" vehsPerHour="98.38797527495062" departLane="free"/>
  <flow id="JF398911" begin="5300" fromJunction="J7" toJunction="J0" end="5360" vehsPerHour="274.1116495143264" departLane="free"/>
  <flow id="JF398912" begin="5300" fromJunction="J7" toJunction="J3" end="5360" vehsPerHour="156.01096767034917" departLane="free"/>
  <flow id="JF398913" begin="5300" fromJunction="J7" toJunction="J6" end="5360" vehsPerHour="151.94399952374116" departLane="free"/>
  <flow id="JF398914" begin="5360" fromJunction="J0" toJunction="J4" end="5420" vehsPerHour="42.22270893426694" departLane="free"/>
  <flow id="JF398915" begin="5360" fromJunction="J0" toJunction="J5" end="5420" vehsPerHour="92.79144347666053" departLane="free"/>
  <flow id="JF398916" begin="5360" fromJunction="J0" toJunction="J6" end="5420" vehsPerHour="320.66154566383324" departLane="free"/>
  <flow id="JF398917" begin="5360" fromJunction="J0" toJunction="J7" end="5420" vehsPerHour="275.4446107949128" departLane="free"/>
  <flow id="JF398918" begin="5360" fromJunction="J3" toJunction="J4" end="5420" vehsPerHour="93.54155460770042" departLane="free"/>
  <flow id="JF398919" begin="5360" fromJunction="J3" toJunction="J5" end="5420" vehsPerHour="225.27968239536096" departLane="free"/>
  <flow id="JF398920" begin="5360" fromJunction="J3" toJunction="J7" end="5420" vehsPerHour="146.29639448585567" departLane="free"/>
  <flow id="JF398921" begin="5360" fromJunction="J4" toJunction="J0" end="5420" vehsPerHour="33.88265815149053" departLane="free"/>
  <flow id="JF398922" begin="5360" fromJunction="J4" toJunction="J3" end="5420" vehsPerHour="62.84175546581721" departLane="free"/>
  <flow id="JF398923" begin="5360" fromJunction="J4" toJunction="J6" end="5420" vehsPerHour="208.7969650791608" departLane="free"/>
  <flow id="JF398924" begin="5360" fromJunction="J4" toJunction="J7" end="5420" vehsPerHour="42.06627794769579" departLane="free"/>
  <flow id="JF398925" begin="5360" fromJunction="J5" toJunction="J0" end="5420" vehsPerHour="253.59916301088944" departLane="free"/>
  <flow id="JF398926" begin="5360" fromJunction="J5" toJunction="J3" end="5420" vehsPerHour="244.89407177083052" departLane="free"/>
  <flow id="JF398927" begin="5360" fromJunction="J5" toJunction="J4" end="5420" vehsPerHour="64.24236955288296" departLane="free"/>
  <flow id="JF398928" begin="5360" fromJunction="J5" toJunction="J6" end="5420" vehsPerHour="69.60721623930996" departLane="free"/>
  <flow id="JF398929" begin="5360" fromJunction="J5" toJunction="J7" end="5420" vehsPerHour="159.197137434605" departLane="free"/>
  <flow id="JF398930" begin="5360" fromJunction="J6" toJunction="J3" end="5420" vehsPerHour="205.68436051691245" departLane="free"/>
  <flow id="JF398931" begin="5360" fromJunction="J6" toJunction="J4" end="5420" vehsPerHour="221.6714199297116" departLane="free"/>
  <flow id="JF398932" begin="5360" fromJunction="J6" toJunction="J7" end="5420" vehsPerHour="9.744495873731212" departLane="free"/>
  <flow id="JF398933" begin="5360" fromJunction="J7" toJunction="J0" end="5420" vehsPerHour="268.5500020162138" departLane="free"/>
  <flow id="JF398934" begin="5360" fromJunction="J7" toJunction="J3" end="5420" vehsPerHour="116.79344757231715" departLane="free"/>
  <flow id="JF398935" begin="5360" fromJunction="J7" toJunction="J4" end="5420" vehsPerHour="189.3699950160709" departLane="free"/>
  <flow id="JF398936" begin="5360" fromJunction="J7" toJunction="J5" end="5420" vehsPerHour="157.6314517761763" departLane="free"/>
  <flow id="JF398937" begin="5360" fromJunction="J7" toJunction="J6" end="5420" vehsPerHour="23.234618126462465" departLane="free"/>
  <flow id="JF398938" begin="5420" fromJunction="J0" toJunction="J4" end="5480" vehsPerHour="9.888062830652505" departLane="free"/>
  <flow id="JF398939" begin="5420" fromJunction="J0" toJunction="J5" end="5480" vehsPerHour="61.193158764776165" departLane="free"/>
  <flow id="JF398940" begin="5420" fromJunction="J0" toJunction="J7" end="5480" vehsPerHour="85.6223819779993" departLane="free"/>
  <flow id="JF398941" begin="5420" fromJunction="J3" toJunction="J0" end="5480" vehsPerHour="485.9579684871474" departLane="free"/>
  <flow id="JF398942" begin="5420" fromJunction="J3" toJunction="J4" end="5480" vehsPerHour="171.8793983726756" departLane="free"/>
  <flow id="JF398943" begin="5420" fromJunction="J3" toJunction="J5" end="5480" vehsPerHour="529.3484997440698" departLane="free"/>
  <flow id="JF398944" begin="5420" fromJunction="J3" toJunction="J6" end="5480" vehsPerHour="404.58713840846707" departLane="free"/>
  <flow id="JF398945" begin="5420" fromJunction="J3" toJunction="J7" end="5480" vehsPerHour="130.1368583400281" departLane="free"/>
  <flow id="JF398946" begin="5420" fromJunction="J4" toJunction="J0" end="5480" vehsPerHour="236.75035633474727" departLane="free"/>
  <flow id="JF398947" begin="5420" fromJunction="J4" toJunction="J3" end="5480" vehsPerHour="62.9819410093537" departLane="free"/>
  <flow id="JF398948" begin="5420" fromJunction="J4" toJunction="J7" end="5480" vehsPerHour="245.81906521109664" departLane="free"/>
  <flow id="JF398949" begin="5420" fromJunction="J5" toJunction="J0" end="5480" vehsPerHour="92.10116695680594" departLane="free"/>
  <flow id="JF398950" begin="5420" fromJunction="J5" toJunction="J3" end="5480" vehsPerHour="166.26148264558518" departLane="free"/>
  <flow id="JF398951" begin="5420" fromJunction="J5" toJunction="J4" end="5480" vehsPerHour="114.86216440003305" departLane="free"/>
  <flow id="JF398952" begin="5420" fromJunction="J5" toJunction="J6" end="5480" vehsPerHour="230.48760811178772" departLane="free"/>
  <flow id="JF398953" begin="5420" fromJunction="J5" toJunction="J7" end="5480" vehsPerHour="21.463576640020715" departLane="free"/>
  <flow id="JF398954" begin="5420" fromJunction="J6" toJunction="J0" end="5480" vehsPerHour="192.49167080357242" departLane="free"/>
  <flow id="JF398955" begin="5420" fromJunction="J6" toJunction="J3" end="5480" vehsPerHour="185.9032151590115" departLane="free"/>
  <flow id="JF398956" begin="5420" fromJunction="J6" toJunction="J4" end="5480" vehsPerHour="233.30500791386854" departLane="free"/>
  <flow id="JF398957" begin="5420" fromJunction="J7" toJunction="J0" end="5480" vehsPerHour="231.21300316729483" departLane="free"/>
  <flow id="JF398958" begin="5420" fromJunction="J7" toJunction="J3" end="5480" vehsPerHour="146.76559309854508" departLane="free"/>
  <flow id="JF398959" begin="5420" fromJunction="J7" toJunction="J5" end="5480" vehsPerHour="259.39190952916226" departLane="free"/>
  <flow id="JF398960" begin="5420" fromJunction="J7" toJunction="J6" end="5480" vehsPerHour="53.31899459975954" departLane="free"/>
  <flow id="JF398961" begin="5480" fromJunction="J0" toJunction="J3" end="5540" vehsPerHour="50.16995365367664" departLane="free"/>
  <flow id="JF398962" begin="5480" fromJunction="J0" toJunction="J4" end="5540" vehsPerHour="179.71734285590327" departLane="free"/>
  <flow id="JF398963" begin="5480" fromJunction="J0" toJunction="J5" end="5540" vehsPerHour="305.77236747236174" departLane="free"/>
  <flow id="JF398964" begin="5480" fromJunction="J0" toJunction="J6" end="5540" vehsPerHour="523.4363572775238" departLane="free"/>
  <flow id="JF398965" begin="5480" fromJunction="J3" toJunction="J4" end="5540" vehsPerHour="242.91814707365228" departLane="free"/>
  <flow id="JF398966" begin="5480" fromJunction="J3" toJunction="J5" end="5540" vehsPerHour="232.989689742338" departLane="free"/>
  <flow id="JF398967" begin="5480" fromJunction="J3" toJunction="J7" end="5540" vehsPerHour="360.6053825098782" departLane="free"/>
  <flow id="JF398968" begin="5480" fromJunction="J4" toJunction="J0" end="5540" vehsPerHour="185.0566341295049" departLane="free"/>
  <flow id="JF398969" begin="5480" fromJunction="J4" toJunction="J3" end="5540" vehsPerHour="151.01285633681056" departLane="free"/>
  <flow id="JF398970" begin="5480" fromJunction="J4" toJunction="J5" end="5540" vehsPerHour="58.15110416670919" departLane="free"/>
  <flow id="JF398971" begin="5480" fromJunction="J4" toJunction="J7" end="5540" vehsPerHour="78.85465534015378" departLane="free"/>
  <flow id="JF398972" begin="5480" fromJunction="J5" toJunction="J0" end="5540" vehsPerHour="261.8352172072142" departLane="free"/>
  <flow id="JF398973" begin="5480" fromJunction="J5" toJunction="J3" end="5540" vehsPerHour="78.34245915527045" departLane="free"/>
  <flow id="JF398974" begin="5480" fromJunction="J5" toJunction="J6" end="5540" vehsPerHour="113.2152077047947" departLane="free"/>
  <flow id="JF398975" begin="5480" fromJunction="J5" toJunction="J7" end="5540" vehsPerHour="12.125383274876482" departLane="free"/>
  <flow id="JF398976" begin="5480" fromJunction="J7" toJunction="J0" end="5540" vehsPerHour="249.5598219847981" departLane="free"/>
  <flow id="JF398977" begin="5480" fromJunction="J7" toJunction="J4" end="5540" vehsPerHour="78.02525036646641" departLane="free"/>
  <flow id="JF398978" begin="5480" fromJunction="J7" toJunction="J5" end="5540" vehsPerHour="164.13096818993714" departLane="free"/>
  <flow id="JF398979" begin="5540" fromJunction="J0" toJunction="J3" end="5600" vehsPerHour="163.7483098415415" departLane="free"/>
  <flow id="JF398980" begin="5540" fromJunction="J0" toJunction="J4" end="5600" vehsPerHour="42.60978189418912" departLane="free"/>
  <flow id="JF398981" begin="5540" fromJunction="J0" toJunction="J5" end="5600" vehsPerHour="441.9036703974198" departLane="free"/>
  <flow id="JF398982" begin="5540" fromJunction="J0" toJunction="J6" end="5600" vehsPerHour="494.6442138778383" departLane="free"/>
  <flow id="JF398983" begin="5540" fromJunction="J0" toJunction="J7" end="5600" vehsPerHour="520.5396022930431" departLane="free"/>
  <flow id="JF398984" begin="5540" fromJunction="J3" toJunction="J0" end="5600" vehsPerHour="343.7325648170396" departLane="free"/>
  <flow id="JF398985" begin="5540" fromJunction="J3" toJunction="J4" end="5600" vehsPerHour="277.11215995422305" departLane="free"/>
  <flow id="JF398986" begin="5540" fromJunction="J3" toJunction="J5" end="5600" vehsPerHour="400.1314146121531" departLane="free"/>
  <flow id="JF398987" begin="5540" fromJunction="J4" toJunction="J0" end="5600" vehsPerHour="74.71225238020556" departLane="free"/>
  <flow id="JF398988" begin="5540" fromJunction="J4" toJunction="J7" end="5600" vehsPerHour="194.2670687230376" departLane="free"/>