<?xml version="1.0" encoding="UTF-8"?>
<routes xmlns:xsi="http://www.w3.org/2001/XMLSchema-instance" xsi:noNamespaceSchemaLocation="http://sumo.dlr.de/xsd/routes_file.xsd">
  <flow id="JF391627" begin="0" fromJunction="J0" toJunction="J3" end="5000" vehsPerHour="1341.5653097272088" departLane="free"/>
  <flow id="JF391628" begin="0" fromJunction="J3" toJunction="J0" end="5000" vehsPerHour="1349.4983880306484" departLane="free"/>
  <flow id="JF391629" begin="0" fromJunction="J0" toJunction="J6" end="5000" vehsPerHour="46.69767806969439" departLane="free"/>
  <flow id="JF391630" begin="0" fromJunction="J0" toJunction="J7" end="5000" vehsPerHour="24.399393485118857" departLane="free"/>
  <flow id="JF391631" begin="0" fromJunction="J0" toJunction="J4" end="5000" vehsPerHour="125.3631354749647" departLane="free"/>
  <flow id="JF391632" begin="0" fromJunction="J0" toJunction="J5" end="5000" vehsPerHour="25.249548101669113" departLane="free"/>
  <flow id="JF391633" begin="0" fromJunction="J3" toJunction="J6" end="5000" vehsPerHour="82.32278162766764" departLane="free"/>
  <flow id="JF391634" begin="0" fromJunction="J3" toJunction="J7" end="5000" vehsPerHour="52.05951453595432" departLane="free"/>
  <flow id="JF391635" begin="0" fromJunction="J3" toJunction="J4" end="5000" vehsPerHour="88.00488502506516" departLane="free"/>
  <flow id="JF391636" begin="0" fromJunction="J3" toJunction="J5" end="5000" vehsPerHour="123.08842745921051" departLane="free"/>
  <flow id="JF391637" begin="0" fromJunction="J6" toJunction="J7" end="5000" vehsPerHour="24.518417653710138" departLane="free"/>
  <flow id="JF391638" begin="0" fromJunction="J6" toJunction="J4" end="5000" vehsPerHour="34.13624519702579" departLane="free"/>
  <flow id="JF391639" begin="0" fromJunction="J6" toJunction="J5" end="5000" vehsPerHour="56.22824718153784" departLane="free"/>
  <flow id="JF391640" begin="0" fromJunction="J7" toJunction="J6" end="5000" vehsPerHour="23.90433801404339" departLane="free"/>
  <flow id="JF391641" begin="0" fromJunction="J7" toJunction="J4" end="5000" vehsPerHour="51.13742703979537" departLane="free"/>
  <flow id="JF391642" begin="0" fromJunction="J7" toJunction="J5" end="5000" vehsPerHour="19.883348505797372" departLane="free"/>
  <flow id="JF391643" begin="0" fromJunction="J4" toJunction="J6" end="5000" vehsPerHour="12.538790307716916" departLane="free"/>
  <flow id="JF391644" begin="0" fromJunction="J4" toJunction="J7" end="5000" vehsPerHour="4.342724032873506" departLane="free"/>
  <flow id="JF391645" begin="0" fromJunction="J4" toJunction="J5" end="5000" vehsPerHour="60.77045751227588" departLane="free"/>
  <flow id="JF391646" begin="0" fromJunction="J5" toJunction="J6" end="5000" vehsPerHour="51.90693524623509" departLane="free"/>
  <flow id="JF391647" begin="0" fromJunction="J5" toJunction="J7" end="5000" vehsPerHour="52.46639713802522" departLane="free"/>
  <flow id="JF391648" begin="0" fromJunction="J5" toJunction="J4" end="5000" vehsPerHour="59.498197200577934" departLane="free"/>
  <flow id="JF391649" begin="0" fromJunction="J6" toJunction="J0" end="5000" vehsPerHour="42.07511732385793" departLane="free"/>
  <flow id="JF391650" begin="0" fromJunction="J6" toJunction="J3" end="5000" vehsPerHour="63.4294056331054" departLane="free"/>
  <flow id="JF391651" begin="0" fromJunction="J7" toJunction="J0" end="5000" vehsPerHour="52.839471671904384" departLane="free"/>
  <flow id="JF391652" begin="0" fromJunction="J7" toJunction="J3" end="5000" vehsPerHour="57.59412010582106" departLane="free"/>
  <flow id="JF391653" begin="0" fromJunction="J4" toJunction="J0" end="5000" vehsPerHour="29.314411205135467" departLane="free"/>
  <flow id="JF391654" begin="0" fromJunction="J4" toJunction="J3" end="5000" vehsPerHour="55.57003605182718" departLane="free"/>
  <flow id="JF391655" begin="0" fromJunction="J5" toJunction="J0" end="5000" vehsPerHour="11.810708213558385" departLane="free"/>
  <flow id="JF391656" begin="0" fromJunction="J5" toJunction="J3" end="5000" vehsPerHour="35.206927508662986" departLane="free"/>
  <flow id="JF391657" begin="5000" fromJunction="J0" toJunction="J5" end="5060" vehsPerHour="54.884982821087235" departLane="free"/>
  <flow id="JF391658" begin="5000" fromJunction="J0" toJunction="J6" end="5060" vehsPerHour="511.6636360405258" departLane="free"/>
  <flow id="JF391659" begin="5000" fromJunction="J0" toJunction="J7" end="5060" vehsPerHour="102.96153804804607" departLane="free"/>
  <flow id="JF391660" begin="5000" fromJunction="J3" toJunction="J4" end="5060" vehsPerHour="501.4800097184526" departLane="free"/>
  <flow id="JF391661" begin="5000" fromJunction="J3" toJunction="J7" end="5060" vehsPerHour="432.83061147018196" departLane="free"/>
  <flow id="JF391662" begin="5000" fromJunction="J4" toJunction="J0" end="5060" vehsPerHour="67.41661641623527" departLane="free"/>
  <flow id="JF391663" begin="5000" fromJunction="J4" toJunction="J3" end="5060" vehsPerHour="56.20565577758854" departLane="free"/>
  <flow id="JF391664" begin="5000" fromJunction="J4" toJunction="J5" end="5060" vehsPerHour="232.27158960004823" departLane="free"/>
  <flow id="JF391665" begin="5000" fromJunction="J4" toJunction="J6" end="5060" vehsPerHour="47.90934141677188" departLane="free"/>
  <flow id="JF391666" begin="5000" fromJunction="J5" toJunction="J0" end="5060" vehsPerHour="253.67640053926368" departLane="free"/>
  <flow id="JF391667" begin="5000" fromJunction="J5" toJunction="J3" end="5060" vehsPerHour="104.78524218209475" departLane="free"/>
  <flow id="JF391668" begin="5000" fromJunction="J5" toJunction="J4" end="5060" vehsPerHour="134.30301855170072" departLane="free"/>
  <flow id="JF391669" begin="5000" fromJunction="J5" toJunction="J6" end="5060" vehsPerHour="51.8745427990952" departLane="free"/>
  <flow id="JF391670" begin="5000" fromJunction="J6" toJunction="J0" end="5060" vehsPerHour="216.05994705860746" departLane="free"/>
  <flow id="JF391671" begin="5000" fromJunction="J6" toJunction="J3" end="5060" vehsPerHour="98.83890791508021" departLane="free"/>
  <flow id="JF391672" begin="5000" fromJunction="J6" toJunction="J4" end="5060" vehsPerHour="116.95020346736838" departLane="free"/>
  <flow id="JF391673" begin="5000" fromJunction="J6" toJunction="J5" end="5060" vehsPerHour="0.19865764119636423" departLane="free"/>
  <flow id="JF391674" begin="5000" fromJunction="J6" toJunction="J7" end="5060" vehsPerHour="239.72451250391802" departLane="free"/>
  <flow id="JF391675" begin="5000" fromJunction="J7" toJunction="J0" end="5060" vehsPerHour="51.63795324065897" departLane="free"/>
  <flow id="JF391676" begin="5000" fromJunction="J7" toJunction="J3" end="5060" vehsPerHour="263.03871770440196" departLane="free"/>
  <flow id="JF391677" begin="5000" fromJunction="J7" toJunction="J5" end="5060" vehsPerHour="35.43849284064187" departLane="free"/>
  <flow id="JF391678" begin="5000" fromJunction="J7" toJunction="J6" end="5060" vehsPerHour="13.470511191330843" departLane="free"/>
  <flow id="JF391679" begin="5060" fromJunction="J0" toJunction="J3" end="5120" vehsPerHour="438.24077986072035" departLane="free"/>
  <flow id="JF391680" begin="5060" fromJunction="J0" toJunction="J4" end="5120" vehsPerHour="432.10839090325163" departLane="free"/>
  <flow id="JF391681" begin="5060" fromJunction="J0" toJunction="J5" end="5120" vehsPerHour="142.3839332691099" departLane="free"/>
  <flow id="JF391682" begin="5060" fromJunction="J0" toJunction="J6" end="5120" vehsPerHour="346.1661422001549" departLane="free"/>
  <flow id="JF391683" begin="5060" fromJunction="J3" toJunction="J4" end="5120" vehsPerHour="391.8218272820626" departLane="free"/>
  <flow id="JF391684" begin="5060" fromJunction="J3" toJunction="J5" end="5120" vehsPerHour="297.73253343896937" departLane="free"/>
  <flow id="JF391685" begin="5060" fromJunction="J3" toJunction="J6" end="5120" vehsPerHour="448.6909072274494" departLane="free"/>
  <flow id="JF391686" begin="5060" fromJunction="J3" toJunction="J7" end="5120" vehsPerHour="56.96226366791838" departLane="free"/>
  <flow id="JF391687" begin="5060" fromJunction="J4" toJunction="J0" end="5120" vehsPerHour="40.74725634896027" departLane="free"/>
  <flow id="JF391688" begin="5060" fromJunction="J4" toJunction="J3" end="5120" vehsPerHour="244.73352190809135" departLane="free"/>
  <flow id="JF391689" begin="5060" fromJunction="J4" toJunction="J5" end="5120" vehsPerHour="1.559918651469325" departLane="free"/>
  <flow id="JF391690" begin="5060" fromJunction="J4" toJunction="J6" end="5120" vehsPerHour="5.452488035471986" departLane="free"/>
  <flow id="JF391691" begin="5060" fromJunction="J4" toJunction="J7" end="5120" vehsPerHour="59.12709390519707" departLane="free"/>
  <flow id="JF391692" begin="5060" fromJunction="J5" toJunction="J0" end="5120" vehsPerHour="258.56141378258565" departLane="free"/>
  <flow id="JF391693" begin="5060" fromJunction="J5" toJunction="J3" end="5120" vehsPerHour="17.4833153326103" departLane="free"/>
  <flow id="JF391694" begin="5060" fromJunction="J5" toJunction="J4" end="5120" vehsPerHour="217.08296420458083" departLane="free"/>
  <flow id="JF391695" begin="5060" fromJunction="J5" toJunction="J6" end="5120" vehsPerHour="82.234958308317" departLane="free"/>
  <flow id="JF391696" begin="5060" fromJunction="J6" toJunction="J0" end="5120" vehsPerHour="33.4270096900243" departLane="free"/>
  <flow id="JF391697" begin="5060" fromJunction="J6" toJunction="J3" end="5120" vehsPerHour="132.55407760983948" departLane="free"/>
  <flow id="JF391698" begin="5060" fromJunction="J6" toJunction="J4" end="5120" vehsPerHour="64.91395881826345" departLane="free"/>
  <flow id="JF391699" begin="5060" fromJunction="J6" toJunction="J5" end="5120" vehsPerHour="220.90796837252412" departLane="free"/>
  <flow id="JF391700" begin="5060" fromJunction="J6" toJunction="J7" end="5120" vehsPerHour="112.82005980460369" departLane="free"/>
  <flow id="JF391701" begin="5060" fromJunction="J7" toJunction="J0" end="5120" vehsPerHour="143.37819600555602" departLane="free"/>
  <flow id="JF391702" begin="5060" fromJunction="J7" toJunction="J3" end="5120" vehsPerHour="31.596477356342643" departLane="free"/>
  <flow id="JF391703" begin="5060" fromJunction="J7" toJunction="J5" end="5120" vehsPerHour="162.52449537377228" departLane="free"/>
  <flow id="JF391704" begin="5120" fromJunction="J0" toJunction="J5" end="5180" vehsPerHour="491.0748013069959" departLane="free"/>
  <flow id="JF391705" begin="5120" fromJunction="J0" toJunction="J7" end="5180" vehsPerHour="470.67070453610324" departLane="free"/>
  <flow id="JF391706" begin="5120" fromJunction="J3" toJunction="J0" end="5180" vehsPerHour="409.2825581320261" departLane="free"/>
  <flow id="JF391707" begin="5120" fromJunction="J3" toJunction="J4" end="5180" vehsPerHour="6.286516890916886" departLane="free"/>
  <flow id="JF391708" begin="5120" fromJunction="J3" toJunction="J7" end="5180" vehsPerHour="139.56930619944137" departLane="free"/>
  <flow id="JF391709" begin="5120" fromJunction="J4" toJunction="J3" end="5180" vehsPerHour="32.547335320379695" departLane="free"/>
  <flow id="JF391710" begin="5120" fromJunction="J4" toJunction="J5" end="5180" vehsPerHour="221.21638100647309" departLane="free"/>
  <flow id="JF391711" begin="5120" fromJunction="J4" toJunction="J6" end="5180" vehsPerHour="120.62536801732554" departLane="free"/>
  <flow id="JF391712" begin="5120" fromJunction="J4" toJunction="J7" end="5180" vehsPerHour="117.33643244584601" departLane="free"/>
  <flow id="JF391713" begin="5120" fromJunction="J5" toJunction="J0" end="5180" vehsPerHour="33.959546855899895" departLane="free"/>
  <flow id="JF391714" begin="5120" fromJunction="J5" toJunction="J3" end="5180" vehsPerHour="21.81255936485212" departLane="free"/>
  <flow id="JF391715" begin="5120" fromJunction="J5" toJunction="J4" end="5180" vehsPerHour="32.11379712073739" departLane="free"/>
  <flow id="JF391716" begin="5120" fromJunction="J5" toJunction="J6" end="5180" vehsPerHour="248.6216582789211" departLane="free"/>
  <flow id="JF391717" begin="5120" fromJunction="J6" toJunction="J0" end="5180" vehsPerHour="13.381264624900837" departLane="free"/>
  <flow id="JF391718" begin="5120" fromJunction="J6" toJunction="J3" end="5180" vehsPerHour="245.26755583010024" departLane="free"/>
  <flow id="JF391719" begin="5120" fromJunction="J6" toJunction="J5" end="5180" vehsPerHour="137.7079931278114" departLane="free"/>
  <flow id="JF391720" begin="5120" fromJunction="J6" toJunction="J7" end="5180" vehsPerHour="130.63540607208327" departLane="free"/>
  <flow id="JF391721" begin="5120" fromJunction="J7" toJunction="J0" end="5180" vehsPerHour="33.830055582425786" departLane="free"/>
  <flow id="JF391722" begin="5120" fromJunction="J7" toJunction="J3" end="5180" vehsPerHour="177.49322796388637" departLane="free"/>
  <flow id="JF391723" begin="5120" fromJunction="J7" toJunction="J4" end="5180" vehsPerHour="120.16418854045935" departLane="free"/>
  <flow id="JF391724" begin="5120" fromJunction="J7" toJunction="J5" end="5180" vehsPerHour="50.26968085317128" departLane="free"/>
  <flow id="JF391725" begin="5120" fromJunction="J7" toJunction="J6" end="5180" vehsPerHour="25.367547334540472" departLane="free"/>
  <flow id="JF391726" begin="5180" fromJunction="J0" toJunction="J3" end="5240" vehsPerHour="339.2293249723757" departLane="free"/>
  <flow id="JF391727" begin="5180" fromJunction="J0" toJunction="J4" end="5240" vehsPerHour="513.4208787632901" departLane="free"/>
  <flow id="JF391728" begin="5180" fromJunction="J0" toJunction="J5" end="5240" vehsPerHour="536.0615854767956" departLane="free"/>
  <flow id="JF391729" begin="5180" fromJunction="J0" toJunction="J6" end="5240" vehsPerHour="333.6003468691454" departLane="free"/>
  <flow id="JF391730" begin="5180" fromJunction="J0" toJunction="J7" end="5240" vehsPerHour="166.7025673409361" departLane="free"/>
  <flow id="JF391731" begin="5180" fromJunction="J3" toJunction="J0" end="5240" vehsPerHour="230.86417199505564" departLane="free"/>
  <flow id="JF391732" begin="5180" fromJunction="J3" toJunction="J4" end="5240" vehsPerHour="267.8689197216201" departLane="free"/>
  <flow id="JF391733" begin="5180" fromJunction="J3" toJunction="J5" end="5240" vehsPerHour="230.1634206817321" departLane="free"/>
  <flow id="JF391734" begin="5180" fromJunction="J3" toJunction="J6" end="5240" vehsPerHour="359.17230191591335" departLane="free"/>
  <flow id="JF391735" begin="5180" fromJunction="J3" toJunction="J7" end="5240" vehsPerHour="157.89302876005272" departLane="free"/>
  <flow id="JF391736" begin="5180" fromJunction="J4" toJunction="J5" end="5240" vehsPerHour="63.459746266991154" departLane="free"/>
  <flow id="JF391737" begin="5180" fromJunction="J4" toJunction="J7" end="5240" vehsPerHour="0.7335828407719033" departLane="free"/>
  <flow id="JF391738" begin="5180" fromJunction="J5" toJunction="J0" end="5240" vehsPerHour="260.418917000136" departLane="free"/>
  <flow id="JF391739" begin="5180" fromJunction="J5" toJunction="J3" end="5240" vehsPerHour="244.61630954314546" departLane="free"/>
  <flow id="JF391740" begin="5180" fromJunction="J5" toJunction="J6" end="5240" vehsPerHour="51.05576073106983" departLane="free"/>
  <flow id="JF391741" begin="5180" fromJunction="J5" toJunction="J7" end="5240" vehsPerHour="184.51455281866214" departLane="free"/>
  <flow id="JF391742" begin="5180" fromJunction="J6" toJunction="J4" end="5240" vehsPerHour="199.31706504982603" departLane="free"/>
  <flow id="JF391743" begin="5180" fromJunction="J6" toJunction="J5" end="5240" vehsPerHour="213.47310231281023" departLane="free"/>
  <flow id="JF391744" begin="5180" fromJunction="J7" toJunction="J3" end="5240" vehsPerHour="13.451283890931544" departLane="free"/>
  <flow id="JF391745" begin="5180" fromJunction="J7" toJunction="J4" end="5240" vehsPerHour="129.90673260228442" departLane="free"/>
  <flow id="JF391746" begin="5180" fromJunction="J7" toJunction="J5" end="5240" vehsPerHour="47.63175367430949" departLane="free"/>
  <flow id="JF391747" begin="5180" fromJunction="J7" toJunction="J6" end="5240" vehsPerHour="185.58900447694774" departLane="free"/>
  <flow id="JF391748" begin="5240" fromJunction="J0" toJunction="J4" end="5300" vehsPerHour="537.6699511199657" departLane="free"/>
  <flow id="JF391749" begin="5240" fromJunction="J0" toJunction="J5" end="5300" vehsPerHour="535.8469430006178" departLane="free"/>
  <flow id="JF391750" begin="5240" fromJunction="J0" toJunction="J6" end="5300" vehsPerHour="390.96774894508104" departLane="free"/>
  <flow id="JF391751" begin="5240" fromJunction="J0" toJunction="J7" end="5300" vehsPerHour="392.1983110852903" departLane="free"/>
  <flow id="JF391752" begin="5240" fromJunction="J3" toJunction="J0" end="5300" vehsPerHour="393.5654824787573" departLane="free"/>
  <flow id="JF391753" begin="5240" fromJunction="J3" toJunction="J5" end="5300" vehsPerHour="46.95752508044963" departLane="free"/>
  <flow id="JF391754" begin="5240" fromJunction="J3" toJunction="J7" end="5300" vehsPerHour="295.282011585967" departLane="free"/>
  <flow id="JF391755" begin="5240" fromJunction="J4" toJunction="J3" end="5300" vehsPerHour="13.079442755367609" departLane="free"/>
  <flow id="JF391756" begin="5240" fromJunction="J4" toJunction="J5" end="5300" vehsPerHour="6.554835510038516" departLane="free"/>
  <flow id="JF391757" begin="5240" fromJunction="J4" toJunction="J6" end="5300" vehsPerHour="106.61838208751426" departLane="free"/>
  <flow id="JF391758" begin="5240" fromJunction="J5" toJunction="J3" end="5300" vehsPerHour="218.73811589910352" departLane="free"/>
  <flow id="JF391759" begin="5240" fromJunction="J5" toJunction="J4" end="5300" vehsPerHour="187.0744102858285" departLane="free"/>
  <flow id="JF391760" begin="5240" fromJunction="J5" toJunction="J6" end="5300" vehsPerHour="73.7581634474517" departLane="free"/>
  <flow id="JF391761" begin="5240" fromJunction="J5" toJunction="J7" end="5300" vehsPerHour="70.19082503005554" departLane="free"/>
  <flow id="JF391762" begin="5240" fromJunction="J6" toJunction="J0" end="5300" vehsPerHour="179.27435366098112" departLane="free"/>
  <flow id="JF391763" begin="5240" fromJunction="J6" toJunction="J3" end="5300" vehsPerHour="270.41426776726945" departLane="free"/>
  <flow id="JF391764" begin="5240" fromJunction="J6" toJunction="J4" end="5300" vehsPerHour="105.60834016655745" departLane="free"/>
  <flow id="JF391765" begin="5240" fromJunction="J6" toJunction="J5" end="5300" vehsPerHour="187.85468891666122" departLane="free"/>
  <flow id="JF391766" begin="5240" fromJunction="J6" toJunction="J7" end="5300" vehsPerHour="202.82494078164302" departLane="free"/>
  <flow id="JF391767" begin="5240" fromJunction="J7" toJunction="J0" end="5300" vehsPerHour="56.28285508924744" departLane="free"/>
  <flow id="JF391768" begin="5240" fromJunction="J7" toJunction="J3" end="5300" vehsPerHour="193.3738453087443" departLane="free"/>
  <flow id="JF391769" begin="5240" fromJunction="J7" toJunction="J6" end="5300" vehsPerHour="266.66609669051905" departLane="free"/>
  <flow id="JF391770" begin="5300" fromJunction="J0" toJunction="J3" end="5360" vehsPerHour="245.95803061681028" departLane="free"/>
  <flow id="JF391771" begin="5300" fromJunction="J0" toJunction="J5" end="5360" vehsPerHour="396.0872294964933" departLane="free"/>
  <flow id="JF391772" begin="5300" fromJunction="J0" toJunction="J6" end="5360" vehsPerHour="417.29674652995135" departLane="free"/>
  <flow id="JF391773" begin="5300" fromJunction="J0" toJunction="J7" end="5360" vehsPerHour="521.6057738328167" departLane="free"/>
  <flow id="JF391774" begin="5300" fromJunction="J3" toJunction="J0" end="5360" vehsPerHour="279.87804713111143" departLane="free"/>
  <flow id="JF391775" begin="5300" fromJunction="J3" toJunction="J4" end="5360" vehsPerHour="344.92670758935327" departLane="free"/>
  <flow id="JF391776" begin="5300" fromJunction="J3" toJunction="J5" end="5360" vehsPerHour="287.0858127696175" departLane="free"/>
  <flow id="JF391777" begin="5300" fromJunction="J3" toJunction="J6" end="5360" vehsPerHour="465.83176235135636" departLane="free"/>
  <flow id="JF391778" begin="5300" fromJunction="J4" toJunction="J3" end="5360" vehsPerHour="64.72796525723024" departLane="free"/>
  <flow id="JF391779" begin="5300" fromJunction="J4" toJunction="J5" end="5360" vehsPerHour="72.6837802674007" departLane="free"/>
  <flow id="JF391780" begin="5300" fromJunction="J4" toJunction="J6" end="5360" vehsPerHour="10.73313890164661" departLane="free"/>
  <flow id="JF391781" begin="5300" fromJunction="J4" toJunction="J7" end="5360" vehsPerHour="228.5324547496658" departLane="free"/>
  <flow id="JF391782" begin="5300" fromJunction="J5" toJunction="J3" end="5360" vehsPerHour="217.0702725102256" departLane="free"/>
  <flow id="JF391783" begin="5300" fromJunction="J5" toJunction="J4" end="5360" vehsPerHour="101.27021918810115" departLane="free"/>
  <flow id="JF391784" begin="5300" fromJunction="J5" toJunction="J6" end="5360" vehsPerHour="151.67420793228231" departLane="free"/>
  <flow id="JF391785" begin="5300" fromJunction="J5" toJunction="J7" end="5360" vehsPerHour="191.82941493180735" departLane="free"/>
  <flow id="JF391786" begin="5300" fromJunction="J6" toJunction="J0" end="5360" vehsPerHour="32.87347048107947" departLane="free"/>
  <flow id="JF391787" begin="5300" fromJunction="J6" toJunction="J4" end="5360" vehsPerHour="191.71800464297237" departLane="free"/>
  <flow id="JF391788" begin="5300" fromJunction="J6" toJunction="J5" end="5360" vehsPerHour="242.52350204356196" departLane="free"/>
  <flow id="JF391789" begin="5300" fromJunction="J6" toJunction="J7" end="5360" vehsPerHour="90.34833108148416" departLane="free"/>
  <flow id="JF391790" begin="5300" fromJunction="J7" toJunction="J0" end="5360" vehsPerHour="213.44724214378076" departLane="free"/>
  <flow id="JF391791" begin="5300" fromJunction="J7" toJunction="J4" end="5360" vehsPerHour="271.8014974535151" departLane="free"/>
  <flow id="JF391792" begin="5300" fromJunction="J7" toJunction="J5" end="5360" vehsPerHour="178.28544393636895" departLane="free"/>
  <flow id="JF391793" begin="5300" fromJunction="J7" toJunction="J6" end="5360" vehsPerHour="151.90623354785131" departLane="free"/>
  <flow id="JF391794" begin="5360" fromJunction="J0" toJunction="J6" end="5420" vehsPerHour="176.67804725495196" departLane="free"/>
  <flow id="JF391795" begin="5360" fromJunction="J0" toJunction="J7" end="5420" vehsPerHour="433.86109777592554" departLane="free"/>
  <flow id="JF391796" begin="5360" fromJunction="J3" toJunction="J0" end="5420" vehsPerHour="218.03013861231588" departLane="free"/>
  <flow id="JF391797" begin="5360" fromJunction="J3" toJunction="J4" end="5420" vehsPerHour="548.3953964682164" departLane="free"/>
  <flow id="JF391798" begin="5360" fromJunction="J3" toJunction="J5" end="5420" vehsPerHour="131.79461388884002" departLane="free"/>
  <flow id="JF391799" begin="5360" fromJunction="J3" toJunction="J6" end="5420" vehsPerHour="533.9521038147931" departLane="free"/>
  <flow id="JF391800" begin="5360" fromJunction="J3" toJunction="J7" end="5420" vehsPerHour="81.66435915435189" departLane="free"/>
  <flow id="JF391801" begin="5360" fromJunction="J4" toJunction="J0" end="5420" vehsPerHour="261.6377712689428" departLane="free"/>
  <flow id="JF391802" begin="5360" fromJunction="J4" toJunction="J3" end="5420" vehsPerHour="6.434448882631346" departLane="free"/>
  <flow id="JF391803" begin="5360" fromJunction="J4" toJunction="J5" end="5420" vehsPerHour="174.04363659696205" departLane="free"/>
  <flow id="JF391804" begin="5360" fromJunction="J4" toJunction="J6" end="5420" vehsPerHour="82.05309785762783" departLane="free"/>
  <flow id="JF391805" begin="5360" fromJunction="J5" toJunction="J0" end="5420" vehsPerHour="215.63688027982113" departLane="free"/>
  <flow id="JF391806" begin="5360" fromJunction="J5" toJunction="J3" end="5420" vehsPerHour="94.6453579489762" departLane="free"/>
  <flow id="JF391807" begin="5360" fromJunction="J5" toJunction="J4" end="5420" vehsPerHour="253.76042458255318" departLane="free"/>
  <flow id="JF391808" begin="5360" fromJunction="J5" toJunction="J6" end="5420" vehsPerHour="269.680071245804" departLane="free"/>
  <flow id="JF391809" begin="5360" fromJunction="J5" toJunction="J7" end="5420" vehsPerHour="100.10954079496753" departLane="free"/>
  <flow id="JF391810" begin="5360" fromJunction="J6" toJunction="J0" end="5420" vehsPerHour="192.31304853269216" departLane="free"/>
  <flow id="JF391811" begin="5360" fromJunction="J6" toJunction="J3" end="5420" vehsPerHour="18.110966273724088" departLane="free"/>
  <flow id="JF391812" begin="5360" fromJunction="J6" toJunction="J4" end="5420" vehsPerHour="161.63385418232951" departLane="free"/>
  <flow id="JF391813" begin="5360" fromJunction="J6" toJunction="J7" end="5420" vehsPerHour="189.60184950482605" departLane="free"/>
  <flow id="JF391814" begin="5360" fromJunction="J7" toJunction="J3" end="5420" vehsPerHour="83.74407295406748" departLane="free"/>
  <flow id="JF391815" begin="5360" fromJunction="J7" toJunction="J4" end="5420" vehsPerHour="162.6851222594407" departLane="free"/>
  <flow id="JF391816" begin="5360" fromJunction="J7" toJunction="J6" end="5420" vehsPerHour="89.79543327824868" departLane="free"/>
  <flow id="JF391817" begin="5420" fromJunction="J0" toJunction="J3" end="5480" vehsPerHour="135.97278561596497" departLane="free"/>
  <flow id="JF391818" begin="5420" fromJunction="J0" toJunction="J5" end="5480" vehsPerHour="280.35374867019533" departLane="free"/>
  <flow id="JF391819" begin="5420" fromJunction="J0" toJunction="J6" end="5480" vehsPerHour="426.7737188815795" departLane="free"/>
  <flow id="JF391820" begin="5420" fromJunction="J0" toJunction="J7" end="5480" vehsPerHour="481.17120041738576" departLane="free"/>
  <flow id="JF391821" begin="5420" fromJunction="J3" toJunction="J0" end="5480" vehsPerHour="63.207322611352566" departLane="free"/>
  <flow id="JF391822" begin="5420" fromJunction="J3" toJunction="J4" end="5480" vehsPerHour="192.4782666018064" departLane="free"/>
  <flow id="JF391823" begin="5420" fromJunction="J3" toJunction="J5" end="5480" vehsPerHour="168.7398876657972" departLane="free"/>
  <flow id="JF391824" begin="5420" fromJunction="J3" toJunction="J6" end="5480" vehsPerHour="104.13186583672994" departLane="free"/>
  <flow id="JF391825" begin="5420" fromJunction="J3" toJunction="J7" end="5480" vehsPerHour="289.7239084987855" departLane="free"/>
  <flow id="JF391826" begin="5420" fromJunction="J4" toJunction="J0" end="5480" vehsPerHour="151.6172474963185" departLane="free"/>
  <flow id="JF391827" begin="5420" fromJunction="J4" toJunction="J6" end="5480" vehsPerHour="160.0849674478345" departLane="free"/>
  <flow id="JF391828" begin="5420" fromJunction="J4" toJunction="J7" end="5480" vehsPerHour="26.589648926150385" departLane="free"/>
  <flow id="JF391829" begin="5420" fromJunction="J5" toJunction="J0" end="5480" vehsPerHour="1.4480077212555231" departLane="free"/>
  <flow id="JF391830" begin="5420" fromJunction="J5" toJunction="J4" end="5480" vehsPerHour="22.59891033823821" departLane="free"/>
  <flow id="JF391831" begin="5420" fromJunction="J5" toJunction="J6" end="5480" vehsPerHour="151.1922058089974" departLane="free"/>
  <flow id="JF391832" begin="5420" fromJunction="J5" toJunction="J7" end="5480" vehsPerHour="190.9758118278993" departLane="free"/>
  <flow id="JF391833" begin="5420" fromJunction="J6" toJunction="J0" end="5480" vehsPerHour="32.10423049029765" departLane="free"/>
  <flow id="JF391834" begin="5420" fromJunction="J6" toJunction="J3" end="5480" vehsPerHour="85.08062462886099" departLane="free"/>
  <flow id="JF391835" begin="5420" fromJunction="J6" toJunction="J4" end="5480" vehsPerHour="19.69375327776181" departLane="free"/>
  <flow id="JF391836" begin="5420" fromJunction="J6" toJunction="J5" end="5480" vehsPerHour="4.485815254598271" departLane="free"/>
  <flow id="JF391837" begin="5420" fromJunction="J7" toJunction="J0" end="5480" vehsPerHour="200.4366905463476" departLane="free"/>
  <flow id="JF391838" begin="5420" fromJunction="J7" toJunction="J4" end="5480" vehsPerHour="51.88252047327411" departLane="free"/>
  <flow id="JF391839" begin="5420" fromJunction="J7" toJunction="J6" end="5480" vehsPerHour="257.632038779922" departLane="free"/>
  <flow id="JF391840" begin="5480" fromJunction="J0" toJunction="J4" end="5540" vehsPerHour="449.0579856316959" departLane="free"/>
  <flow id="JF391841" begin="5480" fromJunction="J0" toJunction="J5" end="5540" vehsPerHour="103.96980266700872" departLane="free"/>
  <flow id="JF391842" begin="5480" fromJunction="J0" toJunction="J6" end="5540" vehsPerHour="253.28177519667534" departLane="free"/>
  <flow id="JF391843" begin="5480" fromJunction="J0" toJunction="J7" end="5540" vehsPerHour="34.3684218531496" departLane="free"/>
  <flow id="JF391844" begin="5480" fromJunction="J3" toJunction="J0" end="5540" vehsPerHour="104.37265459913395" departLane="free"/>
  <flow id="JF391845" begin="5480" fromJunction="J3" toJunction="J5" end="5540" vehsPerHour="314.06305383158895" departLane="free"/>
  <flow id="JF391846" begin="5480" fromJunction="J4" toJunction="J3" end="5540" vehsPerHour="265.5714324391899" departLane="free"/>
  <flow id="JF391847" begin="5480" fromJunction="J4" toJunction="J6" end="5540" vehsPerHour="41.16177611640236" departLane="free"/>
  <flow id="JF391848" begin="5480" fromJunction="J4" toJunction="J7" end="5540" vehsPerHour="274.5359333771619" departLane="free"/>
  <flow id="JF391849" begin="5480" fromJunction="J5" toJunction="J0" end="5540" vehsPerHour="267.8700345857295" departLane="free"/>
  <flow id="JF391850" begin="5480" fromJunction="J5" toJunction="J3" end="5540" vehsPerHour="187.59116054280486" departLane="free"/>
  <flow id="JF391851" begin="5480" fromJunction="J5" toJunction="J6" end="5540" vehsPerHour="195.5066991108969" departLane="free"/>