<?xml version="1.0" encoding="UTF-8"?>
<routes xmlns:xsi="http://www.w3.org/2001/XMLSchema-instance" xsi:noNamespaceSchemaLocation="http://sumo.dlr.de/xsd/routes_file.xsd">
  <flow id="JF396952" begin="0" fromJunction="J0" toJunction="J3" end="5000" vehsPerHour="122.30983460056109" departLane="free"/>
  <flow id="JF396953" begin="0" fromJunction="J3" toJunction="J0" end="5000" vehsPerHour="1183.8193043791825" departLane="free"/>
  <flow id="JF396954" begin="0" fromJunction="J0" toJunction="J6" end="5000" vehsPerHour="73.48325683172818" departLane="free"/>
  <flow id="JF396955" begin="0" fromJunction="J0" toJunction="J7" end="5000" vehsPerHour="63.59632979086858" departLane="free"/>
  <flow id="JF396956" begin="0" fromJunction="J0" toJunction="J4" end="5000" vehsPerHour="121.81883259152977" departLane="free"/>
  <flow id="JF396957" begin="0" fromJunction="J0" toJunction="J5" end="5000" vehsPerHour="64.9024689570785" departLane="free"/>
  <flow id="JF396958" begin="0" fromJunction="J3" toJunction="J6" end="5000" vehsPerHour="105.21102307310153" departLane="free"/>
  <flow id="JF396959" begin="0" fromJunction="J3" toJunction="J7" end="5000" vehsPerHour="101.81831659174931" departLane="free"/>
  <flow id="JF396960" begin="0" fromJunction="J3" toJunction="J4" end="5000" vehsPerHour="122.95013813548339" departLane="free"/>
  <flow id="JF396961" begin="0" fromJunction="J3" toJunction="J5" end="5000" vehsPerHour="94.93116170239033" departLane="free"/>
  <flow id="JF396962" begin="0" fromJunction="J6" toJunction="J7" end="5000" vehsPerHour="33.2627470516233" departLane="free"/>
  <flow id="JF396963" begin="0" fromJunction="J6" toJunction="J4" end="5000" vehsPerHour="57.35749916004466" departLane="free"/>
  <flow id="JF396964" begin="0" fromJunction="J6" toJunction="J5" end="5000" vehsPerHour="57.3277063471856" departLane="free"/>
  <flow id="JF396965" begin="0" fromJunction="J7" toJunction="J6" end="5000" vehsPerHour="4.792878025199696" departLane="free"/>
  <flow id="JF396966" begin="0" fromJunction="J7" toJunction="J4" end="5000" vehsPerHour="7.29448426303321" departLane="free"/>
  <flow id="JF396967" begin="0" fromJunction="J7" toJunction="J5" end="5000" vehsPerHour="18.585272719438944" departLane="free"/>
  <flow id="JF396968" begin="0" fromJunction="J4" toJunction="J6" end="5000" vehsPerHour="51.67727168451685" departLane="free"/>
  <flow id="JF396969" begin="0" fromJunction="J4" toJunction="J7" end="5000" vehsPerHour="42.08007483923963" departLane="free"/>
  <flow id="JF396970" begin="0" fromJunction="J4" toJunction="J5" end="5000" vehsPerHour="13.055799992871293" departLane="free"/>
  <flow id="JF396971" begin="0" fromJunction="J5" toJunction="J6" end="5000" vehsPerHour="24.069220730935502" departLane="free"/>
  <flow id="JF396972" begin="0" fromJunction="J5" toJunction="J7" end="5000" vehsPerHour="5.837234725809235" departLane="free"/>
  <flow id="JF396973" begin="0" fromJunction="J5" toJunction="J4" end="5000" vehsPerHour="36.476841655963206" departLane="free"/>
  <flow id="JF396974" begin="0" fromJunction="J6" toJunction="J0" end="5000" vehsPerHour="10.350419152406728" departLane="free"/>
  <flow id="JF396975" begin="0" fromJunction="J6" toJunction="J3" end="5000" vehsPerHour="53.361477804104496" departLane="free"/>
  <flow id="JF396976" begin="0" fromJunction="J7" toJunction="J0" end="5000" vehsPerHour="10.564830347624298" departLane="free"/>
  <flow id="JF396977" begin="0" fromJunction="J7" toJunction="J3" end="5000" vehsPerHour="59.533983811002685" departLane="free"/>
  <flow id="JF396978" begin="0" fromJunction="J4" toJunction="J0" end="5000" vehsPerHour="36.474513656218896" departLane="free"/>
  <flow id="JF396979" begin="0" fromJunction="J4" toJunction="J3" end="5000" vehsPerHour="6.203799091826658" departLane="free"/>
  <flow id="JF396980" begin="0" fromJunction="J5" toJunction="J0" end="5000" vehsPerHour="44.021654791012566" departLane="free"/>
  <flow id="JF396981" begin="0" fromJunction="J5" toJunction="J3" end="5000" vehsPerHour="13.412577480703272" departLane="free"/>
  <flow id="JF396982" begin="5000" fromJunction="J0" toJunction="J3" end="5060" vehsPerHour="480.7427434783971" departLane="free"/>
  <flow id="JF396983" begin="5000" fromJunction="J0" toJunction="J4" end="5060" vehsPerHour="44.989547258346825" departLane="free"/>
  <flow id="JF396984" begin="5000" fromJunction="J0" toJunction="J6" end="5060" vehsPerHour="131.92344209089623" departLane="free"/>
  <flow id="JF396985" begin="5000" fromJunction="J0" toJunction="J7" end="5060" vehsPerHour="351.59351478487207" departLane="free"/>
  <flow id="JF396986" begin="5000" fromJunction="J3" toJunction="J4" end="5060" vehsPerHour="500.3610298402139" departLane="free"/>
  <flow id="JF396987" begin="5000" fromJunction="J3" toJunction="J5" end="5060" vehsPerHour="354.18601984874664" departLane="free"/>
  <flow id="JF396988" begin="5000" fromJunction="J3" toJunction="J7" end="5060" vehsPerHour="155.4026008378346" departLane="free"/>
  <flow id="JF396989" begin="5000" fromJunction="J4" toJunction="J0" end="5060" vehsPerHour="121.90917049796194" departLane="free"/>
  <flow id="JF396990" begin="5000" fromJunction="J4" toJunction="J3" end="5060" vehsPerHour="127.85737649958935" departLane="free"/>
  <flow id="JF396991" begin="5000" fromJunction="J4" toJunction="J5" end="5060" vehsPerHour="181.55461518164117" departLane="free"/>
  <flow id="JF396992" begin="5000" fromJunction="J5" toJunction="J0" end="5060" vehsPerHour="9.604850677618572" departLane="free"/>
  <flow id="JF396993" begin="5000" fromJunction="J5" toJunction="J3" end="5060" vehsPerHour="59.223301294649325" departLane="free"/>
  <flow id="JF396994" begin="5000" fromJunction="J5" toJunction="J4" end="5060" vehsPerHour="201.4417502318451" departLane="free"/>
  <flow id="JF396995" begin="5000" fromJunction="J5" toJunction="J6" end="5060" vehsPerHour="108.34295146721418" departLane="free"/>
  <flow id="JF396996" begin="5000" fromJunction="J5" toJunction="J7" end="5060" vehsPerHour="147.37550800760235" departLane="free"/>
  <flow id="JF396997" begin="5000" fromJunction="J6" toJunction="J0" end="5060" vehsPerHour="31.18268276277955" departLane="free"/>
  <flow id="JF396998" begin="5000" fromJunction="J6" toJunction="J3" end="5060" vehsPerHour="211.41993245139514" departLane="free"/>
  <flow id="JF396999" begin="5000" fromJunction="J6" toJunction="J4" end="5060" vehsPerHour="247.30965104138144" departLane="free"/>
  <flow id="JF397000" begin="5000" fromJunction="J6" toJunction="J5" end="5060" vehsPerHour="193.92615039089407" departLane="free"/>
  <flow id="JF397001" begin="5000" fromJunction="J6" toJunction="J7" end="5060" vehsPerHour="274.24251422820873" departLane="free"/>
  <flow id="JF397002" begin="5000" fromJunction="J7" toJunction="J0" end="5060" vehsPerHour="63.52034047908037" departLane="free"/>
  <flow id="JF397003" begin="5000" fromJunction="J7" toJunction="J4" end="5060" vehsPerHour="102.52685462248893" departLane="free"/>
  <flow id="JF397004" begin="5000" fromJunction="J7" toJunction="J6" end="5060" vehsPerHour="50.32845303584867" departLane="free"/>
  <flow id="JF397005" begin="5060" fromJunction="J0" toJunction="J4" end="5120" vehsPerHour="433.9880709488293" departLane="free"/>
  <flow id="JF397006" begin="5060" fromJunction="J0" toJunction="J5" end="5120" vehsPerHour="262.2252470331931" departLane="free"/>
  <flow id="JF397007" begin="5060" fromJunction="J0" toJunction="J6" end="5120" vehsPerHour="470.7489380468163" departLane="free"/>
  <flow id="JF397008" begin="5060" fromJunction="J0" toJunction="J7" end="5120" vehsPerHour="472.42488599951884" departLane="free"/>
  <flow id="JF397009" begin="5060" fromJunction="J3" toJunction="J4" end="5120" vehsPerHour="61.240688620140915" departLane="free"/>
  <flow id="JF397010" begin="5060" fromJunction="J3" toJunction="J6" end="5120" vehsPerHour="457.73866428740865" departLane="free"/>
  <flow id="JF397011" begin="5060" fromJunction="J3" toJunction="J7" end="5120" vehsPerHour="510.05383690860646" departLane="free"/>
  <flow id="JF397012" begin="5060" fromJunction="J4" toJunction="J0" end="5120" vehsPerHour="227.14577057965548" departLane="free"/>
  <flow id="JF397013" begin="5060" fromJunction="J4" toJunction="J3" end="5120" vehsPerHour="261.6470693548322" departLane="free"/>
  <flow id="JF397014" begin="5060" fromJunction="J4" toJunction="J6" end="5120" vehsPerHour="204.56148711547405" departLane="free"/>
  <flow id="JF397015" begin="5060" fromJunction="J5" toJunction="J0" end="5120" vehsPerHour="3.7543891850744" departLane="free"/>
  <flow id="JF397016" begin="5060" fromJunction="J5" toJunction="J3" end="5120" vehsPerHour="268.4520170685342" departLane="free"/>
  <flow id="JF397017" begin="5060" fromJunction="J5" toJunction="J4" end="5120" vehsPerHour="46.77790065338023" departLane="free"/>
  <flow id="JF397018" begin="5060" fromJunction="J5" toJunction="J7" end="5120" vehsPerHour="246.3708230576358" departLane="free"/>
  <flow id="JF397019" begin="5060" fromJunction="J6" toJunction="J0" end="5120" vehsPerHour="213.83665041039603" departLane="free"/>
  <flow id="JF397020" begin="5060" fromJunction="J6" toJunction="J3" end="5120" vehsPerHour="189.48038073767697" departLane="free"/>
  <flow id="JF397021" begin="5060" fromJunction="J6" toJunction="J4" end="5120" vehsPerHour="96.90224129231659" departLane="free"/>
  <flow id="JF397022" begin="5060" fromJunction="J6" toJunction="J5" end="5120" vehsPerHour="74.01322641086531" departLane="free"/>
  <flow id="JF397023" begin="5060" fromJunction="J6" toJunction="J7" end="5120" vehsPerHour="228.2674733273412" departLane="free"/>
  <flow id="JF397024" begin="5060" fromJunction="J7" toJunction="J0" end="5120" vehsPerHour="60.68474497168962" departLane="free"/>
  <flow id="JF397025" begin="5060" fromJunction="J7" toJunction="J3" end="5120" vehsPerHour="219.51369894801178" departLane="free"/>
  <flow id="JF397026" begin="5060" fromJunction="J7" toJunction="J4" end="5120" vehsPerHour="257.45196865217355" departLane="free"/>
  <flow id="JF397027" begin="5060" fromJunction="J7" toJunction="J5" end="5120" vehsPerHour="53.15368343343469" departLane="free"/>
  <flow id="JF397028" begin="5060" fromJunction="J7" toJunction="J6" end="5120" vehsPerHour="188.240389030287" departLane="free"/>
  <flow id="JF397029" begin="5120" fromJunction="J0" toJunction="J3" end="5180" vehsPerHour="396.0991913391844" departLane="free"/>
  <flow id="JF397030" begin="5120" fromJunction="J0" toJunction="J6" end="5180" vehsPerHour="132.75680716032937" departLane="free"/>
  <flow id="JF397031" begin="5120" fromJunction="J0" toJunction="J7" end="5180" vehsPerHour="10.53801084302405" departLane="free"/>
  <flow id="JF397032" begin="5120" fromJunction="J3" toJunction="J0" end="5180" vehsPerHour="31.242966160636833" departLane="free"/>
  <flow id="JF397033" begin="5120" fromJunction="J3" toJunction="J4" end="5180" vehsPerHour="297.6888505769576" departLane="free"/>
  <flow id="JF397034" begin="5120" fromJunction="J3" toJunction="J6" end="5180" vehsPerHour="60.857445883909264" departLane="free"/>
  <flow id="JF397035" begin="5120" fromJunction="J3" toJunction="J7" end="5180" vehsPerHour="183.1801478926294" departLane="free"/>
  <flow id="JF397036" begin="5120" fromJunction="J4" toJunction="J3" end="5180" vehsPerHour="93.87967249337498" departLane="free"/>
  <flow id="JF397037" begin="5120" fromJunction="J4" toJunction="J5" end="5180" vehsPerHour="229.0348437198334" departLane="free"/>
  <flow id="JF397038" begin="5120" fromJunction="J4" toJunction="J6" end="5180" vehsPerHour="83.63032255548929" departLane="free"/>
  <flow id="JF397039" begin="5120" fromJunction="J4" toJunction="J7" end="5180" vehsPerHour="86.27281587956031" departLane="free"/>
  <flow id="JF397040" begin="5120" fromJunction="J5" toJunction="J6" end="5180" vehsPerHour="48.2603130812409" departLane="free"/>
  <flow id="JF397041" begin="5120" fromJunction="J5" toJunction="J7" end="5180" vehsPerHour="187.67288920931333" departLane="free"/>
  <flow id="JF397042" begin="5120" fromJunction="J6" toJunction="J4" end="5180" vehsPerHour="199.59868691998406" departLane="free"/>
  <flow id="JF397043" begin="5120" fromJunction="J6" toJunction="J7" end="5180" vehsPerHour="139.17829594195575" departLane="free"/>
  <flow id="JF397044" begin="5120" fromJunction="J7" toJunction="J3" end="5180" vehsPerHour="126.65378722436196" departLane="free"/>
  <flow id="JF397045" begin="5120" fromJunction="J7" toJunction="J5" end="5180" vehsPerHour="56.945891270565674" departLane="free"/>
  <flow id="JF397046" begin="5180" fromJunction="J0" toJunction="J3" end="5240" vehsPerHour="305.691418758098" departLane="free"/>
  <flow id="JF397047" begin="5180" fromJunction="J0" toJunction="J6" end="5240" vehsPerHour="484.2532854914439" departLane="free"/>
  <flow id="JF397048" begin="5180" fromJunction="J3" toJunction="J0" end="5240" vehsPerHour="211.67640477863856" departLane="free"/>
  <flow id="JF397049" begin="5180" fromJunction="J3" toJunction="J4" end="5240" vehsPerHour="201.96763028568407" departLane="free"/>
  <flow id="JF397050" begin="5180" fromJunction="J3" toJunction="J5" end="5240" vehsPerHour="77.81662650713369" departLane="free"/>
  <flow id="JF397051" begin="5180" fromJunction="J3" toJunction="J7" end="5240" vehsPerHour="296.79750848493796" departLane="free"/>
  <flow id="JF397052" begin="5180" fromJunction="J4" toJunction="J3" end="5240" vehsPerHour="47.46262968785332" departLane="free"/>
  <flow id="JF397053" begin="5180" fromJunction="J4" toJunction="J5" end="5240" vehsPerHour="18.30594778284247" departLane="free"/>
  <flow id="JF397054" begin="5180" fromJunction="J4" toJunction="J6" end="5240" vehsPerHour="116.24387399709995" departLane="free"/>
  <flow id="JF397055" begin="5180" fromJunction="J4" toJunction="J7" end="5240" vehsPerHour="93.41908264585545" departLane="free"/>
  <flow id="JF397056" begin="5180" fromJunction="J5" toJunction="J0" end="5240" vehsPerHour="221.20502585414144" departLane="free"/>
  <flow id="JF397057" begin="5180" fromJunction="J5" toJunction="J3" end="5240" vehsPerHour="52.37584233283686" departLane="free"/>
  <flow id="JF397058" begin="5180" fromJunction="J5" toJunction="J4" end="5240" vehsPerHour="92.08921312586547" departLane="free"/>
  <flow id="JF397059" begin="5180" fromJunction="J5" toJunction="J7" end="5240" vehsPerHour="249.11283643402064" departLane="free"/>
  <flow id="JF397060" begin="5180" fromJunction="J6" toJunction="J0" end="5240" vehsPerHour="147.03662750736663" departLane="free"/>
  <flow id="JF397061" begin="5180" fromJunction="J6" toJunction="J3" end="5240" vehsPerHour="232.47840297897338" departLane="free"/>
  <flow id="JF397062" begin="5180" fromJunction="J6" toJunction="J4" end="5240" vehsPerHour="94.4716882717124" departLane="free"/>
  <flow id="JF397063" begin="5180" fromJunction="J6" toJunction="J5" end="5240" vehsPerHour="238.7691849800785" departLane="free"/>
  <flow id="JF397064" begin="5180" fromJunction="J6" toJunction="J7" end="5240" vehsPerHour="112.24874030712935" departLane="free"/>
  <flow id="JF397065" begin="5180" fromJunction="J7" toJunction="J0" end="5240" vehsPerHour="230.24691975737906" departLane="free"/>
  <flow id="JF397066" begin="5180" fromJunction="J7" toJunction="J3" end="5240" vehsPerHour="237.55981584974805" departLane="free"/>
  <flow id="JF397067" begin="5180" fromJunction="J7" toJunction="J4" end="5240" vehsPerHour="238.37681200599167" departLane="free"/>
  <flow id="JF397068" begin="5180" fromJunction="J7" toJunction="J5" end="5240" vehsPerHour="25.92935178616572" departLane="free"/>
  <flow id="JF397069" begin="5180" fromJunction="J7" toJunction="J6" end="5240" vehsPerHour="69.52701831482872" departLane="free"/>
  <flow id="JF397070" begin="5240" fromJunction="J0" toJunction="J3" end="5300" vehsPerHour="117.06542555447655" departLane="free"/>
  <flow id="JF397071" begin="5240" fromJunction="J0" toJunction="J5" end="5300" vehsPerHour="263.03298362703276" departLane="free"/>
  <flow id="JF397072" begin="5240" fromJunction="J0" toJunction="J6" end="5300" vehsPerHour="487.51227112510804" departLane="free"/>
  <flow id="JF397073" begin="5240" fromJunction="J0" toJunction="J7" end="5300" vehsPerHour="540.8967341714904" departLane="free"/>
  <flow id="JF397074" begin="5240" fromJunction="J3" toJunction="J0" end="5300" vehsPerHour="143.09331129031233" departLane="free"/>
  <flow id="JF397075" begin="5240" fromJunction="J3" toJunction="J5" end="5300" vehsPerHour="136.32344714816907" departLane="free"/>
  <flow id="JF397076" begin="5240" fromJunction="J3" toJunction="J6" end="5300" vehsPerHour="275.0033830127376" departLane="free"/>
  <flow id="JF397077" begin="5240" fromJunction="J3" toJunction="J7" end="5300" vehsPerHour="297.85096592878057" departLane="free"/>
  <flow id="JF397078" begin="5240" fromJunction="J4" toJunction="J3" end="5300" vehsPerHour="1.7831896734230437" departLane="free"/>
  <flow id="JF397079" begin="5240" fromJunction="J4" toJunction="J5" end="5300" vehsPerHour="133.73067096993844" departLane="free"/>
  <flow id="JF397080" begin="5240" fromJunction="J4" toJunction="J6" end="5300" vehsPerHour="171.88044486370634" departLane="free"/>
  <flow id="JF397081" begin="5240" fromJunction="J5" toJunction="J0" end="5300" vehsPerHour="272.1036272822354" departLane="free"/>
  <flow id="JF397082" begin="5240" fromJunction="J5" toJunction="J3" end="5300" vehsPerHour="69.6100197581469" departLane="free"/>
  <flow id="JF397083" begin="5240" fromJunction="J5" toJunction="J4" end="5300" vehsPerHour="101.76999155774395" departLane="free"/>
  <flow id="JF397084" begin="5240" fromJunction="J5" toJunction="J6" end="5300" vehsPerHour="214.94824524209187" departLane="free"/>
  <flow id="JF397085" begin="5240" fromJunction="J5" toJunction="J7" end="5300" vehsPerHour="54.73070835398366" departLane="free"/>
  <flow id="JF397086" begin="5240" fromJunction="J6" toJunction="J0" end="5300" vehsPerHour="220.0066336018673" departLane="free"/>
  <flow id="JF397087" begin="5240" fromJunction="J6" toJunction="J3" end="5300" vehsPerHour="126.59541496904801" departLane="free"/>
  <flow id="JF397088" begin="5240" fromJunction="J6" toJunction="J4" end="5300" vehsPerHour="94.73955854736107" departLane="free"/>
  <flow id="JF397089" begin="5240" fromJunction="J6" toJunction="J7" end="5300" vehsPerHour="143.23744443575714" departLane="free"/>
  <flow id="JF397090" begin="5240" fromJunction="J7" toJunction="J0" end="5300" vehsPerHour="143.85419815558703" departLane="free"/>
  <flow id="JF397091" begin="5240" fromJunction="J7" toJunction="J6" end="5300" vehsPerHour="86.39071815030468" departLane="free"/>
  <flow id="JF397092" begin="5300" fromJunction="J0" toJunction="J3" end="5360" vehsPerHour="193.3667655465947" departLane="free"/>
  <flow id="JF397093" begin="5300" fromJunction="J0" toJunction="J4" end="5360" vehsPerHour="89.43214170855872" departLane="free"/>
  <flow id="JF397094" begin="5300" fromJunction="J0" toJunction="J5" end="5360" vehsPerHour="438.6000306254201" departLane="free"/>
  <flow id="JF397095" begin="5300" fromJunction="J0" toJunction="J6" end="5360" vehsPerHour="512.4544746741461" departLane="free"/>
  <flow id="JF397096" begin="5300" fromJunction="J3" toJunction="J4" end="5360" vehsPerHour="324.84465650532303" departLane="free"/>
  <flow id="JF397097" begin="5300" fromJunction="J3" toJunction="J5" end="5360" vehsPerHour="526.1146035629647" departLane="free"/>
  <flow id="JF397098" begin="5300" fromJunction="J3" toJunction="J6" end="5360" vehsPerHour="177.4711931940264" departLane="free"/>
  <flow id="JF397099" begin="5300" fromJunction="J3" toJunction="J7" end="5360" vehsPerHour="313.364157432271" departLane="free"/>
  <flow id="JF397100" begin="5300" fromJunction="J4" toJunction="J3" end="5360" vehsPerHour="201.4741772259361" departLane="free"/>
  <flow id="JF397101" begin="5300" fromJunction="J4" toJunction="J5" end="5360" vehsPerHour="122.54963278984943" departLane="free"/>
  <flow id="JF397102" begin="5300" fromJunction="J4" toJunction="J6" end="5360" vehsPerHour="181.14400750224758" departLane="free"/>
  <flow id="JF397103" begin="5300" fromJunction="J5" toJunction="J0" end="5360" vehsPerHour="268.4069461961345" departLane="free"/>
  <flow id="JF397104" begin="5300" fromJunction="J5" toJunction="J3" end="5360" vehsPerHour="45.0911581461211" departLane="free"/>
  <flow id="JF397105" begin="5300" fromJunction="J5" toJunction="J6" end="5360" vehsPerHour="129.5544203402555" departLane="free"/>
  <flow id="JF397106" begin="5300" fromJunction="J5" toJunction="J7" end="5360" vehsPerHour="184.91328149696727" departLane="free"/>
  <flow id="JF397107" begin="5300" fromJunction="J6" toJunction="J0" end="5360" vehsPerHour="57.98280326762958" departLane="free"/>
  <flow id="JF397108" begin="5300" fromJunction="J6" toJunction="J7" end="5360" vehsPerHour="92.19815342253703" departLane="free"/>
  <flow id="JF397109" begin="5300" fromJunction="J7" toJunction="J0" end="5360" vehsPerHour="197.425925325368" departLane="free"/>
  <flow id="JF397110" begin="5300" fromJunction="J7" toJunction="J3" end="5360" vehsPerHour="179.66481544326388" departLane="free"/>
  <flow id="JF397111" begin="5300" fromJunction="J7" toJunction="J4" end="5360" vehsPerHour="38.68993664004774" departLane="free"/>
  <flow id="JF397112" begin="5300" fromJunction="J7" toJunction="J6" end="5360" vehsPerHour="90.42226165656996" departLane="free"/>
  <flow id="JF397113" begin="5360" fromJunction="J0" toJunction="J3" end="5420" vehsPerHour="274.30092700940185" departLane="free"/>
  <flow id="JF397114" begin="5360" fromJunction="J0" toJunction="J4" end="5420" vehsPerHour="65.80953745839044" departLane="free"/>
  <flow id="JF397115" begin="5360" fromJunction="J0" toJunction="J5" end="5420" vehsPerHour="468.7380529898074" departLane="free"/>
  <flow id="JF397116" begin="5360" fromJunction="J0" toJunction="J6" end="5420" vehsPerHour="201.41902184118703" departLane="free"/>
  <flow id="JF397117" begin="5360" fromJunction="J0" toJunction="J7" end="5420" vehsPerHour="472.6513625962061" departLane="free"/>
  <flow id="JF397118" begin="5360" fromJunction="J3" toJunction="J0" end="5420" vehsPerHour="14.336162899461234" departLane="free"/>
  <flow id="JF397119" begin="5360" fromJunction="J3" toJunction="J4" end="5420" vehsPerHour="156.84400299325475" departLane="free"/>
  <flow id="JF397120" begin="5360" fromJunction="J3" toJunction="J5" end="5420" vehsPerHour="161.67900607829327" departLane="free"/>
  <flow id="JF397121" begin="5360" fromJunction="J3" toJunction="J6" end="5420" vehsPerHour="308.22628538439034" departLane="free"/>
  <flow id="JF397122" begin="5360" fromJunction="J3" toJunction="J7" end="5420" vehsPerHour="297.8558454434893" departLane="free"/>
  <flow id="JF397123" begin="5360" fromJunction="J4" toJunction="J0" end="5420" vehsPerHour="131.84004764929617" departLane="free"/>
  <flow id="JF397124" begin="5360" fromJunction="J4" toJunction="J3" end="5420" vehsPerHour="178.89485794180197" departLane="free"/>
  <flow id="JF397125" begin="5360" fromJunction="J4" toJunction="J5" end="5420" vehsPerHour="241.86173748208085" departLane="free"/>
  <flow id="JF397126" begin="5360" fromJunction="J4" toJunction="J7" end="5420" vehsPerHour="251.13258376040622" departLane="free"/>
  <flow id="JF397127" begin="5360" fromJunction="J5" toJunction="J0" end="5420" vehsPerHour="38.62007876766845" departLane="free"/>
  <flow id="JF397128" begin="5360" fromJunction="J5" toJunction="J3" end="5420" vehsPerHour="235.77247046806767" departLane="free"/>
  <flow id="JF397129" begin="5360" fromJunction="J5" toJunction="J4" end="5420" vehsPerHour="206.75395954882848" departLane="free"/>
  <flow id="JF397130" begin="5360" fromJunction="J5" toJunction="J6" end="5420" vehsPerHour="222.3259671002421" departLane="free"/>
  <flow id="JF397131" begin="5360" fromJunction="J5" toJunction="J7" end="5420" vehsPerHour="224.48093333815" departLane="free"/>
  <flow id="JF397132" begin="5360" fromJunction="J6" toJunction="J3" end="5420" vehsPerHour="236.00225612265527" departLane="free"/>
  <flow id="JF397133" begin="5360" fromJunction="J6" toJunction="J5" end="5420" vehsPerHour="41.15803026357652" departLane="free"/>
  <flow id="JF397134" begin="5360" fromJunction="J6" toJunction="J7" end="5420" vehsPerHour="183.14623977989" departLane="free"/>
  <flow id="JF397135" begin="5360" fromJunction="J7" toJunction="J0" end="5420" vehsPerHour="162.90472225950978" departLane="free"/>
  <flow id="JF397136" begin="5360" fromJunction="J7" toJunction="J3" end="5420" vehsPerHour="193.4655350539091" departLane="free"/>
  <flow id="JF397137" begin="5360" fromJunction="J7" toJunction="J4" end="5420" vehsPerHour="6.283537423763439" departLane="free"/>
  <flow id="JF397138" begin="5360" fromJunction="J7" toJunction="J5" end="5420" vehsPerHour="8.59312117654712" departLane="free"/>
  <flow id="JF397139" begin="5360" fromJunction="J7" toJunction="J6" end="5420" vehsPerHour="80.22615908784903" departLane="free"/>
  <flow id="JF397140" begin="5420" fromJunction="J0" toJunction="J4" end="5480" vehsPerHour="456.95316741185326" departLane="free"/>
  <flow id="JF397141" begin="5420" fromJunction="J0" toJunction="J5" end="5480" vehsPerHour="274.0577421414736" departLane="free"/>
  <flow id="JF397142" begin="5420" fromJunction="J3" toJunction="J4" end="5480" vehsPerHour="351.81092063001427" departLane="free"/>
  <flow id="JF397143" begin="5420" fromJunction="J3" toJunction="J6" end="5480" vehsPerHour="126.49673402800704" departLane="free"/>
  <flow id="JF397144" begin="5420" fromJunction="J3" toJunction="J7" end="5480" vehsPerHour="221.85203527320363" departLane="free"/>
  <flow id="JF397145" begin="5420" fromJunction="J4" toJunction="J3" end="5480" vehsPerHour="104.6751848006649" departLane="free"/>
  <flow id="JF397146" begin="5420" fromJunction="J4" toJunction="J5" end="5480" vehsPerHour="177.27087630101477" departLane="free"/>
  <flow id="JF397147" begin="5420" fromJunction="J4" toJunction="J6" end="5480" vehsPerHour="12.238346091366257" departLane="free"/>
  <flow id="JF397148" begin="5420" fromJunction="J4" toJunction="J7" end="5480" vehsPerHour="169.70654734199724" departLane="free"/>
  <flow id="JF397149" begin="5420" fromJunction="J5" toJunction="J0" end="5480" vehsPerHour="4.7095279346922405" departLane="free"/>
  <flow id="JF397150" begin="5420" fromJunction="J5" toJunction="J7" end="5480" vehsPerHour="41.2242785142972" departLane="free"/>
  <flow id="JF397151" begin="5420" fromJunction="J6" toJunction="J3" end="5480" vehsPerHour="180.24825594029443" departLane="free"/>
  <flow id="JF397152" begin="5420" fromJunction="J6" toJunction="J4" end="5480" vehsPerHour="82.5647350063853" departLane="free"/>
  <flow id="JF397153" begin="5420" fromJunction="J6" toJunction="J7" end="5480" vehsPerHour="167.98013997887472" departLane="free"/>
  <flow id="JF397154" begin="5420" fromJunction="J7" toJunction="J0" end="5480" vehsPerHour="143.7826397129038" departLane="free"/>
  <flow id="JF397155" begin="5420" fromJunction="J7" toJunction="J3" end="5480" vehsPerHour="218.81482864113315" departLane="free"/>
  <flow id="JF397156" begin="5420" fromJunction="J7" toJunction="J4" end="5480" vehsPerHour="143.27444252727645" departLane="free"/>
  <flow id="JF397157" begin="5480" fromJunction="J0" toJunction="J3" end="5540" vehsPerHour="119.88183413043548" departLane="free"/>
  <flow id="JF397158" begin="5480" fromJunction="J0" toJunction="J4" end="5540" vehsPerHour="544.3523986774592" departLane="free"/>
  <flow id="JF397159" begin="5480" fromJunction="J0" toJunction="J5" end="5540" vehsPerHour="112.87155210495963" departLane="free"/>
  <flow id="JF397160" begin="5480" fromJunction="J0" toJunction="J7" end="5540" vehsPerHour="17.926292195023464" departLane="free"/>
  <flow id="JF397161" begin="5480" fromJunction="J3" toJunction="J0" end="5540" vehsPerHour="23.925503984586438" departLane="free"/>
  <flow id="JF397162" begin="5480" fromJunction="J3" toJunction="J4" end="5540" vehsPerHour="2.962325672776231" departLane="free"/>
  <flow id="JF397163" begin="5480" fromJunction="J3" toJunction="J5" end="5540" vehsPerHour="258.45961400950245" departLane="free"/>
  <flow id="JF397164" begin="5480" fromJunction="J3" toJunction="J6" end="5540" vehsPerHour="442.0069688609802" departLane="free"/>
  <flow id="JF397165" begin="5480" fromJunction="J4" toJunction="J3" end="5540" vehsPerHour="113.90102131216946" departLane="free"/>
  <flow id="JF397166" begin="5480" fromJunction="J4" toJunction="J5" end="5540" vehsPerHour="71.1965167076196" departLane="free"/>
  <flow id="JF397167" begin="5480" fromJunction="J4" toJunction="J6" end="5540" vehsPerHour="248.5302656611874" departLane="free"/>
  <flow id="JF397168" begin="5480" fromJunction="J4" toJunction="J7" end="5540" vehsPerHour="181.55482169758898" departLane="free"/>
  <flow id="JF397169" begin="5480" fromJunction="J5" toJunction="J0" end="5540" vehsPerHour="59.518915364839536" departLane="free"/>
  <flow id="JF397170" begin="5480" fromJunction="J5" toJunction="J4" end="5540" vehsPerHour="265.8542374394381" departLane="free"/>
  <flow id="JF397171" begin="5480" fromJunction="J5" toJunction="J6" end="5540" vehsPerHour="247.47661205774213" departLane="free"/>
  <flow id="JF397172" begin="5480" fromJunction="J5" toJunction="J7" end="5540" vehsPerHour="31.42160726313314" departLane="free"/>
  <flow id="JF397173" begin="5480" fromJunction="J6" toJunction="J5" end="5540" vehsPerHour="28.134290915207128" departLane="free"/>
  <flow id="JF397174" begin="5480" fromJunction="J6" toJunction="J7" end="5540" vehsPerHour="132.02584641190396" departLane="free"/>
  <flow id="JF397175" begin="5480" fromJunction="J7" toJunction="J0" end="5540" vehsPerHour="123.51390346514026" departLane="free"/>
  <flow id="JF397176" begin="5480" fromJunction="J7" toJunction="J3" end="5540" vehsPerHour="203.20790156041198" departLane="free"/>