<?xml version="1.0" encoding="UTF-8"?>
<routes xmlns:xsi="http://www.w3.org/2001/XMLSchema-instance" xsi:noNamespaceSchemaLocation="http://sumo.dlr.de/xsd/routes_file.xsd">
  <flow id="JF395150" begin="0" fromJunction="J0" toJunction="J3" end="5000" vehsPerHour="924.6901938777713" departLane="free"/>
  <flow id="JF395151" begin="0" fromJunction="J3" toJunction="J0" end="5000" vehsPerHour="594.4186222731871" departLane="free"/>
  <flow id="JF395152" begin="0" fromJunction="J0" toJunction="J6" end="5000" vehsPerHour="63.132783226671776" departLane="free"/>
  <flow id="JF395153" begin="0" fromJunction="J0" toJunction="J7" end="5000" vehsPerHour="103.1612796788197" departLane="free"/>
  <flow id="JF395154" begin="0" fromJunction="J0" toJunction="J4" end="5000" vehsPerHour="25.133066522670156" departLane="free"/>
  <flow id="JF395155" begin="0" fromJunction="J0" toJunction="J5" end="5000" vehsPerHour="107.88258986640525" departLane="free"/>
  <flow id="JF395156" begin="0" fromJunction="J3" toJunction="J6" end="5000" vehsPerHour="112.77285158760468" departLane="free"/>
  <flow id="JF395157" begin="0" fromJunction="J3" toJunction="J7" end="5000" vehsPerHour="127.50029339995723" departLane="free"/>
  <flow id="JF395158" begin="0" fromJunction="J3" toJunction="J4" end="5000" vehsPerHour="48.37068657786532" departLane="free"/>
  <flow id="JF395159" begin="0" fromJunction="J3" toJunction="J5" end="5000" vehsPerHour="106.40105942817887" departLane="free"/>
  <flow id="JF395160" begin="0" fromJunction="J6" toJunction="J7" end="5000" vehsPerHour="8.641669900810362" departLane="free"/>
  <flow id="JF395161" begin="0" fromJunction="J6" toJunction="J4" end="5000" vehsPerHour="49.47463937994195" departLane="free"/>
  <flow id="JF395162" begin="0" fromJunction="J6" toJunction="J5" end="5000" vehsPerHour="68.10330068752715" departLane="free"/>
  <flow id="JF395163" begin="0" fromJunction="J7" toJunction="J6" end="5000" vehsPerHour="20.589446708131916" departLane="free"/>
  <flow id="JF395164" begin="0" fromJunction="J7" toJunction="J4" end="5000" vehsPerHour="25.066685283645008" departLane="free"/>
  <flow id="JF395165" begin="0" fromJunction="J7" toJunction="J5" end="5000" vehsPerHour="5.15823043066542" departLane="free"/>
  <flow id="JF395166" begin="0" fromJunction="J4" toJunction="J6" end="5000" vehsPerHour="24.08591292855403" departLane="free"/>
  <flow id="JF395167" begin="0" fromJunction="J4" toJunction="J7" end="5000" vehsPerHour="28.887013062540223" departLane="free"/>
  <flow id="JF395168" begin="0" fromJunction="J4" toJunction="J5" end="5000" vehsPerHour="5.661329182163518" departLane="free"/>
  <flow id="JF395169" begin="0" fromJunction="J5" toJunction="J6" end="5000" vehsPerHour="41.17079055963472" departLane="free"/>
  <flow id="JF395170" begin="0" fromJunction="J5" toJunction="J7" end="5000" vehsPerHour="45.83133160558544" departLane="free"/>
  <flow id="JF395171" begin="0" fromJunction="J5" toJunction="J4" end="5000" vehsPerHour="20.384835849841355" departLane="free"/>
  <flow id="JF395172" begin="0" fromJunction="J6" toJunction="J0" end="5000" vehsPerHour="64.41488106077774" departLane="free"/>
  <flow id="JF395173" begin="0" fromJunction="J6" toJunction="J3" end="5000" vehsPerHour="23.538777899752517" departLane="free"/>
  <flow id="JF395174" begin="0" fromJunction="J7" toJunction="J0" end="5000" vehsPerHour="67.50358299944351" departLane="free"/>
  <flow id="JF395175" begin="0" fromJunction="J7" toJunction="J3" end="5000" vehsPerHour="14.06721771610507" departLane="free"/>
  <flow id="JF395176" begin="0" fromJunction="J4" toJunction="J0" end="5000" vehsPerHour="56.057224277407876" departLane="free"/>
  <flow id="JF395177" begin="0" fromJunction="J4" toJunction="J3" end="5000" vehsPerHour="42.755426211400476" departLane="free"/>
  <flow id="JF395178" begin="0" fromJunction="J5" toJunction="J0" end="5000" vehsPerHour="4.768755227290527" departLane="free"/>
  <flow id="JF395179" begin="0" fromJunction="J5" toJunction="J3" end="5000" vehsPerHour="19.588748903013652" departLane="free"/>
  <flow id="JF395180" begin="5000" fromJunction="J0" toJunction="J4" end="5060" vehsPerHour="547.503631243171" departLane="free"/>
  <flow id="JF395181" begin="5000" fromJunction="J0" toJunction="J5" end="5060" vehsPerHour="104.33593431312494" departLane="free"/>
  <flow id="JF395182" begin="5000" fromJunction="J0" toJunction="J6" end="5060" vehsPerHour="204.90662466786233" departLane="free"/>
  <flow id="JF395183" begin="5000" fromJunction="J3" toJunction="J4" end="5060" vehsPerHour="251.8111942819362" departLane="free"/>
  <flow id="JF395184" begin="5000" fromJunction="J3" toJunction="J5" end="5060" vehsPerHour="318.08865646213525" departLane="free"/>
  <flow id="JF395185" begin="5000" fromJunction="J3" toJunction="J6" end="5060" vehsPerHour="147.43289599660386" departLane="free"/>
  <flow id="JF395186" begin="5000" fromJunction="J3" toJunction="J7" end="5060" vehsPerHour="366.7403983495382" departLane="free"/>
  <flow id="JF395187" begin="5000" fromJunction="J4" toJunction="J0" end="5060" vehsPerHour="31.646932269884122" departLane="free"/>
  <flow id="JF395188" begin="5000" fromJunction="J4" toJunction="J3" end="5060" vehsPerHour="221.17513057356152" departLane="free"/>
  <flow id="JF395189" begin="5000" fromJunction="J4" toJunction="J6" end="5060" vehsPerHour="101.80372716717899" departLane="free"/>
  <flow id="JF395190" begin="5000" fromJunction="J4" toJunction="J7" end="5060" vehsPerHour="207.18004542189058" departLane="free"/>
  <flow id="JF395191" begin="5000" fromJunction="J5" toJunction="J0" end="5060" vehsPerHour="107.52827658682455" departLane="free"/>
  <flow id="JF395192" begin="5000" fromJunction="J5" toJunction="J4" end="5060" vehsPerHour="251.2583354165841" departLane="free"/>
  <flow id="JF395193" begin="5000" fromJunction="J5" toJunction="J7" end="5060" vehsPerHour="162.02850967488806" departLane="free"/>
  <flow id="JF395194" begin="5000" fromJunction="J6" toJunction="J0" end="5060" vehsPerHour="230.1587983013647" departLane="free"/>
  <flow id="JF395195" begin="5000" fromJunction="J6" toJunction="J5" end="5060" vehsPerHour="129.02629803111165" departLane="free"/>
  <flow id="JF395196" begin="5000" fromJunction="J6" toJunction="J7" end="5060" vehsPerHour="132.02373571099324" departLane="free"/>
  <flow id="JF395197" begin="5000" fromJunction="J7" toJunction="J3" end="5060" vehsPerHour="195.20292749282902" departLane="free"/>
  <flow id="JF395198" begin="5000" fromJunction="J7" toJunction="J4" end="5060" vehsPerHour="45.31941207565945" departLane="free"/>
  <flow id="JF395199" begin="5000" fromJunction="J7" toJunction="J5" end="5060" vehsPerHour="246.3807857442739" departLane="free"/>
  <flow id="JF395200" begin="5060" fromJunction="J0" toJunction="J4" end="5120" vehsPerHour="437.5262742374232" departLane="free"/>
  <flow id="JF395201" begin="5060" fromJunction="J0" toJunction="J5" end="5120" vehsPerHour="220.57895160217387" departLane="free"/>
  <flow id="JF395202" begin="5060" fromJunction="J0" toJunction="J6" end="5120" vehsPerHour="24.054967243466944" departLane="free"/>
  <flow id="JF395203" begin="5060" fromJunction="J3" toJunction="J4" end="5120" vehsPerHour="93.90582803714106" departLane="free"/>
  <flow id="JF395204" begin="5060" fromJunction="J3" toJunction="J5" end="5120" vehsPerHour="361.61463414279194" departLane="free"/>
  <flow id="JF395205" begin="5060" fromJunction="J3" toJunction="J6" end="5120" vehsPerHour="517.4464915039887" departLane="free"/>
  <flow id="JF395206" begin="5060" fromJunction="J3" toJunction="J7" end="5120" vehsPerHour="280.38274987597964" departLane="free"/>
  <flow id="JF395207" begin="5060" fromJunction="J4" toJunction="J3" end="5120" vehsPerHour="138.13035552748556" departLane="free"/>
  <flow id="JF395208" begin="5060" fromJunction="J4" toJunction="J5" end="5120" vehsPerHour="181.89022168833975" departLane="free"/>
  <flow id="JF395209" begin="5060" fromJunction="J4" toJunction="J6" end="5120" vehsPerHour="126.20355100002442" departLane="free"/>
  <flow id="JF395210" begin="5060" fromJunction="J4" toJunction="J7" end="5120" vehsPerHour="263.37444413818463" departLane="free"/>
  <flow id="JF395211" begin="5060" fromJunction="J5" toJunction="J0" end="5120" vehsPerHour="223.9119445460495" departLane="free"/>
  <flow id="JF395212" begin="5060" fromJunction="J5" toJunction="J3" end="5120" vehsPerHour="4.582728056302683" departLane="free"/>
  <flow id="JF395213" begin="5060" fromJunction="J5" toJunction="J4" end="5120" vehsPerHour="177.13246219748132" departLane="free"/>
  <flow id="JF395214" begin="5060" fromJunction="J5" toJunction="J7" end="5120" vehsPerHour="260.06095482588665" departLane="free"/>
  <flow id="JF395215" begin="5060" fromJunction="J6" toJunction="J0" end="5120" vehsPerHour="107.46281279915614" departLane="free"/>
  <flow id="JF395216" begin="5060" fromJunction="J6" toJunction="J4" end="5120" vehsPerHour="42.553871495584424" departLane="free"/>
  <flow id="JF395217" begin="5060" fromJunction="J6" toJunction="J7" end="5120" vehsPerHour="55.486153499801624" departLane="free"/>
  <flow id="JF395218" begin="5060" fromJunction="J7" toJunction="J0" end="5120" vehsPerHour="209.45059104159793" departLane="free"/>
  <flow id="JF395219" begin="5060" fromJunction="J7" toJunction="J3" end="5120" vehsPerHour="190.83315425934217" departLane="free"/>
  <flow id="JF395220" begin="5060" fromJunction="J7" toJunction="J4" end="5120" vehsPerHour="54.64363632455484" departLane="free"/>
  <flow id="JF395221" begin="5060" fromJunction="J7" toJunction="J6" end="5120" vehsPerHour="71.85077647621655" departLane="free"/>
  <flow id="JF395222" begin="5120" fromJunction="J0" toJunction="J3" end="5180" vehsPerHour="479.8089589866616" departLane="free"/>
  <flow id="JF395223" begin="5120" fromJunction="J0" toJunction="J4" end="5180" vehsPerHour="42.50983182850688" departLane="free"/>
  <flow id="JF395224" begin="5120" fromJunction="J0" toJunction="J5" end="5180" vehsPerHour="80.80965464494217" departLane="free"/>
  <flow id="JF395225" begin="5120" fromJunction="J0" toJunction="J6" end="5180" vehsPerHour="235.4670024745219" departLane="free"/>
  <flow id="JF395226" begin="5120" fromJunction="J0" toJunction="J7" end="5180" vehsPerHour="267.1218817824698" departLane="free"/>
  <flow id="JF395227" begin="5120" fromJunction="J3" toJunction="J4" end="5180" vehsPerHour="414.20075154157985" departLane="free"/>
  <flow id="JF395228" begin="5120" fromJunction="J3" toJunction="J5" end="5180" vehsPerHour="496.56285834459914" departLane="free"/>
  <flow id="JF395229" begin="5120" fromJunction="J3" toJunction="J6" end="5180" vehsPerHour="142.34865987714014" departLane="free"/>
  <flow id="JF395230" begin="5120" fromJunction="J4" toJunction="J0" end="5180" vehsPerHour="122.66595121301062" departLane="free"/>
  <flow id="JF395231" begin="5120" fromJunction="J4" toJunction="J3" end="5180" vehsPerHour="26.157250124499388" departLane="free"/>
  <flow id="JF395232" begin="5120" fromJunction="J4" toJunction="J5" end="5180" vehsPerHour="21.79257930281606" departLane="free"/>
  <flow id="JF395233" begin="5120" fromJunction="J4" toJunction="J6" end="5180" vehsPerHour="19.371946797718543" departLane="free"/>
  <flow id="JF395234" begin="5120" fromJunction="J4" toJunction="J7" end="5180" vehsPerHour="30.288265942666772" departLane="free"/>
  <flow id="JF395235" begin="5120" fromJunction="J5" toJunction="J0" end="5180" vehsPerHour="75.69592312251116" departLane="free"/>
  <flow id="JF395236" begin="5120" fromJunction="J5" toJunction="J3" end="5180" vehsPerHour="33.556101053396375" departLane="free"/>
  <flow id="JF395237" begin="5120" fromJunction="J5" toJunction="J4" end="5180" vehsPerHour="200.15235054044723" departLane="free"/>
  <flow id="JF395238" begin="5120" fromJunction="J5" toJunction="J6" end="5180" vehsPerHour="191.63830183812703" departLane="free"/>
  <flow id="JF395239" begin="5120" fromJunction="J6" toJunction="J0" end="5180" vehsPerHour="30.56703695481245" departLane="free"/>
  <flow id="JF395240" begin="5120" fromJunction="J6" toJunction="J3" end="5180" vehsPerHour="218.42268015190012" departLane="free"/>
  <flow id="JF395241" begin="5120" fromJunction="J6" toJunction="J4" end="5180" vehsPerHour="15.444100438840534" departLane="free"/>
  <flow id="JF395242" begin="5120" fromJunction="J7" toJunction="J0" end="5180" vehsPerHour="90.43190582652109" departLane="free"/>
  <flow id="JF395243" begin="5120" fromJunction="J7" toJunction="J3" end="5180" vehsPerHour="236.19710338675824" departLane="free"/>
  <flow id="JF395244" begin="5120" fromJunction="J7" toJunction="J4" end="5180" vehsPerHour="128.50034471893653" departLane="free"/>
  <flow id="JF395245" begin="5120" fromJunction="J7" toJunction="J5" end="5180" vehsPerHour="159.17019309827518" departLane="free"/>
  <flow id="JF395246" begin="5180" fromJunction="J0" toJunction="J3" end="5240" vehsPerHour="205.22155776786957" departLane="free"/>
  <flow id="JF395247" begin="5180" fromJunction="J0" toJunction="J4" end="5240" vehsPerHour="144.32508377338664" departLane="free"/>
  <flow id="JF395248" begin="5180" fromJunction="J0" toJunction="J5" end="5240" vehsPerHour="405.9643103324045" departLane="free"/>
  <flow id="JF395249" begin="5180" fromJunction="J0" toJunction="J6" end="5240" vehsPerHour="227.38312672327328" departLane="free"/>
  <flow id="JF395250" begin="5180" fromJunction="J3" toJunction="J0" end="5240" vehsPerHour="200.59458708387996" departLane="free"/>
  <flow id="JF395251" begin="5180" fromJunction="J3" toJunction="J5" end="5240" vehsPerHour="490.957629750283" departLane="free"/>
  <flow id="JF395252" begin="5180" fromJunction="J3" toJunction="J6" end="5240" vehsPerHour="172.32332780050814" departLane="free"/>
  <flow id="JF395253" begin="5180" fromJunction="J3" toJunction="J7" end="5240" vehsPerHour="502.14273494678525" departLane="free"/>
  <flow id="JF395254" begin="5180" fromJunction="J4" toJunction="J0" end="5240" vehsPerHour="239.57371361289472" departLane="free"/>
  <flow id="JF395255" begin="5180" fromJunction="J4" toJunction="J5" end="5240" vehsPerHour="101.8444678578007" departLane="free"/>
  <flow id="JF395256" begin="5180" fromJunction="J4" toJunction="J6" end="5240" vehsPerHour="109.28094981887136" departLane="free"/>
  <flow id="JF395257" begin="5180" fromJunction="J5" toJunction="J0" end="5240" vehsPerHour="241.12499394139363" departLane="free"/>
  <flow id="JF395258" begin="5180" fromJunction="J5" toJunction="J3" end="5240" vehsPerHour="64.0748170979989" departLane="free"/>
  <flow id="JF395259" begin="5180" fromJunction="J5" toJunction="J4" end="5240" vehsPerHour="13.152657142095732" departLane="free"/>
  <flow id="JF395260" begin="5180" fromJunction="J5" toJunction="J7" end="5240" vehsPerHour="56.408726662788766" departLane="free"/>
  <flow id="JF395261" begin="5180" fromJunction="J6" toJunction="J0" end="5240" vehsPerHour="34.62734164313" departLane="free"/>
  <flow id="JF395262" begin="5180" fromJunction="J6" toJunction="J3" end="5240" vehsPerHour="118.84235464155978" departLane="free"/>
  <flow id="JF395263" begin="5180" fromJunction="J6" toJunction="J4" end="5240" vehsPerHour="142.9601310782894" departLane="free"/>
  <flow id="JF395264" begin="5180" fromJunction="J6" toJunction="J5" end="5240" vehsPerHour="233.15246162046535" departLane="free"/>
  <flow id="JF395265" begin="5180" fromJunction="J7" toJunction="J3" end="5240" vehsPerHour="89.32827830227203" departLane="free"/>
  <flow id="JF395266" begin="5180" fromJunction="J7" toJunction="J4" end="5240" vehsPerHour="65.0945618133404" departLane="free"/>
  <flow id="JF395267" begin="5180" fromJunction="J7" toJunction="J5" end="5240" vehsPerHour="222.64445532682302" departLane="free"/>
  <flow id="JF395268" begin="5180" fromJunction="J7" toJunction="J6" end="5240" vehsPerHour="149.09795216244405" departLane="free"/>
  <flow id="JF395269" begin="5240" fromJunction="J0" toJunction="J3" end="5300" vehsPerHour="357.6135588038375" departLane="free"/>
  <flow id="JF395270" begin="5240" fromJunction="J0" toJunction="J6" end="5300" vehsPerHour="438.68028334080617" departLane="free"/>
  <flow id="JF395271" begin="5240" fromJunction="J0" toJunction="J7" end="5300" vehsPerHour="170.60751261220867" departLane="free"/>
  <flow id="JF395272" begin="5240" fromJunction="J3" toJunction="J0" end="5300" vehsPerHour="215.854832395927" departLane="free"/>
  <flow id="JF395273" begin="5240" fromJunction="J3" toJunction="J4" end="5300" vehsPerHour="35.37054544412182" departLane="free"/>
  <flow id="JF395274" begin="5240" fromJunction="J3" toJunction="J5" end="5300" vehsPerHour="162.43013447720386" departLane="free"/>
  <flow id="JF395275" begin="5240" fromJunction="J3" toJunction="J7" end="5300" vehsPerHour="496.05560677481816" departLane="free"/>
  <flow id="JF395276" begin="5240" fromJunction="J4" toJunction="J0" end="5300" vehsPerHour="102.07319059484281" departLane="free"/>
  <flow id="JF395277" begin="5240" fromJunction="J4" toJunction="J3" end="5300" vehsPerHour="82.62977585944624" departLane="free"/>
  <flow id="JF395278" begin="5240" fromJunction="J4" toJunction="J5" end="5300" vehsPerHour="32.920282764075175" departLane="free"/>
  <flow id="JF395279" begin="5240" fromJunction="J4" toJunction="J6" end="5300" vehsPerHour="84.31139999548532" departLane="free"/>
  <flow id="JF395280" begin="5240" fromJunction="J5" toJunction="J0" end="5300" vehsPerHour="216.09584220852636" departLane="free"/>
  <flow id="JF395281" begin="5240" fromJunction="J5" toJunction="J3" end="5300" vehsPerHour="55.646685357753206" departLane="free"/>
  <flow id="JF395282" begin="5240" fromJunction="J5" toJunction="J6" end="5300" vehsPerHour="118.81617426346538" departLane="free"/>
  <flow id="JF395283" begin="5240" fromJunction="J5" toJunction="J7" end="5300" vehsPerHour="234.56201318854647" departLane="free"/>
  <flow id="JF395284" begin="5240" fromJunction="J6" toJunction="J3" end="5300" vehsPerHour="261.96968384071505" departLane="free"/>
  <flow id="JF395285" begin="5240" fromJunction="J6" toJunction="J4" end="5300" vehsPerHour="65.60670580448424" departLane="free"/>
  <flow id="JF395286" begin="5240" fromJunction="J6" toJunction="J5" end="5300" vehsPerHour="159.95488717669323" departLane="free"/>
  <flow id="JF395287" begin="5240" fromJunction="J6" toJunction="J7" end="5300" vehsPerHour="134.45537716473606" departLane="free"/>
  <flow id="JF395288" begin="5240" fromJunction="J7" toJunction="J0" end="5300" vehsPerHour="107.84158805870707" departLane="free"/>
  <flow id="JF395289" begin="5240" fromJunction="J7" toJunction="J4" end="5300" vehsPerHour="200.93141864183565" departLane="free"/>
  <flow id="JF395290" begin="5240" fromJunction="J7" toJunction="J6" end="5300" vehsPerHour="148.80968790129586" departLane="free"/>
  <flow id="JF395291" begin="5300" fromJunction="J0" toJunction="J3" end="5360" vehsPerHour="367.91207881123626" departLane="free"/>
  <flow id="JF395292" begin="5300" fromJunction="J0" toJunction="J4" end="5360" vehsPerHour="539.2609247673665" departLane="free"/>
  <flow id="JF395293" begin="5300" fromJunction="J0" toJunction="J5" end="5360" vehsPerHour="186.18628912392128" departLane="free"/>
  <flow id="JF395294" begin="5300" fromJunction="J0" toJunction="J6" end="5360" vehsPerHour="41.178227519700116" departLane="free"/>
  <flow id="JF395295" begin="5300" fromJunction="J3" toJunction="J5" end="5360" vehsPerHour="332.48362523963334" departLane="free"/>
  <flow id="JF395296" begin="5300" fromJunction="J3" toJunction="J7" end="5360" vehsPerHour="30.855150524275547" departLane="free"/>
  <flow id="JF395297" begin="5300" fromJunction="J4" toJunction="J0" end="5360" vehsPerHour="215.12065581208958" departLane="free"/>
  <flow id="JF395298" begin="5300" fromJunction="J4" toJunction="J3" end="5360" vehsPerHour="240.54573638577597" departLane="free"/>
  <flow id="JF395299" begin="5300" fromJunction="J4" toJunction="J5" end="5360" vehsPerHour="124.58083297470833" departLane="free"/>
  <flow id="JF395300" begin="5300" fromJunction="J4" toJunction="J6" end="5360" vehsPerHour="198.2714324968422" departLane="free"/>
  <flow id="JF395301" begin="5300" fromJunction="J4" toJunction="J7" end="5360" vehsPerHour="105.02982328123608" departLane="free"/>
  <flow id="JF395302" begin="5300" fromJunction="J5" toJunction="J0" end="5360" vehsPerHour="123.18101916937141" departLane="free"/>
  <flow id="JF395303" begin="5300" fromJunction="J5" toJunction="J4" end="5360" vehsPerHour="88.314740163968" departLane="free"/>
  <flow id="JF395304" begin="5300" fromJunction="J5" toJunction="J7" end="5360" vehsPerHour="206.19594692640155" departLane="free"/>
  <flow id="JF395305" begin="5300" fromJunction="J6" toJunction="J3" end="5360" vehsPerHour="266.3609638823263" departLane="free"/>
  <flow id="JF395306" begin="5300" fromJunction="J6" toJunction="J5" end="5360" vehsPerHour="177.0260874790527" departLane="free"/>
  <flow id="JF395307" begin="5300" fromJunction="J7" toJunction="J3" end="5360" vehsPerHour="253.07782186527788" departLane="free"/>
  <flow id="JF395308" begin="5300" fromJunction="J7" toJunction="J4" end="5360" vehsPerHour="93.12243750202721" departLane="free"/>
  <flow id="JF395309" begin="5300" fromJunction="J7" toJunction="J5" end="5360" vehsPerHour="57.69890642639748" departLane="free"/>
  <flow id="JF395310" begin="5300" fromJunction="J7" toJunction="J6" end="5360" vehsPerHour="213.38693771210893" departLane="free"/>
  <flow id="JF395311" begin="5360" fromJunction="J0" toJunction="J3" end="5420" vehsPerHour="532.8098335942268" departLane="free"/>
  <flow id="JF395312" begin="5360" fromJunction="J0" toJunction="J5" end="5420" vehsPerHour="258.1324047492664" departLane="free"/>
  <flow id="JF395313" begin="5360" fromJunction="J0" toJunction="J6" end="5420" vehsPerHour="526.7068847097612" departLane="free"/>
  <flow id="JF395314" begin="5360" fromJunction="J0" toJunction="J7" end="5420" vehsPerHour="273.265569937219" departLane="free"/>
  <flow id="JF395315" begin="5360" fromJunction="J3" toJunction="J0" end="5420" vehsPerHour="399.9839064657584" departLane="free"/>
  <flow id="JF395316" begin="5360" fromJunction="J3" toJunction="J4" end="5420" vehsPerHour="12.087976493564456" departLane="free"/>
  <flow id="JF395317" begin="5360" fromJunction="J3" toJunction="J5" end="5420" vehsPerHour="406.39232946486794" departLane="free"/>
  <flow id="JF395318" begin="5360" fromJunction="J3" toJunction="J6" end="5420" vehsPerHour="148.11252179167977" departLane="free"/>
  <flow id="JF395319" begin="5360" fromJunction="J4" toJunction="J0" end="5420" vehsPerHour="171.57830213880476" departLane="free"/>
  <flow id="JF395320" begin="5360" fromJunction="J4" toJunction="J3" end="5420" vehsPerHour="122.72356782860345" departLane="free"/>
  <flow id="JF395321" begin="5360" fromJunction="J4" toJunction="J6" end="5420" vehsPerHour="214.1244723166243" departLane="free"/>
  <flow id="JF395322" begin="5360" fromJunction="J5" toJunction="J0" end="5420" vehsPerHour="64.14161889777473" departLane="free"/>
  <flow id="JF395323" begin="5360" fromJunction="J5" toJunction="J3" end="5420" vehsPerHour="63.929472026759065" departLane="free"/>
  <flow id="JF395324" begin="5360" fromJunction="J5" toJunction="J7" end="5420" vehsPerHour="45.86024047515089" departLane="free"/>
  <flow id="JF395325" begin="5360" fromJunction="J6" toJunction="J3" end="5420" vehsPerHour="204.59833149740624" departLane="free"/>
  <flow id="JF395326" begin="5360" fromJunction="J6" toJunction="J4" end="5420" vehsPerHour="53.4718755446543" departLane="free"/>
  <flow id="JF395327" begin="5360" fromJunction="J6" toJunction="J5" end="5420" vehsPerHour="248.52982006075052" departLane="free"/>
  <flow id="JF395328" begin="5360" fromJunction="J6" toJunction="J7" end="5420" vehsPerHour="114.57544601051586" departLane="free"/>
  <flow id="JF395329" begin="5360" fromJunction="J7" toJunction="J0" end="5420" vehsPerHour="237.00586498069288" departLane="free"/>
  <flow id="JF395330" begin="5360" fromJunction="J7" toJunction="J3" end="5420" vehsPerHour="75.50562537033818" departLane="free"/>
  <flow id="JF395331" begin="5360" fromJunction="J7" toJunction="J4" end="5420" vehsPerHour="151.8169596617535" departLane="free"/>
  <flow id="JF395332" begin="5360" fromJunction="J7" toJunction="J6" end="5420" vehsPerHour="18.069944241754484" departLane="free"/>
  <flow id="JF395333" begin="5420" fromJunction="J0" toJunction="J3" end="5480" vehsPerHour="231.00948268354117" departLane="free"/>
  <flow id="JF395334" begin="5420" fromJunction="J0" toJunction="J4" end="5480" vehsPerHour="227.69031865320096" departLane="free"/>
  <flow id="JF395335" begin="5420" fromJunction="J0" toJunction="J5" end="5480" vehsPerHour="172.23794398009684" departLane="free"/>
  <flow id="JF395336" begin="5420" fromJunction="J0" toJunction="J7" end="5480" vehsPerHour="346.4618862061694" departLane="free"/>
  <flow id="JF395337" begin="5420" fromJunction="J3" toJunction="J4" end="5480" vehsPerHour="288.9990414082123" departLane="free"/>
  <flow id="JF395338" begin="5420" fromJunction="J3" toJunction="J5" end="5480" vehsPerHour="261.97556738065754" departLane="free"/>
  <flow id="JF395339" begin="5420" fromJunction="J3" toJunction="J7" end="5480" vehsPerHour="148.4910885020044" departLane="free"/>
  <flow id="JF395340" begin="5420" fromJunction="J4" toJunction="J0" end="5480" vehsPerHour="235.1258096330869" departLane="free"/>
  <flow id="JF395341" begin="5420" fromJunction="J4" toJunction="J5" end="5480" vehsPerHour="75.92681041356813" departLane="free"/>
  <flow id="JF395342" begin="5420" fromJunction="J4" toJunction="J6" end="5480" vehsPerHour="3.1338982244292146" departLane="free"/>
  <flow id="JF395343" begin="5420" fromJunction="J5" toJunction="J0" end="5480" vehsPerHour="32.47163943192231" departLane="free"/>
  <flow id="JF395344" begin="5420" fromJunction="J5" toJunction="J3" end="5480" vehsPerHour="101.46927745178816" departLane="free"/>
  <flow id="JF395345" begin="5420" fromJunction="J5" toJunction="J4" end="5480" vehsPerHour="36.77890338847205" departLane="free"/>
  <flow id="JF395346" begin="5420" fromJunction="J5" toJunction="J6" end="5480" vehsPerHour="195.31514380754538" departLane="free"/>
  <flow id="JF395347" begin="5420" fromJunction="J5" toJunction="J7" end="5480" vehsPerHour="144.95698115669086" departLane="free"/>
  <flow id="JF395348" begin="5420" fromJunction="J6" toJunction="J3" end="5480" vehsPerHour="125.89136501632747" departLane="free"/>
  <flow id="JF395349" begin="5420" fromJunction="J6" toJunction="J4" end="5480" vehsPerHour="149.7573849584378" departLane="free"/>
  <flow id="JF395350" begin="5420" fromJunction="J6" toJunction="J5" end="5480" vehsPerHour="193.02415805898886" departLane="free"/>
  <flow id="JF395351" begin="5420" fromJunction="J6" toJunction="J7" end="5480" vehsPerHour="192.15830830348023" departLane="free"/>
  <flow id="JF395352" begin="5420" fromJunction="J7" toJunction="J0" end="5480" vehsPerHour="263.8005100363428" departLane="free"/>
  <flow id="JF395353" begin="5420" fromJunction="J7" toJunction="J4" end="5480" vehsPerHour="195.927731895915" departLane="free"/>
  <flow id="JF395354" begin="5420" fromJunction="J7" toJunction="J5" end="5480" vehsPerHour="2.8589675518981807" departLane="free"/>
  <flow id="JF395355" begin="5420" fromJunction="J7" toJunction="J6" end="5480" vehsPerHour="208.55676969963164" departLane="free"/>
  <flow id="JF395356" begin="5480" fromJunction="J0" toJunction="J3" end="5540" vehsPerHour="186.39132079790448" departLane="free"/>
  <flow id="JF395357" begin="5480" fromJunction="J0" toJunction="J4" end="5540" vehsPerHour="478.9191465975578" departLane="free"/>
  <flow id="JF395358" begin="5480" fromJunction="J0" toJunction="J5" end="5540" vehsPerHour="218.52145044669422" departLane="free"/>
  <flow id="JF395359" begin="5480" fromJunction="J0" toJunction="J6" end="5540" vehsPerHour="231.9227527364286" departLane="free"/>
  <flow id="JF395360" begin="5480" fromJunction="J0" toJunction="J7" end="5540" vehsPerHour="337.0759391148275" departLane="free"/>
  <flow id="JF395361" begin="5480" fromJunction="J3" toJunction="J0" end="5540" vehsPerHour="339.75454944477127" departLane="free"/>
  <flow id="JF395362" begin="5480" fromJunction="J3" toJunction="J4" end="5540" vehsPerHour="488.9527012234226" departLane="free"/>
  <flow id="JF395363" begin="5480" fromJunction="J3" toJunction="J5" end="5540" vehsPerHour="142.7680506965768" departLane="free"/>
  <flow id="JF395364" begin="5480" fromJunction="J3" toJunction="J6" end="5540" vehsPerHour="496.14902867597044" departLane="free"/>
  <flow id="JF395365" begin="5480" fromJunction="J3" toJunction="J7" end="5540" vehsPerHour="356.54790129310373" departLane="free"/>
  <flow id="JF395366" begin="5480" fromJunction="J4" toJunction="J3" end="5540" vehsPerHour="39.59117248929906" departLane="free"/>
  <flow id="JF395367" begin="5480" fromJunction="J4" toJunction="J5" end="5540" vehsPerHour="222.40424884372877" departLane="free"/>
  <flow id="JF395368" begin="5480" fromJunction="J4" toJunction="J6" end="5540" vehsPerHour="162.32516273631697" departLane="free"/>
  <flow id="JF395369" begin="5480" fromJunction="J4" toJunction="J7" end="5540" vehsPerHour="177.41356831057246" departLane="free"/>
  <flow id="JF395370" begin="5480" fromJunction="J5" toJunction="J3" end="5540" vehsPerHour="236.08685826234918" departLane="free"/>
  <flow id="JF395371" begin="5480" fromJunction="J5" toJunction="J4" end="5540" vehsPerHour="24.213788929731823" departLane="free"/>
  <flow id="JF395372" begin="5480" fromJunction="J5" toJunction="J6" end="5540" vehsPerHour="8.785469135682293" departLane="free"/>
  <flow id="JF395373" begin="5480" fromJunction="J6" toJunction="J0" end="5540" vehsPerHour="152.2147749114872" departLane="free"/>
  <flow id="JF395374" begin="5480" fromJunction="J6" toJunction="J4" end="5540" vehsPerHour="216.516186436182" departLane="free"/>