<?xml version="1.0" encoding="UTF-8"?>
<routes xmlns:xsi="http://www.w3.org/2001/XMLSchema-instance" xsi:noNamespaceSchemaLocation="http://sumo.dlr.de/xsd/routes_file.xsd">
  <flow id="JF11960" begin="0" fromJunction="J3" toJunction="J0" end="60" vehsPerHour="116.56249381650859" departLane="free"/>
  <flow id="JF11961" begin="0" fromJunction="J0" toJunction="J3" end="60" vehsPerHour="68.30137077941164" departLane="free"/>
  <flow id="JF11962" begin="0" fromJunction="J3" toJunction="J4" end="60" vehsPerHour="59.639349972371484" departLane="free"/>
  <flow id="JF11963" begin="0" fromJunction="J3" toJunction="J5" end="60" vehsPerHour="93.00645015494803" departLane="free"/>
  <flow id="JF11964" begin="0" fromJunction="J3" toJunction="J7" end="60" vehsPerHour="72.64003718555354" departLane="free"/>
  <flow id="JF11965" begin="0" fromJunction="J3" toJunction="J6" end="60" vehsPerHour="130.4250917505109" departLane="free"/>
  <flow id="JF11966" begin="0" fromJunction="J0" toJunction="J4" end="60" vehsPerHour="106.75879426459073" departLane="free"/>
  <flow id="JF11967" begin="0" fromJunction="J0" toJunction="J5" end="60" vehsPerHour="26.187016015935804" departLane="free"/>
  <flow id="JF11968" begin="0" fromJunction="J0" toJunction="J7" end="60" vehsPerHour="34.45658619001524" departLane="free"/>
  <flow id="JF11969" begin="0" fromJunction="J0" toJunction="J6" end="60" vehsPerHour="25.215533565374475" departLane="free"/>
  <flow id="JF11970" begin="0" fromJunction="J4" toJunction="J5" end="60" vehsPerHour="34.775379425482704" departLane="free"/>
  <flow id="JF11971" begin="0" fromJunction="J4" toJunction="J7" end="60" vehsPerHour="31.68130997036076" departLane="free"/>
  <flow id="JF11972" begin="0" fromJunction="J4" toJunction="J6" end="60" vehsPerHour="46.99134473782554" departLane="free"/>
  <flow id="JF11973" begin="0" fromJunction="J5" toJunction="J4" end="60" vehsPerHour="61.922106397248875" departLane="free"/>
  <flow id="JF11974" begin="0" fromJunction="J5" toJunction="J7" end="60" vehsPerHour="32.2253249316972" departLane="free"/>
  <flow id="JF11975" begin="0" fromJunction="J5" toJunction="J6" end="60" vehsPerHour="4.451476367971871" departLane="free"/>
  <flow id="JF11976" begin="0" fromJunction="J7" toJunction="J4" end="60" vehsPerHour="10.030253395445552" departLane="free"/>
  <flow id="JF11977" begin="0" fromJunction="J7" toJunction="J5" end="60" vehsPerHour="57.5852987795603" departLane="free"/>
  <flow id="JF11978" begin="0" fromJunction="J7" toJunction="J6" end="60" vehsPerHour="66.69569344476362" departLane="free"/>
  <flow id="JF11979" begin="0" fromJunction="J6" toJunction="J4" end="60" vehsPerHour="66.99221105346489" departLane="free"/>
  <flow id="JF11980" begin="0" fromJunction="J6" toJunction="J5" end="60" vehsPerHour="30.51144503194268" departLane="free"/>
  <flow id="JF11981" begin="0" fromJunction="J6" toJunction="J7" end="60" vehsPerHour="0.2765899091049304" departLane="free"/>
  <flow id="JF11982" begin="0" fromJunction="J4" toJunction="J3" end="60" vehsPerHour="65.00018781004196" departLane="free"/>
  <flow id="JF11983" begin="0" fromJunction="J4" toJunction="J0" end="60" vehsPerHour="39.0008269034212" departLane="free"/>
  <flow id="JF11984" begin="0" fromJunction="J5" toJunction="J3" end="60" vehsPerHour="9.731555286431513" departLane="free"/>
  <flow id="JF11985" begin="0" fromJunction="J5" toJunction="J0" end="60" vehsPerHour="20.898626141968005" departLane="free"/>
  <flow id="JF11986" begin="0" fromJunction="J7" toJunction="J3" end="60" vehsPerHour="23.25668461134247" departLane="free"/>
  <flow id="JF11987" begin="0" fromJunction="J7" toJunction="J0" end="60" vehsPerHour="34.31397881901506" departLane="free"/>
  <flow id="JF11988" begin="0" fromJunction="J6" toJunction="J3" end="60" vehsPerHour="59.40169412275933" departLane="free"/>
  <flow id="JF11989" begin="0" fromJunction="J6" toJunction="J0" end="60" vehsPerHour="10.723232955087441" departLane="free"/>
  <flow id="JF11990" begin="60" fromJunction="J3" toJunction="J0" end="120" vehsPerHour="37.46141392808444" departLane="free"/>
  <flow id="JF11991" begin="60" fromJunction="J0" toJunction="J3" end="120" vehsPerHour="85.3750173729107" departLane="free"/>
  <flow id="JF11992" begin="60" fromJunction="J3" toJunction="J4" end="120" vehsPerHour="25.28806558059893" departLane="free"/>
  <flow id="JF11993" begin="60" fromJunction="J3" toJunction="J5" end="120" vehsPerHour="51.37948307556061" departLane="free"/>
  <flow id="JF11994" begin="60" fromJunction="J3" toJunction="J7" end="120" vehsPerHour="133.65143858987724" departLane="free"/>
  <flow id="JF11995" begin="60" fromJunction="J3" toJunction="J6" end="120" vehsPerHour="11.994147511376381" departLane="free"/>
  <flow id="JF11996" begin="60" fromJunction="J0" toJunction="J4" end="120" vehsPerHour="128.50111453722488" departLane="free"/>
  <flow id="JF11997" begin="60" fromJunction="J0" toJunction="J5" end="120" vehsPerHour="103.82446278049535" departLane="free"/>
  <flow id="JF11998" begin="60" fromJunction="J0" toJunction="J7" end="120" vehsPerHour="43.89865754299231" departLane="free"/>
  <flow id="JF11999" begin="60" fromJunction="J0" toJunction="J6" end="120" vehsPerHour="131.92385830771653" departLane="free"/>
  <flow id="JF12000" begin="60" fromJunction="J4" toJunction="J5" end="120" vehsPerHour="54.88300407939212" departLane="free"/>
  <flow id="JF12001" begin="60" fromJunction="J4" toJunction="J7" end="120" vehsPerHour="49.0592022054158" departLane="free"/>
  <flow id="JF12002" begin="60" fromJunction="J4" toJunction="J6" end="120" vehsPerHour="20.337936063257512" departLane="free"/>
  <flow id="JF12003" begin="60" fromJunction="J5" toJunction="J4" end="120" vehsPerHour="18.51197774853209" departLane="free"/>
  <flow id="JF12004" begin="60" fromJunction="J5" toJunction="J7" end="120" vehsPerHour="11.347862908537248" departLane="free"/>
  <flow id="JF12005" begin="60" fromJunction="J5" toJunction="J6" end="120" vehsPerHour="7.953369905955881" departLane="free"/>
  <flow id="JF12006" begin="60" fromJunction="J7" toJunction="J4" end="120" vehsPerHour="21.74429944451086" departLane="free"/>
  <flow id="JF12007" begin="60" fromJunction="J7" toJunction="J5" end="120" vehsPerHour="29.328401937568575" departLane="free"/>
  <flow id="JF12008" begin="60" fromJunction="J7" toJunction="J6" end="120" vehsPerHour="49.54829246596833" departLane="free"/>
  <flow id="JF12009" begin="60" fromJunction="J6" toJunction="J4" end="120" vehsPerHour="11.09738438818338" departLane="free"/>
  <flow id="JF12010" begin="60" fromJunction="J6" toJunction="J5" end="120" vehsPerHour="2.1015095600552574" departLane="free"/>
  <flow id="JF12011" begin="60" fromJunction="J6" toJunction="J7" end="120" vehsPerHour="24.042317824687323" departLane="free"/>
  <flow id="JF12012" begin="60" fromJunction="J4" toJunction="J3" end="120" vehsPerHour="38.27270270002213" departLane="free"/>
  <flow id="JF12013" begin="60" fromJunction="J4" toJunction="J0" end="120" vehsPerHour="6.375348217653828" departLane="free"/>
  <flow id="JF12014" begin="60" fromJunction="J5" toJunction="J3" end="120" vehsPerHour="53.76485976946609" departLane="free"/>
  <flow id="JF12015" begin="60" fromJunction="J5" toJunction="J0" end="120" vehsPerHour="27.438574234411078" departLane="free"/>
  <flow id="JF12016" begin="60" fromJunction="J7" toJunction="J3" end="120" vehsPerHour="52.33946781689455" departLane="free"/>
  <flow id="JF12017" begin="60" fromJunction="J7" toJunction="J0" end="120" vehsPerHour="9.353377243175714" departLane="free"/>
  <flow id="JF12018" begin="60" fromJunction="J6" toJunction="J3" end="120" vehsPerHour="27.319040178525267" departLane="free"/>
  <flow id="JF12019" begin="60" fromJunction="J6" toJunction="J0" end="120" vehsPerHour="36.05834146434345" departLane="free"/>
  <flow id="JF12020" begin="120" fromJunction="J3" toJunction="J0" end="180" vehsPerHour="61.562449015947024" departLane="free"/>
  <flow id="JF12021" begin="120" fromJunction="J0" toJunction="J3" end="180" vehsPerHour="96.84145979436842" departLane="free"/>
  <flow id="JF12022" begin="120" fromJunction="J3" toJunction="J4" end="180" vehsPerHour="5.7499799331233845" departLane="free"/>
  <flow id="JF12023" begin="120" fromJunction="J3" toJunction="J5" end="180" vehsPerHour="67.01394181906545" departLane="free"/>
  <flow id="JF12024" begin="120" fromJunction="J3" toJunction="J7" end="180" vehsPerHour="3.7708062809433667" departLane="free"/>
  <flow id="JF12025" begin="120" fromJunction="J3" toJunction="J6" end="180" vehsPerHour="74.29933489162526" departLane="free"/>
  <flow id="JF12026" begin="120" fromJunction="J0" toJunction="J4" end="180" vehsPerHour="131.08805134811567" departLane="free"/>
  <flow id="JF12027" begin="120" fromJunction="J0" toJunction="J5" end="180" vehsPerHour="52.516283570877754" departLane="free"/>
  <flow id="JF12028" begin="120" fromJunction="J0" toJunction="J7" end="180" vehsPerHour="117.88712857540102" departLane="free"/>
  <flow id="JF12029" begin="120" fromJunction="J0" toJunction="J6" end="180" vehsPerHour="86.74264418092254" departLane="free"/>
  <flow id="JF12030" begin="120" fromJunction="J4" toJunction="J5" end="180" vehsPerHour="48.70376955567358" departLane="free"/>
  <flow id="JF12031" begin="120" fromJunction="J4" toJunction="J7" end="180" vehsPerHour="47.010628036632625" departLane="free"/>
  <flow id="JF12032" begin="120" fromJunction="J4" toJunction="J6" end="180" vehsPerHour="33.76091514682106" departLane="free"/>
  <flow id="JF12033" begin="120" fromJunction="J5" toJunction="J4" end="180" vehsPerHour="0.18667727591667305" departLane="free"/>
  <flow id="JF12034" begin="120" fromJunction="J5" toJunction="J7" end="180" vehsPerHour="2.8195157100872543" departLane="free"/>
  <flow id="JF12035" begin="120" fromJunction="J5" toJunction="J6" end="180" vehsPerHour="27.72286342078923" departLane="free"/>
  <flow id="JF12036" begin="120" fromJunction="J7" toJunction="J4" end="180" vehsPerHour="12.969401602772075" departLane="free"/>
  <flow id="JF12037" begin="120" fromJunction="J7" toJunction="J5" end="180" vehsPerHour="28.758713656896706" departLane="free"/>
  <flow id="JF12038" begin="120" fromJunction="J7" toJunction="J6" end="180" vehsPerHour="54.569947209032556" departLane="free"/>
  <flow id="JF12039" begin="120" fromJunction="J6" toJunction="J4" end="180" vehsPerHour="7.747194390539743" departLane="free"/>
  <flow id="JF12040" begin="120" fromJunction="J6" toJunction="J5" end="180" vehsPerHour="46.03419787844256" departLane="free"/>
  <flow id="JF12041" begin="120" fromJunction="J6" toJunction="J7" end="180" vehsPerHour="28.70783234747721" departLane="free"/>
  <flow id="JF12042" begin="120" fromJunction="J4" toJunction="J3" end="180" vehsPerHour="29.732066520749584" departLane="free"/>
  <flow id="JF12043" begin="120" fromJunction="J4" toJunction="J0" end="180" vehsPerHour="64.11258106681282" departLane="free"/>
  <flow id="JF12044" begin="120" fromJunction="J5" toJunction="J3" end="180" vehsPerHour="30.085619199099707" departLane="free"/>
  <flow id="JF12045" begin="120" fromJunction="J5" toJunction="J0" end="180" vehsPerHour="4.917763823209613" departLane="free"/>
  <flow id="JF12046" begin="120" fromJunction="J7" toJunction="J3" end="180" vehsPerHour="15.086097238073778" departLane="free"/>
  <flow id="JF12047" begin="120" fromJunction="J7" toJunction="J0" end="180" vehsPerHour="56.71622829340189" departLane="free"/>
  <flow id="JF12048" begin="120" fromJunction="J6" toJunction="J3" end="180" vehsPerHour="62.93489912248457" departLane="free"/>
  <flow id="JF12049" begin="120" fromJunction="J6" toJunction="J0" end="180" vehsPerHour="60.337622950542105" departLane="free"/>
  <flow id="JF12050" begin="180" fromJunction="J3" toJunction="J0" end="240" vehsPerHour="119.0956535508639" departLane="free"/>
  <flow id="JF12051" begin="180" fromJunction="J0" toJunction="J3" end="240" vehsPerHour="131.88338924313578" departLane="free"/>
  <flow id="JF12052" begin="180" fromJunction="J3" toJunction="J4" end="240" vehsPerHour="62.9094768513381" departLane="free"/>
  <flow id="JF12053" begin="180" fromJunction="J3" toJunction="J5" end="240" vehsPerHour="112.23873535578777" departLane="free"/>
  <flow id="JF12054" begin="180" fromJunction="J3" toJunction="J7" end="240" vehsPerHour="12.086501356420872" departLane="free"/>
  <flow id="JF12055" begin="180" fromJunction="J3" toJunction="J6" end="240" vehsPerHour="120.08406742901462" departLane="free"/>
  <flow id="JF12056" begin="180" fromJunction="J0" toJunction="J4" end="240" vehsPerHour="85.05205933102003" departLane="free"/>
  <flow id="JF12057" begin="180" fromJunction="J0" toJunction="J5" end="240" vehsPerHour="26.153108258153953" departLane="free"/>
  <flow id="JF12058" begin="180" fromJunction="J0" toJunction="J7" end="240" vehsPerHour="94.93254250342181" departLane="free"/>
  <flow id="JF12059" begin="180" fromJunction="J0" toJunction="J6" end="240" vehsPerHour="89.68411055699558" departLane="free"/>
  <flow id="JF12060" begin="180" fromJunction="J4" toJunction="J5" end="240" vehsPerHour="38.93553825772264" departLane="free"/>
  <flow id="JF12061" begin="180" fromJunction="J4" toJunction="J7" end="240" vehsPerHour="27.84626291612778" departLane="free"/>
  <flow id="JF12062" begin="180" fromJunction="J4" toJunction="J6" end="240" vehsPerHour="6.267203229553937" departLane="free"/>
  <flow id="JF12063" begin="180" fromJunction="J5" toJunction="J4" end="240" vehsPerHour="15.607048021487364" departLane="free"/>
  <flow id="JF12064" begin="180" fromJunction="J5" toJunction="J7" end="240" vehsPerHour="40.42768304022793" departLane="free"/>
  <flow id="JF12065" begin="180" fromJunction="J5" toJunction="J6" end="240" vehsPerHour="46.61548253903247" departLane="free"/>
  <flow id="JF12066" begin="180" fromJunction="J7" toJunction="J4" end="240" vehsPerHour="57.8673986035937" departLane="free"/>
  <flow id="JF12067" begin="180" fromJunction="J7" toJunction="J5" end="240" vehsPerHour="48.41590452817984" departLane="free"/>
  <flow id="JF12068" begin="180" fromJunction="J7" toJunction="J6" end="240" vehsPerHour="43.67438780644078" departLane="free"/>
  <flow id="JF12069" begin="180" fromJunction="J6" toJunction="J4" end="240" vehsPerHour="26.792423948782197" departLane="free"/>
  <flow id="JF12070" begin="180" fromJunction="J6" toJunction="J5" end="240" vehsPerHour="24.227517605301674" departLane="free"/>
  <flow id="JF12071" begin="180" fromJunction="J6" toJunction="J7" end="240" vehsPerHour="49.29054514487459" departLane="free"/>
  <flow id="JF12072" begin="180" fromJunction="J4" toJunction="J3" end="240" vehsPerHour="40.25166039649066" departLane="free"/>
  <flow id="JF12073" begin="180" fromJunction="J4" toJunction="J0" end="240" vehsPerHour="34.80833120750881" departLane="free"/>
  <flow id="JF12074" begin="180" fromJunction="J5" toJunction="J3" end="240" vehsPerHour="30.895933429719122" departLane="free"/>
  <flow id="JF12075" begin="180" fromJunction="J5" toJunction="J0" end="240" vehsPerHour="19.830407058574178" departLane="free"/>
  <flow id="JF12076" begin="180" fromJunction="J7" toJunction="J3" end="240" vehsPerHour="6.71455301134795" departLane="free"/>
  <flow id="JF12077" begin="180" fromJunction="J7" toJunction="J0" end="240" vehsPerHour="31.016842296940546" departLane="free"/>
  <flow id="JF12078" begin="180" fromJunction="J6" toJunction="J3" end="240" vehsPerHour="11.00923952528699" departLane="free"/>
  <flow id="JF12079" begin="180" fromJunction="J6" toJunction="J0" end="240" vehsPerHour="63.98541600761433" departLane="free"/>
  <flow id="JF12080" begin="240" fromJunction="J3" toJunction="J0" end="300" vehsPerHour="84.52293132304034" departLane="free"/>
  <flow id="JF12081" begin="240" fromJunction="J0" toJunction="J3" end="300" vehsPerHour="15.405628263160779" departLane="free"/>
  <flow id="JF12082" begin="240" fromJunction="J3" toJunction="J4" end="300" vehsPerHour="135.29788682239553" departLane="free"/>
  <flow id="JF12083" begin="240" fromJunction="J3" toJunction="J5" end="300" vehsPerHour="30.19515482712139" departLane="free"/>
  <flow id="JF12084" begin="240" fromJunction="J3" toJunction="J7" end="300" vehsPerHour="35.53237901921327" departLane="free"/>
  <flow id="JF12085" begin="240" fromJunction="J3" toJunction="J6" end="300" vehsPerHour="61.25027377003073" departLane="free"/>
  <flow id="JF12086" begin="240" fromJunction="J0" toJunction="J4" end="300" vehsPerHour="95.42135102268308" departLane="free"/>
  <flow id="JF12087" begin="240" fromJunction="J0" toJunction="J5" end="300" vehsPerHour="133.40175324393607" departLane="free"/>
  <flow id="JF12088" begin="240" fromJunction="J0" toJunction="J7" end="300" vehsPerHour="118.00546812322504" departLane="free"/>
  <flow id="JF12089" begin="240" fromJunction="J0" toJunction="J6" end="300" vehsPerHour="52.464660521630506" departLane="free"/>
  <flow id="JF12090" begin="300" fromJunction="J3" toJunction="J0" end="360" vehsPerHour="13.076311228718774" departLane="free"/>
  <flow id="JF12091" begin="300" fromJunction="J0" toJunction="J3" end="360" vehsPerHour="62.32650805352593" departLane="free"/>
  <flow id="JF12092" begin="300" fromJunction="J3" toJunction="J4" end="360" vehsPerHour="123.65515718188435" departLane="free"/>
  <flow id="JF12093" begin="300" fromJunction="J3" toJunction="J5" end="360" vehsPerHour="61.350826611771936" departLane="free"/>
  <flow id="JF12094" begin="300" fromJunction="J3" toJunction="J7" end="360" vehsPerHour="28.494215034220268" departLane="free"/>
  <flow id="JF12095" begin="300" fromJunction="J3" toJunction="J6" end="360" vehsPerHour="130.20371510668497" departLane="free"/>
  <flow id="JF12096" begin="300" fromJunction="J0" toJunction="J4" end="360" vehsPerHour="135.33482815825505" departLane="free"/>
  <flow id="JF12097" begin="300" fromJunction="J0" toJunction="J5" end="360" vehsPerHour="84.91509614840103" departLane="free"/>
  <flow id="JF12098" begin="300" fromJunction="J0" toJunction="J7" end="360" vehsPerHour="17.445224629107873" departLane="free"/>
  <flow id="JF12099" begin="300" fromJunction="J0" toJunction="J6" end="360" vehsPerHour="112.4786998902381" departLane="free"/>
  <flow id="JF12100" begin="300" fromJunction="J4" toJunction="J5" end="360" vehsPerHour="48.410022946164396" departLane="free"/>
  <flow id="JF12101" begin="300" fromJunction="J4" toJunction="J7" end="360" vehsPerHour="58.008036007606066" departLane="free"/>
  <flow id="JF12102" begin="300" fromJunction="J4" toJunction="J6" end="360" vehsPerHour="0.3145871389488983" departLane="free"/>
  <flow id="JF12103" begin="300" fromJunction="J5" toJunction="J4" end="360" vehsPerHour="32.03675745270113" departLane="free"/>
  <flow id="JF12104" begin="300" fromJunction="J5" toJunction="J7" end="360" vehsPerHour="51.76389653527484" departLane="free"/>
  <flow id="JF12105" begin="300" fromJunction="J5" toJunction="J6" end="360" vehsPerHour="65.78354908729185" departLane="free"/>
  <flow id="JF12106" begin="300" fromJunction="J7" toJunction="J4" end="360" vehsPerHour="7.920204533139557" departLane="free"/>
  <flow id="JF12107" begin="300" fromJunction="J7" toJunction="J5" end="360" vehsPerHour="44.38906839152424" departLane="free"/>
  <flow id="JF12108" begin="300" fromJunction="J7" toJunction="J6" end="360" vehsPerHour="57.75496787902429" departLane="free"/>
  <flow id="JF12109" begin="300" fromJunction="J6" toJunction="J4" end="360" vehsPerHour="44.65505013419336" departLane="free"/>
  <flow id="JF12110" begin="300" fromJunction="J6" toJunction="J5" end="360" vehsPerHour="56.24244976621117" departLane="free"/>
  <flow id="JF12111" begin="300" fromJunction="J6" toJunction="J7" end="360" vehsPerHour="1.2409422210227425" departLane="free"/>
  <flow id="JF12112" begin="300" fromJunction="J4" toJunction="J3" end="360" vehsPerHour="62.55883930291768" departLane="free"/>
  <flow id="JF12113" begin="300" fromJunction="J4" toJunction="J0" end="360" vehsPerHour="9.030085308809646" departLane="free"/>
  <flow id="JF12114" begin="300" fromJunction="J5" toJunction="J3" end="360" vehsPerHour="28.529883247308234" departLane="free"/>
  <flow id="JF12115" begin="300" fromJunction="J5" toJunction="J0" end="360" vehsPerHour="61.72027727483174" departLane="free"/>
  <flow id="JF12116" begin="300" fromJunction="J7" toJunction="J3" end="360" vehsPerHour="10.817196258804355" departLane="free"/>
  <flow id="JF12117" begin="300" fromJunction="J7" toJunction="J0" end="360" vehsPerHour="12.84094542325277" departLane="free"/>
  <flow id="JF12118" begin="300" fromJunction="J6" toJunction="J3" end="360" vehsPerHour="5.023108558662667" departLane="free"/>
  <flow id="JF12119" begin="300" fromJunction="J6" toJunction="J0" end="360" vehsPerHour="33.26422425744408" departLane="free"/>
  <flow id="JF12120" begin="360" fromJunction="J3" toJunction="J0" end="420" vehsPerHour="114.71926752106306" departLane="free"/>
  <flow id="JF12121" begin="360" fromJunction="J0" toJunction="J3" end="420" vehsPerHour="121.66381948480802" departLane="free"/>
  <flow id="JF12122" begin="360" fromJunction="J3" toJunction="J4" end="420" vehsPerHour="39.33299636277679" departLane="free"/>
  <flow id="JF12123" begin="360" fromJunction="J3" toJunction="J5" end="420" vehsPerHour="56.2775754733245" departLane="free"/>
  <flow id="JF12124" begin="360" fromJunction="J3" toJunction="J7" end="420" vehsPerHour="104.30280128625284" departLane="free"/>
  <flow id="JF12125" begin="360" fromJunction="J3" toJunction="J6" end="420" vehsPerHour="5.003225637021774" departLane="free"/>
  <flow id="JF12126" begin="360" fromJunction="J0" toJunction="J4" end="420" vehsPerHour="49.07110813433592" departLane="free"/>
  <flow id="JF12127" begin="360" fromJunction="J0" toJunction="J5" end="420" vehsPerHour="71.04484327960911" departLane="free"/>
  <flow id="JF12128" begin="360" fromJunction="J0" toJunction="J7" end="420" vehsPerHour="88.81994195766168" departLane="free"/>
  <flow id="JF12129" begin="360" fromJunction="J0" toJunction="J6" end="420" vehsPerHour="33.21689854443937" departLane="free"/>
  <flow id="JF12130" begin="360" fromJunction="J4" toJunction="J5" end="420" vehsPerHour="51.44642779615659" departLane="free"/>
  <flow id="JF12131" begin="360" fromJunction="J4" toJunction="J7" end="420" vehsPerHour="67.54267393444499" departLane="free"/>
  <flow id="JF12132" begin="360" fromJunction="J4" toJunction="J6" end="420" vehsPerHour="16.325850507548118" departLane="free"/>
  <flow id="JF12133" begin="360" fromJunction="J5" toJunction="J4" end="420" vehsPerHour="23.67865628427164" departLane="free"/>
  <flow id="JF12134" begin="360" fromJunction="J5" toJunction="J7" end="420" vehsPerHour="15.11946161465317" departLane="free"/>
  <flow id="JF12135" begin="360" fromJunction="J5" toJunction="J6" end="420" vehsPerHour="48.50729894144699" departLane="free"/>
  <flow id="JF12136" begin="360" fromJunction="J7" toJunction="J4" end="420" vehsPerHour="29.67035105740442" departLane="free"/>
  <flow id="JF12137" begin="360" fromJunction="J7" toJunction="J5" end="420" vehsPerHour="35.72243459063551" departLane="free"/>
  <flow id="JF12138" begin="360" fromJunction="J7" toJunction="J6" end="420" vehsPerHour="11.56452297613065" departLane="free"/>
  <flow id="JF12139" begin="360" fromJunction="J6" toJunction="J4" end="420" vehsPerHour="18.86698566900131" departLane="free"/>
  <flow id="JF12140" begin="360" fromJunction="J6" toJunction="J5" end="420" vehsPerHour="5.6544772436605255" departLane="free"/>
  <flow id="JF12141" begin="360" fromJunction="J6" toJunction="J7" end="420" vehsPerHour="25.052689099840872" departLane="free"/>
  <flow id="JF12142" begin="360" fromJunction="J4" toJunction="J3" end="420" vehsPerHour="14.191698631609299" departLane="free"/>
  <flow id="JF12143" begin="360" fromJunction="J4" toJunction="J0" end="420" vehsPerHour="66.58438582765226" departLane="free"/>
  <flow id="JF12144" begin="360" fromJunction="J5" toJunction="J3" end="420" vehsPerHour="23.722466581028694" departLane="free"/>
  <flow id="JF12145" begin="360" fromJunction="J5" toJunction="J0" end="420" vehsPerHour="61.23137469746882" departLane="free"/>
  <flow id="JF12146" begin="360" fromJunction="J7" toJunction="J3" end="420" vehsPerHour="40.012752457331096" departLane="free"/>
  <flow id="JF12147" begin="360" fromJunction="J7" toJunction="J0" end="420" vehsPerHour="52.147782129055486" departLane="free"/>
  <flow id="JF12148" begin="360" fromJunction="J6" toJunction="J3" end="420" vehsPerHour="60.38650994746444" departLane="free"/>
  <flow id="JF12149" begin="360" fromJunction="J6" toJunction="J0" end="420" vehsPerHour="48.26393861270508" departLane="free"/>
  <flow id="JF12150" begin="420" fromJunction="J3" toJunction="J0" end="480" vehsPerHour="104.20298869072698" departLane="free"/>
  <flow id="JF12151" begin="420" fromJunction="J0" toJunction="J3" end="480" vehsPerHour="43.38751736653546" departLane="free"/>
  <flow id="JF12152" begin="420" fromJunction="J3" toJunction="J4" end="480" vehsPerHour="97.21085525517839" departLane="free"/>
  <flow id="JF12153" begin="420" fromJunction="J3" toJunction="J5" end="480" vehsPerHour="110.55467734594792" departLane="free"/>
  <flow id="JF12154" begin="420" fromJunction="J3" toJunction="J7" end="480" vehsPerHour="109.61272152467286" departLane="free"/>
  <flow id="JF12155" begin="420" fromJunction="J3" toJunction="J6" end="480" vehsPerHour="66.08055406784341" departLane="free"/>
  <flow id="JF12156" begin="420" fromJunction="J0" toJunction="J4" end="480" vehsPerHour="81.86525869805467" departLane="free"/>
  <flow id="JF12157" begin="420" fromJunction="J0" toJunction="J5" end="480" vehsPerHour="135.88455619957375" departLane="free"/>
  <flow id="JF12158" begin="420" fromJunction="J0" toJunction="J7" end="480" vehsPerHour="93.35806457804345" departLane="free"/>
  <flow id="JF12159" begin="420" fromJunction="J0" toJunction="J6" end="480" vehsPerHour="25.520510361179515" departLane="free"/>
  <flow id="JF12160" begin="480" fromJunction="J3" toJunction="J0" end="540" vehsPerHour="78.58639887937345" departLane="free"/>
  <flow id="JF12161" begin="480" fromJunction="J0" toJunction="J3" end="540" vehsPerHour="59.12994386659414" departLane="free"/>
  <flow id="JF12162" begin="480" fromJunction="J3" toJunction="J4" end="540" vehsPerHour="107.36850040096078" departLane="free"/>
  <flow id="JF12163" begin="480" fromJunction="J3" toJunction="J5" end="540" vehsPerHour="39.3398878797594" departLane="free"/>
  <flow id="JF12164" begin="480" fromJunction="J3" toJunction="J7" end="540" vehsPerHour="64.16987982473223" departLane="free"/>
  <flow id="JF12165" begin="480" fromJunction="J3" toJunction="J6" end="540" vehsPerHour="135.11422290183214" departLane="free"/>
  <flow id="JF12166" begin="480" fromJunction="J0" toJunction="J4" end="540" vehsPerHour="19.396320084570466" departLane="free"/>
  <flow id="JF12167" begin="480" fromJunction="J0" toJunction="J5" end="540" vehsPerHour="79.9961359831706" departLane="free"/>
  <flow id="JF12168" begin="480" fromJunction="J0" toJunction="J7" end="540" vehsPerHour="30.176702252220462" departLane="free"/>
  <flow id="JF12169" begin="480" fromJunction="J0" toJunction="J6" end="540" vehsPerHour="59.53398339197447" departLane="free"/>
  <flow id="JF12170" begin="480" fromJunction="J4" toJunction="J5" end="540" vehsPerHour="29.669315344192896" departLane="free"/>
  <flow id="JF12171" begin="480" fromJunction="J4" toJunction="J7" end="540" vehsPerHour="41.5161551061058" departLane="free"/>
  <flow id="JF12172" begin="480" fromJunction="J4" toJunction="J6" end="540" vehsPerHour="21.618566720278203" departLane="free"/>
  <flow id="JF12173" begin="480" fromJunction="J5" toJunction="J4" end="540" vehsPerHour="24.341708343725564" departLane="free"/>
  <flow id="JF12174" begin="480" fromJunction="J5" toJunction="J7" end="540" vehsPerHour="3.140211581827157" departLane="free"/>
  <flow id="JF12175" begin="480" fromJunction="J5" toJunction="J6" end="540" vehsPerHour="39.003091527515785" departLane="free"/>
  <flow id="JF12176" begin="480" fromJunction="J7" toJunction="J4" end="540" vehsPerHour="51.76105620838669" departLane="free"/>
  <flow id="JF12177" begin="480" fromJunction="J7" toJunction="J5" end="540" vehsPerHour="61.84412602589177" departLane="free"/>
  <flow id="JF12178" begin="480" fromJunction="J7" toJunction="J6" end="540" vehsPerHour="19.22624451163765" departLane="free"/>
  <flow id="JF12179" begin="480" fromJunction="J6" toJunction="J4" end="540" vehsPerHour="43.98310049160841" departLane="free"/>
  <flow id="JF12180" begin="480" fromJunction="J6" toJunction="J5" end="540" vehsPerHour="39.53525579680283" departLane="free"/>
  <flow id="JF12181" begin="480" fromJunction="J6" toJunction="J7" end="540" vehsPerHour="56.11629397773959" departLane="free"/>
  <flow id="JF12182" begin="480" fromJunction="J4" toJunction="J3" end="540" vehsPerHour="59.68418866176501" departLane="free"/>
  <flow id="JF12183" begin="480" fromJunction="J4" toJunction="J0" end="540" vehsPerHour="10.78687000333858" departLane="free"/>
  <flow id="JF12184" begin="480" fromJunction="J5" toJunction="J3" end="540" vehsPerHour="17.025381197778753" departLane="free"/>
  <flow id="JF12185" begin="480" fromJunction="J5" toJunction="J0" end="540" vehsPerHour="59.136780496298485" departLane="free"/>
  <flow id="JF12186" begin="480" fromJunction="J7" toJunction="J3" end="540" vehsPerHour="51.97835733457868" departLane="free"/>
  <flow id="JF12187" begin="480" fromJunction="J7" toJunction="J0" end="540" vehsPerHour="61.4268867186144" departLane="free"/>
  <flow id="JF12188" begin="480" fromJunction="J6" toJunction="J3" end="540" vehsPerHour="20.545318951976444" departLane="free"/>
  <flow id="JF12189" begin="480" fromJunction="J6" toJunction="J0" end="540" vehsPerHour="68.24938223822537" departLane="free"/>
  <flow id="JF12190" begin="540" fromJunction="J3" toJunction="J0" end="600" vehsPerHour="117.36123070862949" departLane="free"/>