<?xml version="1.0" encoding="UTF-8"?>
<routes xmlns:xsi="http://www.w3.org/2001/XMLSchema-instance" xsi:noNamespaceSchemaLocation="http://sumo.dlr.de/xsd/routes_file.xsd">
  <flow id="JF41130" begin="0" fromJunction="J0" toJunction="J12" end="360" vehsPerHour="3.6086767178582937" departLane="free" arrivalSpeed="0.0"/>
  <flow id="JF41131" begin="0" fromJunction="J0" toJunction="J13" end="360" vehsPerHour="28.033092483553823" departLane="free" arrivalSpeed="0.0"/>
  <flow id="JF41132" begin="0" fromJunction="J0" toJunction="J14" end="360" vehsPerHour="52.57656802644071" departLane="free" arrivalSpeed="0.0"/>
  <flow id="JF41133" begin="0" fromJunction="J0" toJunction="J15" end="360" vehsPerHour="66.83929731396972" departLane="free" arrivalSpeed="0.0"/>
  <flow id="JF41134" begin="0" fromJunction="J0" toJunction="J16" end="360" vehsPerHour="21.136263827382024" departLane="free" arrivalSpeed="0.0"/>
  <flow id="JF41135" begin="0" fromJunction="J0" toJunction="J3" end="360" vehsPerHour="39.174425867644715" departLane="free" arrivalSpeed="0.0"/>
  <flow id="JF41136" begin="0" fromJunction="J0" toJunction="J7" end="360" vehsPerHour="41.49266372858621" departLane="free" arrivalSpeed="0.0"/>
  <flow id="JF41137" begin="0" fromJunction="J0" toJunction="J8" end="360" vehsPerHour="54.93490791814057" departLane="free" arrivalSpeed="0.0"/>
  <flow id="JF41138" begin="0" fromJunction="J0" toJunction="J9" end="360" vehsPerHour="63.669222535041186" departLane="free" arrivalSpeed="0.0"/>
  <flow id="JF41139" begin="0" fromJunction="J12" toJunction="J0" end="360" vehsPerHour="25.886278227994104" departLane="free" arrivalSpeed="0.0"/>
  <flow id="JF41140" begin="0" fromJunction="J12" toJunction="J13" end="360" vehsPerHour="38.22317759281698" departLane="free" arrivalSpeed="0.0"/>
  <flow id="JF41141" begin="0" fromJunction="J12" toJunction="J15" end="360" vehsPerHour="28.586353142339995" departLane="free" arrivalSpeed="0.0"/>
  <flow id="JF41142" begin="0" fromJunction="J12" toJunction="J16" end="360" vehsPerHour="63.66752693226921" departLane="free" arrivalSpeed="0.0"/>
  <flow id="JF41143" begin="0" fromJunction="J12" toJunction="J3" end="360" vehsPerHour="67.66256384873049" departLane="free" arrivalSpeed="0.0"/>
  <flow id="JF41144" begin="0" fromJunction="J12" toJunction="J6" end="360" vehsPerHour="58.13568188248283" departLane="free" arrivalSpeed="0.0"/>
  <flow id="JF41145" begin="0" fromJunction="J12" toJunction="J7" end="360" vehsPerHour="30.731827845824178" departLane="free" arrivalSpeed="0.0"/>
  <flow id="JF41146" begin="0" fromJunction="J12" toJunction="J9" end="360" vehsPerHour="6.032162245401426" departLane="free" arrivalSpeed="0.0"/>
  <flow id="JF41147" begin="0" fromJunction="J13" toJunction="J0" end="360" vehsPerHour="2.5695218336873245" departLane="free" arrivalSpeed="0.0"/>
  <flow id="JF41148" begin="0" fromJunction="J13" toJunction="J12" end="360" vehsPerHour="18.747269536207238" departLane="free" arrivalSpeed="0.0"/>
  <flow id="JF41149" begin="0" fromJunction="J13" toJunction="J14" end="360" vehsPerHour="3.791366673678457" departLane="free" arrivalSpeed="0.0"/>
  <flow id="JF41150" begin="0" fromJunction="J13" toJunction="J15" end="360" vehsPerHour="7.6790602076543815" departLane="free" arrivalSpeed="0.0"/>
  <flow id="JF41151" begin="0" fromJunction="J13" toJunction="J16" end="360" vehsPerHour="1.2676650364175628" departLane="free" arrivalSpeed="0.0"/>
  <flow id="JF41152" begin="0" fromJunction="J13" toJunction="J3" end="360" vehsPerHour="45.48142180082246" departLane="free" arrivalSpeed="0.0"/>
  <flow id="JF41153" begin="0" fromJunction="J13" toJunction="J6" end="360" vehsPerHour="50.34105588996064" departLane="free" arrivalSpeed="0.0"/>
  <flow id="JF41154" begin="0" fromJunction="J13" toJunction="J7" end="360" vehsPerHour="59.93196229669835" departLane="free" arrivalSpeed="0.0"/>
  <flow id="JF41155" begin="0" fromJunction="J13" toJunction="J9" end="360" vehsPerHour="36.062286888436766" departLane="free" arrivalSpeed="0.0"/>
  <flow id="JF41156" begin="0" fromJunction="J14" toJunction="J0" end="360" vehsPerHour="49.4423613704899" departLane="free" arrivalSpeed="0.0"/>
  <flow id="JF41157" begin="0" fromJunction="J14" toJunction="J12" end="360" vehsPerHour="3.626717320890532" departLane="free" arrivalSpeed="0.0"/>
  <flow id="JF41158" begin="0" fromJunction="J14" toJunction="J13" end="360" vehsPerHour="33.04735730284712" departLane="free" arrivalSpeed="0.0"/>
  <flow id="JF41159" begin="0" fromJunction="J14" toJunction="J3" end="360" vehsPerHour="49.93587731821662" departLane="free" arrivalSpeed="0.0"/>
  <flow id="JF41160" begin="0" fromJunction="J14" toJunction="J6" end="360" vehsPerHour="45.303711599458545" departLane="free" arrivalSpeed="0.0"/>
  <flow id="JF41161" begin="0" fromJunction="J14" toJunction="J7" end="360" vehsPerHour="8.579694364184949" departLane="free" arrivalSpeed="0.0"/>
  <flow id="JF41162" begin="0" fromJunction="J14" toJunction="J8" end="360" vehsPerHour="3.5784629805632546" departLane="free" arrivalSpeed="0.0"/>
  <flow id="JF41163" begin="0" fromJunction="J14" toJunction="J9" end="360" vehsPerHour="24.26716170649692" departLane="free" arrivalSpeed="0.0"/>
  <flow id="JF41164" begin="0" fromJunction="J15" toJunction="J0" end="360" vehsPerHour="44.44242203979807" departLane="free" arrivalSpeed="0.0"/>
  <flow id="JF41165" begin="0" fromJunction="J15" toJunction="J12" end="360" vehsPerHour="9.45476009617932" departLane="free" arrivalSpeed="0.0"/>
  <flow id="JF41166" begin="0" fromJunction="J15" toJunction="J13" end="360" vehsPerHour="22.53169305818773" departLane="free" arrivalSpeed="0.0"/>
  <flow id="JF41167" begin="0" fromJunction="J15" toJunction="J14" end="360" vehsPerHour="54.7690472713369" departLane="free" arrivalSpeed="0.0"/>
  <flow id="JF41168" begin="0" fromJunction="J15" toJunction="J2" end="360" vehsPerHour="36.22417000405661" departLane="free" arrivalSpeed="0.0"/>
  <flow id="JF41169" begin="0" fromJunction="J15" toJunction="J3" end="360" vehsPerHour="28.584068096623735" departLane="free" arrivalSpeed="0.0"/>
  <flow id="JF41170" begin="0" fromJunction="J15" toJunction="J6" end="360" vehsPerHour="58.94066931864362" departLane="free" arrivalSpeed="0.0"/>
  <flow id="JF41171" begin="0" fromJunction="J15" toJunction="J7" end="360" vehsPerHour="61.11031282021942" departLane="free" arrivalSpeed="0.0"/>
  <flow id="JF41172" begin="0" fromJunction="J15" toJunction="J8" end="360" vehsPerHour="34.49093841446885" departLane="free" arrivalSpeed="0.0"/>
  <flow id="JF41173" begin="0" fromJunction="J15" toJunction="J9" end="360" vehsPerHour="1.8300332687691685" departLane="free" arrivalSpeed="0.0"/>
  <flow id="JF41174" begin="0" fromJunction="J16" toJunction="J12" end="360" vehsPerHour="105.53705596640962" departLane="free" arrivalSpeed="0.0"/>
  <flow id="JF41175" begin="0" fromJunction="J16" toJunction="J14" end="360" vehsPerHour="110.61491957949512" departLane="free" arrivalSpeed="0.0"/>
  <flow id="JF41176" begin="0" fromJunction="J16" toJunction="J15" end="360" vehsPerHour="9.676024107033514" departLane="free" arrivalSpeed="0.0"/>
  <flow id="JF41177" begin="0" fromJunction="J16" toJunction="J2" end="360" vehsPerHour="27.817376029351443" departLane="free" arrivalSpeed="0.0"/>
  <flow id="JF41178" begin="0" fromJunction="J16" toJunction="J3" end="360" vehsPerHour="80.83377345909727" departLane="free" arrivalSpeed="0.0"/>
  <flow id="JF41179" begin="0" fromJunction="J16" toJunction="J6" end="360" vehsPerHour="122.45821664745297" departLane="free" arrivalSpeed="0.0"/>
  <flow id="JF41180" begin="0" fromJunction="J16" toJunction="J7" end="360" vehsPerHour="17.246119648578112" departLane="free" arrivalSpeed="0.0"/>
  <flow id="JF41181" begin="0" fromJunction="J16" toJunction="J8" end="360" vehsPerHour="118.6270815078048" departLane="free" arrivalSpeed="0.0"/>
  <flow id="JF41182" begin="0" fromJunction="J16" toJunction="J9" end="360" vehsPerHour="119.44200903635782" departLane="free" arrivalSpeed="0.0"/>
  <flow id="JF41183" begin="0" fromJunction="J2" toJunction="J0" end="360" vehsPerHour="92.34968196029298" departLane="free" arrivalSpeed="0.0"/>
  <flow id="JF41184" begin="0" fromJunction="J2" toJunction="J13" end="360" vehsPerHour="31.36834554009992" departLane="free" arrivalSpeed="0.0"/>
  <flow id="JF41185" begin="0" fromJunction="J2" toJunction="J14" end="360" vehsPerHour="34.28569378400664" departLane="free" arrivalSpeed="0.0"/>
  <flow id="JF41186" begin="0" fromJunction="J2" toJunction="J15" end="360" vehsPerHour="77.0581566758038" departLane="free" arrivalSpeed="0.0"/>
  <flow id="JF41187" begin="0" fromJunction="J2" toJunction="J16" end="360" vehsPerHour="113.8154295355269" departLane="free" arrivalSpeed="0.0"/>
  <flow id="JF41188" begin="0" fromJunction="J2" toJunction="J3" end="360" vehsPerHour="38.237841070825596" departLane="free" arrivalSpeed="0.0"/>
  <flow id="JF41189" begin="0" fromJunction="J2" toJunction="J6" end="360" vehsPerHour="4.9861600078383095" departLane="free" arrivalSpeed="0.0"/>
  <flow id="JF41190" begin="0" fromJunction="J2" toJunction="J7" end="360" vehsPerHour="134.20198390549237" departLane="free" arrivalSpeed="0.0"/>
  <flow id="JF41191" begin="0" fromJunction="J2" toJunction="J9" end="360" vehsPerHour="25.367325804759027" departLane="free" arrivalSpeed="0.0"/>
  <flow id="JF41192" begin="0" fromJunction="J3" toJunction="J12" end="360" vehsPerHour="66.43285123320852" departLane="free" arrivalSpeed="0.0"/>
  <flow id="JF41193" begin="0" fromJunction="J3" toJunction="J13" end="360" vehsPerHour="6.296840249736588" departLane="free" arrivalSpeed="0.0"/>
  <flow id="JF41194" begin="0" fromJunction="J3" toJunction="J15" end="360" vehsPerHour="38.31117232981272" departLane="free" arrivalSpeed="0.0"/>
  <flow id="JF41195" begin="0" fromJunction="J3" toJunction="J16" end="360" vehsPerHour="19.720310447360397" departLane="free" arrivalSpeed="0.0"/>
  <flow id="JF41196" begin="0" fromJunction="J3" toJunction="J2" end="360" vehsPerHour="45.737659602268295" departLane="free" arrivalSpeed="0.0"/>
  <flow id="JF41197" begin="0" fromJunction="J3" toJunction="J6" end="360" vehsPerHour="58.57991146199659" departLane="free" arrivalSpeed="0.0"/>
  <flow id="JF41198" begin="0" fromJunction="J3" toJunction="J7" end="360" vehsPerHour="35.0102405655921" departLane="free" arrivalSpeed="0.0"/>
  <flow id="JF41199" begin="0" fromJunction="J3" toJunction="J9" end="360" vehsPerHour="35.41086223655545" departLane="free" arrivalSpeed="0.0"/>
  <flow id="JF41200" begin="0" fromJunction="J6" toJunction="J0" end="360" vehsPerHour="59.91581652206975" departLane="free" arrivalSpeed="0.0"/>
  <flow id="JF41201" begin="0" fromJunction="J6" toJunction="J12" end="360" vehsPerHour="46.87497027179802" departLane="free" arrivalSpeed="0.0"/>
  <flow id="JF41202" begin="0" fromJunction="J6" toJunction="J13" end="360" vehsPerHour="38.91514755836676" departLane="free" arrivalSpeed="0.0"/>
  <flow id="JF41203" begin="0" fromJunction="J6" toJunction="J14" end="360" vehsPerHour="31.807355617235036" departLane="free" arrivalSpeed="0.0"/>
  <flow id="JF41204" begin="0" fromJunction="J6" toJunction="J16" end="360" vehsPerHour="27.735610326894932" departLane="free" arrivalSpeed="0.0"/>
  <flow id="JF41205" begin="0" fromJunction="J6" toJunction="J2" end="360" vehsPerHour="29.962050947388548" departLane="free" arrivalSpeed="0.0"/>
  <flow id="JF41206" begin="0" fromJunction="J6" toJunction="J3" end="360" vehsPerHour="48.09804596514479" departLane="free" arrivalSpeed="0.0"/>
  <flow id="JF41207" begin="0" fromJunction="J6" toJunction="J7" end="360" vehsPerHour="2.9693888498402794" departLane="free" arrivalSpeed="0.0"/>
  <flow id="JF41208" begin="0" fromJunction="J6" toJunction="J8" end="360" vehsPerHour="32.42403892986745" departLane="free" arrivalSpeed="0.0"/>
  <flow id="JF41209" begin="0" fromJunction="J6" toJunction="J9" end="360" vehsPerHour="10.661563648191485" departLane="free" arrivalSpeed="0.0"/>
  <flow id="JF41210" begin="0" fromJunction="J7" toJunction="J0" end="360" vehsPerHour="23.129183840860637" departLane="free" arrivalSpeed="0.0"/>
  <flow id="JF41211" begin="0" fromJunction="J7" toJunction="J12" end="360" vehsPerHour="9.734424361014037" departLane="free" arrivalSpeed="0.0"/>
  <flow id="JF41212" begin="0" fromJunction="J7" toJunction="J13" end="360" vehsPerHour="47.28205096460441" departLane="free" arrivalSpeed="0.0"/>
  <flow id="JF41213" begin="0" fromJunction="J7" toJunction="J14" end="360" vehsPerHour="23.935688216011823" departLane="free" arrivalSpeed="0.0"/>
  <flow id="JF41214" begin="0" fromJunction="J7" toJunction="J3" end="360" vehsPerHour="37.46494044112209" departLane="free" arrivalSpeed="0.0"/>
  <flow id="JF41215" begin="0" fromJunction="J7" toJunction="J6" end="360" vehsPerHour="57.26770955961057" departLane="free" arrivalSpeed="0.0"/>
  <flow id="JF41216" begin="0" fromJunction="J7" toJunction="J8" end="360" vehsPerHour="24.605957621315024" departLane="free" arrivalSpeed="0.0"/>
  <flow id="JF41217" begin="0" fromJunction="J7" toJunction="J9" end="360" vehsPerHour="31.755884627556803" departLane="free" arrivalSpeed="0.0"/>
  <flow id="JF41218" begin="0" fromJunction="J8" toJunction="J0" end="360" vehsPerHour="14.03652714945943" departLane="free" arrivalSpeed="0.0"/>
  <flow id="JF41219" begin="0" fromJunction="J8" toJunction="J12" end="360" vehsPerHour="44.735989294112514" departLane="free" arrivalSpeed="0.0"/>
  <flow id="JF41220" begin="0" fromJunction="J8" toJunction="J13" end="360" vehsPerHour="45.90872842113787" departLane="free" arrivalSpeed="0.0"/>
  <flow id="JF41221" begin="0" fromJunction="J8" toJunction="J14" end="360" vehsPerHour="21.85996425052803" departLane="free" arrivalSpeed="0.0"/>
  <flow id="JF41222" begin="0" fromJunction="J8" toJunction="J15" end="360" vehsPerHour="14.142979082562414" departLane="free" arrivalSpeed="0.0"/>
  <flow id="JF41223" begin="0" fromJunction="J8" toJunction="J16" end="360" vehsPerHour="67.9061573979051" departLane="free" arrivalSpeed="0.0"/>
  <flow id="JF41224" begin="0" fromJunction="J8" toJunction="J3" end="360" vehsPerHour="41.609189253287454" departLane="free" arrivalSpeed="0.0"/>
  <flow id="JF41225" begin="0" fromJunction="J8" toJunction="J7" end="360" vehsPerHour="8.998088672969098" departLane="free" arrivalSpeed="0.0"/>
  <flow id="JF41226" begin="0" fromJunction="J9" toJunction="J13" end="360" vehsPerHour="50.949347764606806" departLane="free" arrivalSpeed="0.0"/>
  <flow id="JF41227" begin="0" fromJunction="J9" toJunction="J14" end="360" vehsPerHour="2.069402987763483" departLane="free" arrivalSpeed="0.0"/>
  <flow id="JF41228" begin="0" fromJunction="J9" toJunction="J15" end="360" vehsPerHour="20.570720668625675" departLane="free" arrivalSpeed="0.0"/>
  <flow id="JF41229" begin="0" fromJunction="J9" toJunction="J16" end="360" vehsPerHour="10.723684065464113" departLane="free" arrivalSpeed="0.0"/>
  <flow id="JF41230" begin="0" fromJunction="J9" toJunction="J2" end="360" vehsPerHour="12.140083607648217" departLane="free" arrivalSpeed="0.0"/>
  <flow id="JF41231" begin="0" fromJunction="J9" toJunction="J3" end="360" vehsPerHour="5.935310542730081" departLane="free" arrivalSpeed="0.0"/>
  <flow id="JF41232" begin="0" fromJunction="J9" toJunction="J6" end="360" vehsPerHour="39.992242935236064" departLane="free" arrivalSpeed="0.0"/>
  <flow id="JF41233" begin="360" fromJunction="J0" toJunction="J12" end="720" vehsPerHour="50.303937265070786" departLane="free" arrivalSpeed="0.0"/>
  <flow id="JF41234" begin="360" fromJunction="J0" toJunction="J13" end="720" vehsPerHour="16.604509728582627" departLane="free" arrivalSpeed="0.0"/>
  <flow id="JF41235" begin="360" fromJunction="J0" toJunction="J14" end="720" vehsPerHour="53.95847562549743" departLane="free" arrivalSpeed="0.0"/>
  <flow id="JF41236" begin="360" fromJunction="J0" toJunction="J15" end="720" vehsPerHour="58.710591990167906" departLane="free" arrivalSpeed="0.0"/>
  <flow id="JF41237" begin="360" fromJunction="J0" toJunction="J16" end="720" vehsPerHour="68.47417338663864" departLane="free" arrivalSpeed="0.0"/>
  <flow id="JF41238" begin="360" fromJunction="J0" toJunction="J2" end="720" vehsPerHour="2.2419514654712924" departLane="free" arrivalSpeed="0.0"/>
  <flow id="JF41239" begin="360" fromJunction="J0" toJunction="J3" end="720" vehsPerHour="48.97691079872428" departLane="free" arrivalSpeed="0.0"/>
  <flow id="JF41240" begin="360" fromJunction="J0" toJunction="J6" end="720" vehsPerHour="37.214277569854914" departLane="free" arrivalSpeed="0.0"/>
  <flow id="JF41241" begin="360" fromJunction="J0" toJunction="J7" end="720" vehsPerHour="0.7465249356011971" departLane="free" arrivalSpeed="0.0"/>
  <flow id="JF41242" begin="360" fromJunction="J0" toJunction="J8" end="720" vehsPerHour="30.01245674626159" departLane="free" arrivalSpeed="0.0"/>
  <flow id="JF41243" begin="360" fromJunction="J12" toJunction="J0" end="720" vehsPerHour="6.367908441041722" departLane="free" arrivalSpeed="0.0"/>
  <flow id="JF41244" begin="360" fromJunction="J12" toJunction="J14" end="720" vehsPerHour="50.18429343372042" departLane="free" arrivalSpeed="0.0"/>
  <flow id="JF41245" begin="360" fromJunction="J12" toJunction="J16" end="720" vehsPerHour="2.697326150537344" departLane="free" arrivalSpeed="0.0"/>
  <flow id="JF41246" begin="360" fromJunction="J12" toJunction="J8" end="720" vehsPerHour="30.059806640949056" departLane="free" arrivalSpeed="0.0"/>
  <flow id="JF41247" begin="360" fromJunction="J12" toJunction="J9" end="720" vehsPerHour="41.54059313115383" departLane="free" arrivalSpeed="0.0"/>
  <flow id="JF41248" begin="360" fromJunction="J13" toJunction="J0" end="720" vehsPerHour="62.86865763856071" departLane="free" arrivalSpeed="0.0"/>
  <flow id="JF41249" begin="360" fromJunction="J13" toJunction="J15" end="720" vehsPerHour="0.8523541455211356" departLane="free" arrivalSpeed="0.0"/>
  <flow id="JF41250" begin="360" fromJunction="J13" toJunction="J16" end="720" vehsPerHour="34.720156490839855" departLane="free" arrivalSpeed="0.0"/>
  <flow id="JF41251" begin="360" fromJunction="J13" toJunction="J2" end="720" vehsPerHour="55.85398052870705" departLane="free" arrivalSpeed="0.0"/>
  <flow id="JF41252" begin="360" fromJunction="J13" toJunction="J3" end="720" vehsPerHour="51.552661748589884" departLane="free" arrivalSpeed="0.0"/>
  <flow id="JF41253" begin="360" fromJunction="J13" toJunction="J6" end="720" vehsPerHour="24.246935297791964" departLane="free" arrivalSpeed="0.0"/>
  <flow id="JF41254" begin="360" fromJunction="J13" toJunction="J7" end="720" vehsPerHour="27.363020567498733" departLane="free" arrivalSpeed="0.0"/>
  <flow id="JF41255" begin="360" fromJunction="J13" toJunction="J8" end="720" vehsPerHour="41.74291046975306" departLane="free" arrivalSpeed="0.0"/>
  <flow id="JF41256" begin="360" fromJunction="J13" toJunction="J9" end="720" vehsPerHour="45.04208347838877" departLane="free" arrivalSpeed="0.0"/>
  <flow id="JF41257" begin="360" fromJunction="J14" toJunction="J12" end="720" vehsPerHour="19.043042078791572" departLane="free" arrivalSpeed="0.0"/>
  <flow id="JF41258" begin="360" fromJunction="J14" toJunction="J15" end="720" vehsPerHour="24.10656977496409" departLane="free" arrivalSpeed="0.0"/>
  <flow id="JF41259" begin="360" fromJunction="J14" toJunction="J2" end="720" vehsPerHour="38.068921797235475" departLane="free" arrivalSpeed="0.0"/>
  <flow id="JF41260" begin="360" fromJunction="J14" toJunction="J3" end="720" vehsPerHour="54.60736092906911" departLane="free" arrivalSpeed="0.0"/>
  <flow id="JF41261" begin="360" fromJunction="J14" toJunction="J6" end="720" vehsPerHour="51.86651211444442" departLane="free" arrivalSpeed="0.0"/>
  <flow id="JF41262" begin="360" fromJunction="J14" toJunction="J8" end="720" vehsPerHour="61.10976062627269" departLane="free" arrivalSpeed="0.0"/>
  <flow id="JF41263" begin="360" fromJunction="J15" toJunction="J0" end="720" vehsPerHour="40.37354145501741" departLane="free" arrivalSpeed="0.0"/>
  <flow id="JF41264" begin="360" fromJunction="J15" toJunction="J13" end="720" vehsPerHour="66.47617757441208" departLane="free" arrivalSpeed="0.0"/>
  <flow id="JF41265" begin="360" fromJunction="J15" toJunction="J14" end="720" vehsPerHour="35.78303489710404" departLane="free" arrivalSpeed="0.0"/>
  <flow id="JF41266" begin="360" fromJunction="J15" toJunction="J16" end="720" vehsPerHour="46.545730182874664" departLane="free" arrivalSpeed="0.0"/>
  <flow id="JF41267" begin="360" fromJunction="J15" toJunction="J3" end="720" vehsPerHour="41.15386527562212" departLane="free" arrivalSpeed="0.0"/>
  <flow id="JF41268" begin="360" fromJunction="J15" toJunction="J6" end="720" vehsPerHour="9.530204882402122" departLane="free" arrivalSpeed="0.0"/>
  <flow id="JF41269" begin="360" fromJunction="J15" toJunction="J8" end="720" vehsPerHour="22.674927477026266" departLane="free" arrivalSpeed="0.0"/>
  <flow id="JF41270" begin="360" fromJunction="J15" toJunction="J9" end="720" vehsPerHour="39.302603395342246" departLane="free" arrivalSpeed="0.0"/>
  <flow id="JF41271" begin="360" fromJunction="J16" toJunction="J0" end="720" vehsPerHour="48.54183265487408" departLane="free" arrivalSpeed="0.0"/>
  <flow id="JF41272" begin="360" fromJunction="J16" toJunction="J14" end="720" vehsPerHour="56.55867783725991" departLane="free" arrivalSpeed="0.0"/>
  <flow id="JF41273" begin="360" fromJunction="J16" toJunction="J15" end="720" vehsPerHour="89.76731149202863" departLane="free" arrivalSpeed="0.0"/>
  <flow id="JF41274" begin="360" fromJunction="J16" toJunction="J2" end="720" vehsPerHour="44.07897821424735" departLane="free" arrivalSpeed="0.0"/>
  <flow id="JF41275" begin="360" fromJunction="J16" toJunction="J3" end="720" vehsPerHour="106.57737051637136" departLane="free" arrivalSpeed="0.0"/>
  <flow id="JF41276" begin="360" fromJunction="J16" toJunction="J6" end="720" vehsPerHour="106.70181912064373" departLane="free" arrivalSpeed="0.0"/>
  <flow id="JF41277" begin="360" fromJunction="J16" toJunction="J8" end="720" vehsPerHour="122.9325465033756" departLane="free" arrivalSpeed="0.0"/>
  <flow id="JF41278" begin="360" fromJunction="J2" toJunction="J0" end="720" vehsPerHour="88.38155946208579" departLane="free" arrivalSpeed="0.0"/>
  <flow id="JF41279" begin="360" fromJunction="J2" toJunction="J12" end="720" vehsPerHour="44.21572110006601" departLane="free" arrivalSpeed="0.0"/>
  <flow id="JF41280" begin="360" fromJunction="J2" toJunction="J13" end="720" vehsPerHour="73.04089429602892" departLane="free" arrivalSpeed="0.0"/>
  <flow id="JF41281" begin="360" fromJunction="J2" toJunction="J16" end="720" vehsPerHour="44.711248338897704" departLane="free" arrivalSpeed="0.0"/>
  <flow id="JF41282" begin="360" fromJunction="J2" toJunction="J3" end="720" vehsPerHour="13.173433320770416" departLane="free" arrivalSpeed="0.0"/>
  <flow id="JF41283" begin="360" fromJunction="J2" toJunction="J6" end="720" vehsPerHour="25.66847977209991" departLane="free" arrivalSpeed="0.0"/>
  <flow id="JF41284" begin="360" fromJunction="J2" toJunction="J7" end="720" vehsPerHour="93.86516923161008" departLane="free" arrivalSpeed="0.0"/>
  <flow id="JF41285" begin="360" fromJunction="J3" toJunction="J0" end="720" vehsPerHour="41.502223638445564" departLane="free" arrivalSpeed="0.0"/>
  <flow id="JF41286" begin="360" fromJunction="J3" toJunction="J12" end="720" vehsPerHour="25.39397932708557" departLane="free" arrivalSpeed="0.0"/>
  <flow id="JF41287" begin="360" fromJunction="J3" toJunction="J13" end="720" vehsPerHour="33.17834444798073" departLane="free" arrivalSpeed="0.0"/>
  <flow id="JF41288" begin="360" fromJunction="J3" toJunction="J14" end="720" vehsPerHour="6.626002605090929" departLane="free" arrivalSpeed="0.0"/>
  <flow id="JF41289" begin="360" fromJunction="J3" toJunction="J15" end="720" vehsPerHour="34.66527181899207" departLane="free" arrivalSpeed="0.0"/>
  <flow id="JF41290" begin="360" fromJunction="J3" toJunction="J2" end="720" vehsPerHour="23.15881764771451" departLane="free" arrivalSpeed="0.0"/>
  <flow id="JF41291" begin="360" fromJunction="J3" toJunction="J6" end="720" vehsPerHour="26.30636429826918" departLane="free" arrivalSpeed="0.0"/>
  <flow id="JF41292" begin="360" fromJunction="J3" toJunction="J7" end="720" vehsPerHour="25.10334978967897" departLane="free" arrivalSpeed="0.0"/>
  <flow id="JF41293" begin="360" fromJunction="J6" toJunction="J0" end="720" vehsPerHour="62.204114456089194" departLane="free" arrivalSpeed="0.0"/>
  <flow id="JF41294" begin="360" fromJunction="J6" toJunction="J12" end="720" vehsPerHour="41.57580594377109" departLane="free" arrivalSpeed="0.0"/>
  <flow id="JF41295" begin="360" fromJunction="J6" toJunction="J13" end="720" vehsPerHour="3.2483830411180414" departLane="free" arrivalSpeed="0.0"/>
  <flow id="JF41296" begin="360" fromJunction="J6" toJunction="J14" end="720" vehsPerHour="41.41224396090101" departLane="free" arrivalSpeed="0.0"/>
  <flow id="JF41297" begin="360" fromJunction="J6" toJunction="J15" end="720" vehsPerHour="17.301099649928652" departLane="free" arrivalSpeed="0.0"/>
  <flow id="JF41298" begin="360" fromJunction="J6" toJunction="J3" end="720" vehsPerHour="18.442605616237422" departLane="free" arrivalSpeed="0.0"/>
  <flow id="JF41299" begin="360" fromJunction="J6" toJunction="J8" end="720" vehsPerHour="20.340784857203854" departLane="free" arrivalSpeed="0.0"/>
  <flow id="JF41300" begin="360" fromJunction="J6" toJunction="J9" end="720" vehsPerHour="19.370846554456083" departLane="free" arrivalSpeed="0.0"/>
  <flow id="JF41301" begin="360" fromJunction="J7" toJunction="J0" end="720" vehsPerHour="27.27411189599659" departLane="free" arrivalSpeed="0.0"/>
  <flow id="JF41302" begin="360" fromJunction="J7" toJunction="J12" end="720" vehsPerHour="61.61830314802803" departLane="free" arrivalSpeed="0.0"/>
  <flow id="JF41303" begin="360" fromJunction="J7" toJunction="J13" end="720" vehsPerHour="63.91368316073981" departLane="free" arrivalSpeed="0.0"/>
  <flow id="JF41304" begin="360" fromJunction="J7" toJunction="J14" end="720" vehsPerHour="8.766220705049687" departLane="free" arrivalSpeed="0.0"/>
  <flow id="JF41305" begin="360" fromJunction="J7" toJunction="J16" end="720" vehsPerHour="0.07371439151499813" departLane="free" arrivalSpeed="0.0"/>
  <flow id="JF41306" begin="360" fromJunction="J7" toJunction="J2" end="720" vehsPerHour="60.51360996127188" departLane="free" arrivalSpeed="0.0"/>
  <flow id="JF41307" begin="360" fromJunction="J7" toJunction="J3" end="720" vehsPerHour="46.99634340167402" departLane="free" arrivalSpeed="0.0"/>
  <flow id="JF41308" begin="360" fromJunction="J7" toJunction="J6" end="720" vehsPerHour="23.01100335032143" departLane="free" arrivalSpeed="0.0"/>
  <flow id="JF41309" begin="360" fromJunction="J7" toJunction="J8" end="720" vehsPerHour="25.52831016503026" departLane="free" arrivalSpeed="0.0"/>
  <flow id="JF41310" begin="360" fromJunction="J7" toJunction="J9" end="720" vehsPerHour="59.0720864160261" departLane="free" arrivalSpeed="0.0"/>
  <flow id="JF41311" begin="360" fromJunction="J8" toJunction="J0" end="720" vehsPerHour="36.31148448496157" departLane="free" arrivalSpeed="0.0"/>
  <flow id="JF41312" begin="360" fromJunction="J8" toJunction="J12" end="720" vehsPerHour="59.41172060438038" departLane="free" arrivalSpeed="0.0"/>
  <flow id="JF41313" begin="360" fromJunction="J8" toJunction="J13" end="720" vehsPerHour="5.294754382507152" departLane="free" arrivalSpeed="0.0"/>
  <flow id="JF41314" begin="360" fromJunction="J8" toJunction="J14" end="720" vehsPerHour="45.0048380689791" departLane="free" arrivalSpeed="0.0"/>
  <flow id="JF41315" begin="360" fromJunction="J8" toJunction="J15" end="720" vehsPerHour="65.24840758885827" departLane="free" arrivalSpeed="0.0"/>
  <flow id="JF41316" begin="360" fromJunction="J8" toJunction="J2" end="720" vehsPerHour="40.47257644717875" departLane="free" arrivalSpeed="0.0"/>
  <flow id="JF41317" begin="360" fromJunction="J8" toJunction="J9" end="720" vehsPerHour="52.95800948609089" departLane="free" arrivalSpeed="0.0"/>
  <flow id="JF41318" begin="360" fromJunction="J9" toJunction="J0" end="720" vehsPerHour="7.659847367512427" departLane="free" arrivalSpeed="0.0"/>
  <flow id="JF41319" begin="360" fromJunction="J9" toJunction="J12" end="720" vehsPerHour="9.478337078842996" departLane="free" arrivalSpeed="0.0"/>
  <flow id="JF41320" begin="360" fromJunction="J9" toJunction="J13" end="720" vehsPerHour="39.846885120577625" departLane="free" arrivalSpeed="0.0"/>
  <flow id="JF41321" begin="360" fromJunction="J9" toJunction="J14" end="720" vehsPerHour="11.19932932283553" departLane="free" arrivalSpeed="0.0"/>
  <flow id="JF41322" begin="360" fromJunction="J9" toJunction="J15" end="720" vehsPerHour="55.40916955335195" departLane="free" arrivalSpeed="0.0"/>
  <flow id="JF41323" begin="360" fromJunction="J9" toJunction="J16" end="720" vehsPerHour="59.43738023628229" departLane="free" arrivalSpeed="0.0"/>
  <flow id="JF41324" begin="360" fromJunction="J9" toJunction="J2" end="720" vehsPerHour="1.6087053257352966" departLane="free" arrivalSpeed="0.0"/>
  <flow id="JF41325" begin="360" fromJunction="J9" toJunction="J7" end="720" vehsPerHour="11.011153852030379" departLane="free" arrivalSpeed="0.0"/>
  <flow id="JF41326" begin="360" fromJunction="J9" toJunction="J8" end="720" vehsPerHour="1.407538608522041" departLane="free" arrivalSpeed="0.0"/>
  <flow id="JF41327" begin="720" fromJunction="J0" toJunction="J13" end="1080" vehsPerHour="10.290231391835105" departLane="free" arrivalSpeed="0.0"/>
  <flow id="JF41328" begin="720" fromJunction="J0" toJunction="J15" end="1080" vehsPerHour="22.547120795490482" departLane="free" arrivalSpeed="0.0"/>
  <flow id="JF41329" begin="720" fromJunction="J0" toJunction="J3" end="1080" vehsPerHour="29.195504373986868" departLane="free" arrivalSpeed="0.0"/>
  <flow id="JF41330" begin="720" fromJunction="J0" toJunction="J6" end="1080" vehsPerHour="26.03058781511589" departLane="free" arrivalSpeed="0.0"/>