<?xml version="1.0" encoding="UTF-8"?>
<routes xmlns:xsi="http://www.w3.org/2001/XMLSchema-instance" xsi:noNamespaceSchemaLocation="http://sumo.dlr.de/xsd/routes_file.xsd">
  <flow id="JF9711" begin="0" fromJunction="J0" toJunction="J3" end="360" vehsPerHour="5.52149698240781" departLane="free"/>
  <flow id="JF9712" begin="0" fromJunction="J0" toJunction="J4" end="360" vehsPerHour="17.73096329668866" departLane="free"/>
  <flow id="JF9713" begin="0" fromJunction="J0" toJunction="J6" end="360" vehsPerHour="83.49794571768143" departLane="free"/>
  <flow id="JF9714" begin="0" fromJunction="J3" toJunction="J4" end="360" vehsPerHour="36.258210317249855" departLane="free"/>
  <flow id="JF9715" begin="0" fromJunction="J3" toJunction="J5" end="360" vehsPerHour="16.858175307499888" departLane="free"/>
  <flow id="JF9716" begin="0" fromJunction="J3" toJunction="J7" end="360" vehsPerHour="102.88110171482028" departLane="free"/>
  <flow id="JF9717" begin="0" fromJunction="J4" toJunction="J0" end="360" vehsPerHour="1.6951040124131822" departLane="free"/>
  <flow id="JF9718" begin="0" fromJunction="J4" toJunction="J5" end="360" vehsPerHour="42.790165507882165" departLane="free"/>
  <flow id="JF9719" begin="0" fromJunction="J4" toJunction="J6" end="360" vehsPerHour="50.51227371805444" departLane="free"/>
  <flow id="JF9720" begin="0" fromJunction="J5" toJunction="J3" end="360" vehsPerHour="60.21693590230336" departLane="free"/>
  <flow id="JF9721" begin="0" fromJunction="J5" toJunction="J4" end="360" vehsPerHour="62.39144982886886" departLane="free"/>
  <flow id="JF9722" begin="0" fromJunction="J5" toJunction="J7" end="360" vehsPerHour="32.22248238600628" departLane="free"/>
  <flow id="JF9723" begin="0" fromJunction="J6" toJunction="J0" end="360" vehsPerHour="42.3676311457954" departLane="free"/>
  <flow id="JF9724" begin="0" fromJunction="J6" toJunction="J3" end="360" vehsPerHour="28.46961912254317" departLane="free"/>
  <flow id="JF9725" begin="0" fromJunction="J6" toJunction="J4" end="360" vehsPerHour="2.3423605386817696" departLane="free"/>
  <flow id="JF9726" begin="0" fromJunction="J6" toJunction="J5" end="360" vehsPerHour="46.82939547213267" departLane="free"/>
  <flow id="JF9727" begin="0" fromJunction="J6" toJunction="J7" end="360" vehsPerHour="19.3994517816172" departLane="free"/>
  <flow id="JF9728" begin="0" fromJunction="J7" toJunction="J0" end="360" vehsPerHour="28.485314172454313" departLane="free"/>
  <flow id="JF9729" begin="0" fromJunction="J7" toJunction="J3" end="360" vehsPerHour="0.6769688633174201" departLane="free"/>
  <flow id="JF9730" begin="0" fromJunction="J7" toJunction="J4" end="360" vehsPerHour="54.52118918720408" departLane="free"/>
  <flow id="JF9731" begin="0" fromJunction="J7" toJunction="J5" end="360" vehsPerHour="42.93385492863877" departLane="free"/>
  <flow id="JF9732" begin="0" fromJunction="J7" toJunction="J6" end="360" vehsPerHour="36.0072514037839" departLane="free"/>
  <flow id="JF9733" begin="360" fromJunction="J0" toJunction="J3" end="720" vehsPerHour="100.4178105943506" departLane="free"/>
  <flow id="JF9734" begin="360" fromJunction="J0" toJunction="J5" end="720" vehsPerHour="28.408961709427363" departLane="free"/>
  <flow id="JF9735" begin="360" fromJunction="J0" toJunction="J6" end="720" vehsPerHour="118.20194931319155" departLane="free"/>
  <flow id="JF9736" begin="360" fromJunction="J0" toJunction="J7" end="720" vehsPerHour="3.8683697176201854" departLane="free"/>
  <flow id="JF9737" begin="360" fromJunction="J3" toJunction="J0" end="720" vehsPerHour="111.89883802957935" departLane="free"/>
  <flow id="JF9738" begin="360" fromJunction="J3" toJunction="J4" end="720" vehsPerHour="123.08296636587839" departLane="free"/>
  <flow id="JF9739" begin="360" fromJunction="J3" toJunction="J5" end="720" vehsPerHour="54.693069190357654" departLane="free"/>
  <flow id="JF9740" begin="360" fromJunction="J3" toJunction="J6" end="720" vehsPerHour="19.382674022296168" departLane="free"/>
  <flow id="JF9741" begin="360" fromJunction="J4" toJunction="J0" end="720" vehsPerHour="1.9616259285778839" departLane="free"/>
  <flow id="JF9742" begin="360" fromJunction="J4" toJunction="J3" end="720" vehsPerHour="50.90436923932164" departLane="free"/>
  <flow id="JF9743" begin="360" fromJunction="J4" toJunction="J5" end="720" vehsPerHour="48.79396081883201" departLane="free"/>
  <flow id="JF9744" begin="360" fromJunction="J4" toJunction="J6" end="720" vehsPerHour="55.37661600244464" departLane="free"/>
  <flow id="JF9745" begin="360" fromJunction="J5" toJunction="J0" end="720" vehsPerHour="54.23482398708755" departLane="free"/>
  <flow id="JF9746" begin="360" fromJunction="J5" toJunction="J3" end="720" vehsPerHour="57.52900281450982" departLane="free"/>
  <flow id="JF9747" begin="360" fromJunction="J5" toJunction="J7" end="720" vehsPerHour="18.148613403147287" departLane="free"/>
  <flow id="JF9748" begin="360" fromJunction="J6" toJunction="J0" end="720" vehsPerHour="23.614012619167028" departLane="free"/>
  <flow id="JF9749" begin="360" fromJunction="J6" toJunction="J3" end="720" vehsPerHour="65.65498931041502" departLane="free"/>
  <flow id="JF9750" begin="360" fromJunction="J6" toJunction="J4" end="720" vehsPerHour="21.07677961337163" departLane="free"/>
  <flow id="JF9751" begin="360" fromJunction="J6" toJunction="J5" end="720" vehsPerHour="4.361179835072173" departLane="free"/>
  <flow id="JF9752" begin="360" fromJunction="J7" toJunction="J0" end="720" vehsPerHour="1.8402947880505236" departLane="free"/>
  <flow id="JF9753" begin="360" fromJunction="J7" toJunction="J3" end="720" vehsPerHour="51.408376992892826" departLane="free"/>
  <flow id="JF9754" begin="360" fromJunction="J7" toJunction="J4" end="720" vehsPerHour="50.29272330340164" departLane="free"/>
  <flow id="JF9755" begin="360" fromJunction="J7" toJunction="J5" end="720" vehsPerHour="50.19901636752452" departLane="free"/>
  <flow id="JF9756" begin="720" fromJunction="J0" toJunction="J4" end="1080" vehsPerHour="104.61746394602076" departLane="free"/>
  <flow id="JF9757" begin="720" fromJunction="J0" toJunction="J5" end="1080" vehsPerHour="109.61833684676613" departLane="free"/>
  <flow id="JF9758" begin="720" fromJunction="J0" toJunction="J6" end="1080" vehsPerHour="12.722080476525358" departLane="free"/>
  <flow id="JF9759" begin="720" fromJunction="J3" toJunction="J6" end="1080" vehsPerHour="74.79523600369397" departLane="free"/>
  <flow id="JF9760" begin="720" fromJunction="J3" toJunction="J7" end="1080" vehsPerHour="67.3077974761001" departLane="free"/>
  <flow id="JF9761" begin="720" fromJunction="J4" toJunction="J0" end="1080" vehsPerHour="3.343740583247642" departLane="free"/>
  <flow id="JF9762" begin="720" fromJunction="J4" toJunction="J3" end="1080" vehsPerHour="44.602227354783054" departLane="free"/>
  <flow id="JF9763" begin="720" fromJunction="J4" toJunction="J6" end="1080" vehsPerHour="62.17931706602776" departLane="free"/>
  <flow id="JF9764" begin="720" fromJunction="J5" toJunction="J0" end="1080" vehsPerHour="20.10416809716911" departLane="free"/>
  <flow id="JF9765" begin="720" fromJunction="J5" toJunction="J3" end="1080" vehsPerHour="47.42952956500808" departLane="free"/>
  <flow id="JF9766" begin="720" fromJunction="J5" toJunction="J6" end="1080" vehsPerHour="22.570184254302454" departLane="free"/>
  <flow id="JF9767" begin="720" fromJunction="J5" toJunction="J7" end="1080" vehsPerHour="42.2836693366118" departLane="free"/>
  <flow id="JF9768" begin="720" fromJunction="J6" toJunction="J0" end="1080" vehsPerHour="17.543954633824047" departLane="free"/>
  <flow id="JF9769" begin="720" fromJunction="J6" toJunction="J4" end="1080" vehsPerHour="1.6950986642934025" departLane="free"/>
  <flow id="JF9770" begin="720" fromJunction="J7" toJunction="J4" end="1080" vehsPerHour="46.556256215544465" departLane="free"/>
  <flow id="JF9771" begin="720" fromJunction="J7" toJunction="J5" end="1080" vehsPerHour="36.94979089913205" departLane="free"/>
  <flow id="JF9772" begin="1080" fromJunction="J0" toJunction="J6" end="1440" vehsPerHour="82.30105147313428" departLane="free"/>
  <flow id="JF9773" begin="1080" fromJunction="J0" toJunction="J7" end="1440" vehsPerHour="88.28688565735162" departLane="free"/>
  <flow id="JF9774" begin="1080" fromJunction="J3" toJunction="J0" end="1440" vehsPerHour="6.447360762073963" departLane="free"/>
  <flow id="JF9775" begin="1080" fromJunction="J3" toJunction="J4" end="1440" vehsPerHour="73.95424426029022" departLane="free"/>
  <flow id="JF9776" begin="1080" fromJunction="J3" toJunction="J7" end="1440" vehsPerHour="125.00327292927561" departLane="free"/>
  <flow id="JF9777" begin="1080" fromJunction="J4" toJunction="J0" end="1440" vehsPerHour="22.488202436258366" departLane="free"/>
  <flow id="JF9778" begin="1080" fromJunction="J4" toJunction="J6" end="1440" vehsPerHour="65.18145232835701" departLane="free"/>
  <flow id="JF9779" begin="1080" fromJunction="J5" toJunction="J4" end="1440" vehsPerHour="37.36870693740206" departLane="free"/>
  <flow id="JF9780" begin="1080" fromJunction="J5" toJunction="J6" end="1440" vehsPerHour="12.01335895377072" departLane="free"/>
  <flow id="JF9781" begin="1080" fromJunction="J5" toJunction="J7" end="1440" vehsPerHour="34.182880330940826" departLane="free"/>
  <flow id="JF9782" begin="1080" fromJunction="J6" toJunction="J0" end="1440" vehsPerHour="66.08898638617013" departLane="free"/>
  <flow id="JF9783" begin="1080" fromJunction="J6" toJunction="J3" end="1440" vehsPerHour="54.25042335509653" departLane="free"/>
  <flow id="JF9784" begin="1080" fromJunction="J6" toJunction="J4" end="1440" vehsPerHour="15.84400121535983" departLane="free"/>
  <flow id="JF9785" begin="1080" fromJunction="J6" toJunction="J5" end="1440" vehsPerHour="56.29146226155359" departLane="free"/>
  <flow id="JF9786" begin="1080" fromJunction="J6" toJunction="J7" end="1440" vehsPerHour="54.560815836135255" departLane="free"/>
  <flow id="JF9787" begin="1080" fromJunction="J7" toJunction="J0" end="1440" vehsPerHour="37.19814642996285" departLane="free"/>
  <flow id="JF9788" begin="1080" fromJunction="J7" toJunction="J3" end="1440" vehsPerHour="36.239462662331825" departLane="free"/>
  <flow id="JF9789" begin="1080" fromJunction="J7" toJunction="J5" end="1440" vehsPerHour="25.31505243898584" departLane="free"/>
  <flow id="JF9790" begin="1440" fromJunction="J0" toJunction="J3" end="1800" vehsPerHour="77.07050600672034" departLane="free"/>
  <flow id="JF9791" begin="1440" fromJunction="J0" toJunction="J4" end="1800" vehsPerHour="116.38134415371071" departLane="free"/>
  <flow id="JF9792" begin="1440" fromJunction="J0" toJunction="J6" end="1800" vehsPerHour="1.5517704213032775" departLane="free"/>
  <flow id="JF9793" begin="1440" fromJunction="J0" toJunction="J7" end="1800" vehsPerHour="19.888357012962846" departLane="free"/>
  <flow id="JF9794" begin="1440" fromJunction="J3" toJunction="J4" end="1800" vehsPerHour="96.64960599201311" departLane="free"/>
  <flow id="JF9795" begin="1440" fromJunction="J3" toJunction="J5" end="1800" vehsPerHour="109.27173161363912" departLane="free"/>
  <flow id="JF9796" begin="1440" fromJunction="J3" toJunction="J6" end="1800" vehsPerHour="37.584854397919116" departLane="free"/>
  <flow id="JF9797" begin="1440" fromJunction="J4" toJunction="J0" end="1800" vehsPerHour="54.896713078339076" departLane="free"/>
  <flow id="JF9798" begin="1440" fromJunction="J4" toJunction="J5" end="1800" vehsPerHour="3.081537517142794" departLane="free"/>
  <flow id="JF9799" begin="1440" fromJunction="J4" toJunction="J6" end="1800" vehsPerHour="14.947268934069697" departLane="free"/>
  <flow id="JF9800" begin="1440" fromJunction="J4" toJunction="J7" end="1800" vehsPerHour="2.7125364533722274" departLane="free"/>
  <flow id="JF9801" begin="1440" fromJunction="J5" toJunction="J0" end="1800" vehsPerHour="22.755037466637738" departLane="free"/>
  <flow id="JF9802" begin="1440" fromJunction="J5" toJunction="J4" end="1800" vehsPerHour="56.92023601056362" departLane="free"/>
  <flow id="JF9803" begin="1440" fromJunction="J6" toJunction="J3" end="1800" vehsPerHour="1.298804187587955" departLane="free"/>
  <flow id="JF9804" begin="1440" fromJunction="J6" toJunction="J5" end="1800" vehsPerHour="63.494840446067016" departLane="free"/>
  <flow id="JF9805" begin="1440" fromJunction="J6" toJunction="J7" end="1800" vehsPerHour="62.46030671208415" departLane="free"/>
  <flow id="JF9806" begin="1440" fromJunction="J7" toJunction="J0" end="1800" vehsPerHour="44.27990341070578" departLane="free"/>
  <flow id="JF9807" begin="1440" fromJunction="J7" toJunction="J3" end="1800" vehsPerHour="6.043873310977084" departLane="free"/>
  <flow id="JF9808" begin="1440" fromJunction="J7" toJunction="J6" end="1800" vehsPerHour="46.312311125352615" departLane="free"/>
  <flow id="JF9809" begin="1800" fromJunction="J0" toJunction="J3" end="2160" vehsPerHour="66.87568174198714" departLane="free"/>
  <flow id="JF9810" begin="1800" fromJunction="J0" toJunction="J5" end="2160" vehsPerHour="20.13049696258572" departLane="free"/>
  <flow id="JF9811" begin="1800" fromJunction="J0" toJunction="J7" end="2160" vehsPerHour="116.71417172529463" departLane="free"/>
  <flow id="JF9812" begin="1800" fromJunction="J3" toJunction="J0" end="2160" vehsPerHour="11.74446615861298" departLane="free"/>
  <flow id="JF9813" begin="1800" fromJunction="J3" toJunction="J5" end="2160" vehsPerHour="17.565474495751427" departLane="free"/>
  <flow id="JF9814" begin="1800" fromJunction="J3" toJunction="J6" end="2160" vehsPerHour="91.34952640894302" departLane="free"/>
  <flow id="JF9815" begin="1800" fromJunction="J4" toJunction="J0" end="2160" vehsPerHour="60.4184575680245" departLane="free"/>
  <flow id="JF9816" begin="1800" fromJunction="J4" toJunction="J5" end="2160" vehsPerHour="12.065217360884365" departLane="free"/>
  <flow id="JF9817" begin="1800" fromJunction="J4" toJunction="J6" end="2160" vehsPerHour="18.959764915079383" departLane="free"/>
  <flow id="JF9818" begin="1800" fromJunction="J5" toJunction="J0" end="2160" vehsPerHour="1.4104320882142474" departLane="free"/>
  <flow id="JF9819" begin="1800" fromJunction="J5" toJunction="J3" end="2160" vehsPerHour="55.18917493933544" departLane="free"/>
  <flow id="JF9820" begin="1800" fromJunction="J5" toJunction="J4" end="2160" vehsPerHour="62.414686731925464" departLane="free"/>
  <flow id="JF9821" begin="1800" fromJunction="J5" toJunction="J6" end="2160" vehsPerHour="47.67836192328613" departLane="free"/>
  <flow id="JF9822" begin="1800" fromJunction="J5" toJunction="J7" end="2160" vehsPerHour="2.388776854304245" departLane="free"/>
  <flow id="JF9823" begin="1800" fromJunction="J6" toJunction="J0" end="2160" vehsPerHour="21.184735649854424" departLane="free"/>
  <flow id="JF9824" begin="1800" fromJunction="J6" toJunction="J3" end="2160" vehsPerHour="6.880367520620143" departLane="free"/>
  <flow id="JF9825" begin="1800" fromJunction="J6" toJunction="J5" end="2160" vehsPerHour="10.01926844190549" departLane="free"/>
  <flow id="JF9826" begin="1800" fromJunction="J6" toJunction="J7" end="2160" vehsPerHour="39.92992359188354" departLane="free"/>
  <flow id="JF9827" begin="1800" fromJunction="J7" toJunction="J3" end="2160" vehsPerHour="24.328943688579997" departLane="free"/>
  <flow id="JF9828" begin="1800" fromJunction="J7" toJunction="J4" end="2160" vehsPerHour="34.840741326294435" departLane="free"/>
  <flow id="JF9829" begin="1800" fromJunction="J7" toJunction="J5" end="2160" vehsPerHour="41.591506728940544" departLane="free"/>
  <flow id="JF9830" begin="1800" fromJunction="J7" toJunction="J6" end="2160" vehsPerHour="57.96589282670705" departLane="free"/>
  <flow id="JF9831" begin="2160" fromJunction="J0" toJunction="J4" end="2520" vehsPerHour="102.85934288978581" departLane="free"/>
  <flow id="JF9832" begin="2160" fromJunction="J0" toJunction="J5" end="2520" vehsPerHour="134.31915290486327" departLane="free"/>
  <flow id="JF9833" begin="2160" fromJunction="J0" toJunction="J7" end="2520" vehsPerHour="134.89955308165543" departLane="free"/>
  <flow id="JF9834" begin="2160" fromJunction="J3" toJunction="J4" end="2520" vehsPerHour="78.89480965054624" departLane="free"/>
  <flow id="JF9835" begin="2160" fromJunction="J3" toJunction="J5" end="2520" vehsPerHour="38.97400636335187" departLane="free"/>
  <flow id="JF9836" begin="2160" fromJunction="J3" toJunction="J6" end="2520" vehsPerHour="1.3377398538596748" departLane="free"/>
  <flow id="JF9837" begin="2160" fromJunction="J3" toJunction="J7" end="2520" vehsPerHour="54.506118014546615" departLane="free"/>
  <flow id="JF9838" begin="2160" fromJunction="J4" toJunction="J0" end="2520" vehsPerHour="32.58624729195787" departLane="free"/>
  <flow id="JF9839" begin="2160" fromJunction="J4" toJunction="J6" end="2520" vehsPerHour="59.59742504628159" departLane="free"/>
  <flow id="JF9840" begin="2160" fromJunction="J5" toJunction="J0" end="2520" vehsPerHour="43.296705732303614" departLane="free"/>
  <flow id="JF9841" begin="2160" fromJunction="J5" toJunction="J4" end="2520" vehsPerHour="32.35536543698467" departLane="free"/>
  <flow id="JF9842" begin="2160" fromJunction="J5" toJunction="J6" end="2520" vehsPerHour="47.192168929236146" departLane="free"/>
  <flow id="JF9843" begin="2160" fromJunction="J5" toJunction="J7" end="2520" vehsPerHour="42.86714726121938" departLane="free"/>
  <flow id="JF9844" begin="2160" fromJunction="J6" toJunction="J0" end="2520" vehsPerHour="12.451160116405472" departLane="free"/>
  <flow id="JF9845" begin="2160" fromJunction="J6" toJunction="J3" end="2520" vehsPerHour="34.54715129217271" departLane="free"/>
  <flow id="JF9846" begin="2160" fromJunction="J6" toJunction="J4" end="2520" vehsPerHour="55.3347917681594" departLane="free"/>
  <flow id="JF9847" begin="2160" fromJunction="J6" toJunction="J5" end="2520" vehsPerHour="48.18108078205213" departLane="free"/>
  <flow id="JF9848" begin="2160" fromJunction="J7" toJunction="J0" end="2520" vehsPerHour="35.754487296183434" departLane="free"/>
  <flow id="JF9849" begin="2160" fromJunction="J7" toJunction="J5" end="2520" vehsPerHour="63.340589677782226" departLane="free"/>
  <flow id="JF9850" begin="2520" fromJunction="J0" toJunction="J3" end="2880" vehsPerHour="76.22585309684412" departLane="free"/>
  <flow id="JF9851" begin="2520" fromJunction="J0" toJunction="J4" end="2880" vehsPerHour="19.15424306355083" departLane="free"/>
  <flow id="JF9852" begin="2520" fromJunction="J0" toJunction="J6" end="2880" vehsPerHour="77.65418605721034" departLane="free"/>
  <flow id="JF9853" begin="2520" fromJunction="J0" toJunction="J7" end="2880" vehsPerHour="16.726512790265303" departLane="free"/>
  <flow id="JF9854" begin="2520" fromJunction="J3" toJunction="J4" end="2880" vehsPerHour="116.43515078816239" departLane="free"/>
  <flow id="JF9855" begin="2520" fromJunction="J3" toJunction="J7" end="2880" vehsPerHour="94.5851465188603" departLane="free"/>
  <flow id="JF9856" begin="2520" fromJunction="J4" toJunction="J3" end="2880" vehsPerHour="45.539289202065795" departLane="free"/>
  <flow id="JF9857" begin="2520" fromJunction="J4" toJunction="J5" end="2880" vehsPerHour="60.23394390146653" departLane="free"/>
  <flow id="JF9858" begin="2520" fromJunction="J4" toJunction="J6" end="2880" vehsPerHour="24.508953055786712" departLane="free"/>
  <flow id="JF9859" begin="2520" fromJunction="J4" toJunction="J7" end="2880" vehsPerHour="65.86698538914476" departLane="free"/>
  <flow id="JF9860" begin="2520" fromJunction="J5" toJunction="J3" end="2880" vehsPerHour="50.93480360947013" departLane="free"/>
  <flow id="JF9861" begin="2520" fromJunction="J5" toJunction="J4" end="2880" vehsPerHour="29.519467963610893" departLane="free"/>
  <flow id="JF9862" begin="2520" fromJunction="J6" toJunction="J3" end="2880" vehsPerHour="24.44201628914809" departLane="free"/>
  <flow id="JF9863" begin="2520" fromJunction="J6" toJunction="J4" end="2880" vehsPerHour="35.25355049945219" departLane="free"/>
  <flow id="JF9864" begin="2520" fromJunction="J6" toJunction="J5" end="2880" vehsPerHour="61.238118278640414" departLane="free"/>
  <flow id="JF9865" begin="2520" fromJunction="J7" toJunction="J0" end="2880" vehsPerHour="39.12231824031778" departLane="free"/>
  <flow id="JF9866" begin="2520" fromJunction="J7" toJunction="J3" end="2880" vehsPerHour="61.015161934789916" departLane="free"/>
  <flow id="JF9867" begin="2520" fromJunction="J7" toJunction="J4" end="2880" vehsPerHour="57.46551080185459" departLane="free"/>
  <flow id="JF9868" begin="2520" fromJunction="J7" toJunction="J5" end="2880" vehsPerHour="36.43471037246658" departLane="free"/>
  <flow id="JF9869" begin="2520" fromJunction="J7" toJunction="J6" end="2880" vehsPerHour="59.310319024936256" departLane="free"/>
  <flow id="JF9870" begin="2880" fromJunction="J0" toJunction="J5" end="3240" vehsPerHour="63.6216884023536" departLane="free"/>
  <flow id="JF9871" begin="2880" fromJunction="J3" toJunction="J0" end="3240" vehsPerHour="1.8485506496382533" departLane="free"/>
  <flow id="JF9872" begin="2880" fromJunction="J3" toJunction="J5" end="3240" vehsPerHour="92.2503084721328" departLane="free"/>
  <flow id="JF9873" begin="2880" fromJunction="J3" toJunction="J6" end="3240" vehsPerHour="8.882673497073824" departLane="free"/>
  <flow id="JF9874" begin="2880" fromJunction="J3" toJunction="J7" end="3240" vehsPerHour="32.893549791352655" departLane="free"/>
  <flow id="JF9875" begin="2880" fromJunction="J4" toJunction="J0" end="3240" vehsPerHour="16.089266988409154" departLane="free"/>
  <flow id="JF9876" begin="2880" fromJunction="J4" toJunction="J3" end="3240" vehsPerHour="18.02214479156611" departLane="free"/>
  <flow id="JF9877" begin="2880" fromJunction="J4" toJunction="J5" end="3240" vehsPerHour="61.917931964126005" departLane="free"/>
  <flow id="JF9878" begin="2880" fromJunction="J4" toJunction="J6" end="3240" vehsPerHour="58.00571286559666" departLane="free"/>
  <flow id="JF9879" begin="2880" fromJunction="J4" toJunction="J7" end="3240" vehsPerHour="32.573616417754614" departLane="free"/>
  <flow id="JF9880" begin="2880" fromJunction="J5" toJunction="J0" end="3240" vehsPerHour="55.6518727223338" departLane="free"/>
  <flow id="JF9881" begin="2880" fromJunction="J5" toJunction="J4" end="3240" vehsPerHour="24.856987937813745" departLane="free"/>
  <flow id="JF9882" begin="2880" fromJunction="J6" toJunction="J0" end="3240" vehsPerHour="15.422691808302744" departLane="free"/>
  <flow id="JF9883" begin="2880" fromJunction="J6" toJunction="J3" end="3240" vehsPerHour="48.549768937090576" departLane="free"/>
  <flow id="JF9884" begin="2880" fromJunction="J6" toJunction="J4" end="3240" vehsPerHour="6.424528804093035" departLane="free"/>
  <flow id="JF9885" begin="2880" fromJunction="J6" toJunction="J5" end="3240" vehsPerHour="19.230881305600054" departLane="free"/>
  <flow id="JF9886" begin="2880" fromJunction="J6" toJunction="J7" end="3240" vehsPerHour="18.33927426514059" departLane="free"/>
  <flow id="JF9887" begin="2880" fromJunction="J7" toJunction="J3" end="3240" vehsPerHour="19.923732356636346" departLane="free"/>
  <flow id="JF9888" begin="2880" fromJunction="J7" toJunction="J4" end="3240" vehsPerHour="44.3157893770729" departLane="free"/>
  <flow id="JF9889" begin="2880" fromJunction="J7" toJunction="J5" end="3240" vehsPerHour="41.77202044013031" departLane="free"/>
  <flow id="JF9890" begin="2880" fromJunction="J7" toJunction="J6" end="3240" vehsPerHour="49.23213541717402" departLane="free"/>
  <flow id="JF9891" begin="3240" fromJunction="J0" toJunction="J3" end="3600" vehsPerHour="102.1825216428205" departLane="free"/>
  <flow id="JF9892" begin="3240" fromJunction="J0" toJunction="J6" end="3600" vehsPerHour="64.4862675706602" departLane="free"/>
  <flow id="JF9893" begin="3240" fromJunction="J0" toJunction="J7" end="3600" vehsPerHour="19.4526991641456" departLane="free"/>
  <flow id="JF9894" begin="3240" fromJunction="J3" toJunction="J0" end="3600" vehsPerHour="93.61607917464691" departLane="free"/>
  <flow id="JF9895" begin="3240" fromJunction="J3" toJunction="J4" end="3600" vehsPerHour="12.215735375545282" departLane="free"/>
  <flow id="JF9896" begin="3240" fromJunction="J3" toJunction="J5" end="3600" vehsPerHour="89.44049856732819" departLane="free"/>
  <flow id="JF9897" begin="3240" fromJunction="J3" toJunction="J7" end="3600" vehsPerHour="116.62565329908611" departLane="free"/>
  <flow id="JF9898" begin="3240" fromJunction="J4" toJunction="J0" end="3600" vehsPerHour="24.017891060256822" departLane="free"/>
  <flow id="JF9899" begin="3240" fromJunction="J4" toJunction="J3" end="3600" vehsPerHour="5.754996240567956" departLane="free"/>
  <flow id="JF9900" begin="3240" fromJunction="J4" toJunction="J5" end="3600" vehsPerHour="30.061880965563727" departLane="free"/>
  <flow id="JF9901" begin="3240" fromJunction="J5" toJunction="J4" end="3600" vehsPerHour="1.8813032455521557" departLane="free"/>
  <flow id="JF9902" begin="3240" fromJunction="J5" toJunction="J6" end="3600" vehsPerHour="48.68818253307678" departLane="free"/>
  <flow id="JF9903" begin="3240" fromJunction="J5" toJunction="J7" end="3600" vehsPerHour="43.67831964189667" departLane="free"/>
  <flow id="JF9904" begin="3240" fromJunction="J6" toJunction="J0" end="3600" vehsPerHour="24.248444526715964" departLane="free"/>
  <flow id="JF9905" begin="3240" fromJunction="J6" toJunction="J4" end="3600" vehsPerHour="29.816330715879726" departLane="free"/>
  <flow id="JF9906" begin="3240" fromJunction="J6" toJunction="J5" end="3600" vehsPerHour="44.58328896314682" departLane="free"/>
  <flow id="JF9907" begin="3240" fromJunction="J6" toJunction="J7" end="3600" vehsPerHour="67.22483159881172" departLane="free"/>
  <flow id="JF9908" begin="3240" fromJunction="J7" toJunction="J0" end="3600" vehsPerHour="66.94105349920947" departLane="free"/>
  <flow id="JF9909" begin="3240" fromJunction="J7" toJunction="J4" end="3600" vehsPerHour="42.65946598991823" departLane="free"/>
  <flow id="JF9910" begin="3600" fromJunction="J0" toJunction="J3" end="3960" vehsPerHour="104.62009316381047" departLane="free"/>
  <flow id="JF9911" begin="3600" fromJunction="J0" toJunction="J4" end="3960" vehsPerHour="83.18681663721397" departLane="free"/>
  <flow id="JF9912" begin="3600" fromJunction="J0" toJunction="J5" end="3960" vehsPerHour="30.54665414365881" departLane="free"/>
  <flow id="JF9913" begin="3600" fromJunction="J0" toJunction="J7" end="3960" vehsPerHour="8.098857312158874" departLane="free"/>
  <flow id="JF9914" begin="3600" fromJunction="J3" toJunction="J4" end="3960" vehsPerHour="98.54660163944159" departLane="free"/>
  <flow id="JF9915" begin="3600" fromJunction="J3" toJunction="J5" end="3960" vehsPerHour="89.30014324955359" departLane="free"/>
  <flow id="JF9916" begin="3600" fromJunction="J3" toJunction="J6" end="3960" vehsPerHour="39.804742889026755" departLane="free"/>
  <flow id="JF9917" begin="3600" fromJunction="J3" toJunction="J7" end="3960" vehsPerHour="134.73445170637973" departLane="free"/>
  <flow id="JF9918" begin="3600" fromJunction="J4" toJunction="J3" end="3960" vehsPerHour="12.097225313319322" departLane="free"/>
  <flow id="JF9919" begin="3600" fromJunction="J4" toJunction="J6" end="3960" vehsPerHour="42.18751176856944" departLane="free"/>
  <flow id="JF9920" begin="3600" fromJunction="J4" toJunction="J7" end="3960" vehsPerHour="51.42373309704623" departLane="free"/>
  <flow id="JF9921" begin="3600" fromJunction="J5" toJunction="J3" end="3960" vehsPerHour="25.137031493216465" departLane="free"/>
  <flow id="JF9922" begin="3600" fromJunction="J5" toJunction="J4" end="3960" vehsPerHour="64.97564643709985" departLane="free"/>
  <flow id="JF9923" begin="3600" fromJunction="J5" toJunction="J7" end="3960" vehsPerHour="10.030467731462107" departLane="free"/>
  <flow id="JF9924" begin="3600" fromJunction="J6" toJunction="J0" end="3960" vehsPerHour="4.102053287674275" departLane="free"/>
  <flow id="JF9925" begin="3600" fromJunction="J6" toJunction="J7" end="3960" vehsPerHour="62.414415522351526" departLane="free"/>
  <flow id="JF9926" begin="3600" fromJunction="J7" toJunction="J0" end="3960" vehsPerHour="22.55436189871729" departLane="free"/>
  <flow id="JF9927" begin="3600" fromJunction="J7" toJunction="J3" end="3960" vehsPerHour="10.19528061881557" departLane="free"/>
  <flow id="JF9928" begin="3600" fromJunction="J7" toJunction="J4" end="3960" vehsPerHour="27.61740177629401" departLane="free"/>
  <flow id="JF9929" begin="3600" fromJunction="J7" toJunction="J5" end="3960" vehsPerHour="5.465043505904809" departLane="free"/>
  <flow id="JF9930" begin="3960" fromJunction="J0" toJunction="J4" end="4320" vehsPerHour="37.29396362668618" departLane="free"/>
  <flow id="JF9931" begin="3960" fromJunction="J0" toJunction="J5" end="4320" vehsPerHour="3.1531742867127366" departLane="free"/>
  <flow id="JF9932" begin="3960" fromJunction="J0" toJunction="J6" end="4320" vehsPerHour="96.25498269301586" departLane="free"/>
  <flow id="JF9933" begin="3960" fromJunction="J0" toJunction="J7" end="4320" vehsPerHour="47.63373614565527" departLane="free"/>
  <flow id="JF9934" begin="3960" fromJunction="J3" toJunction="J0" end="4320" vehsPerHour="131.84293208572146" departLane="free"/>
  <flow id="JF9935" begin="3960" fromJunction="J3" toJunction="J4" end="4320" vehsPerHour="98.91170138477138" departLane="free"/>
  <flow id="JF9936" begin="3960" fromJunction="J3" toJunction="J6" end="4320" vehsPerHour="41.01862747876133" departLane="free"/>
  <flow id="JF9937" begin="3960" fromJunction="J4" toJunction="J3" end="4320" vehsPerHour="44.3077208686402" departLane="free"/>
  <flow id="JF9938" begin="3960" fromJunction="J4" toJunction="J5" end="4320" vehsPerHour="49.1922567569891" departLane="free"/>
  <flow id="JF9939" begin="3960" fromJunction="J4" toJunction="J6" end="4320" vehsPerHour="45.37151550725586" departLane="free"/>