<?xml version="1.0" encoding="UTF-8"?>
<routes xmlns:xsi="http://www.w3.org/2001/XMLSchema-instance" xsi:noNamespaceSchemaLocation="http://sumo.dlr.de/xsd/routes_file.xsd">
  <flow id="JF57108" begin="0" fromJunction="J0" toJunction="J12" end="360" vehsPerHour="7.098259515420936" departLane="free" arrivalSpeed="0.0"/>
  <flow id="JF57109" begin="0" fromJunction="J0" toJunction="J14" end="360" vehsPerHour="22.365376524727225" departLane="free" arrivalSpeed="0.0"/>
  <flow id="JF57110" begin="0" fromJunction="J0" toJunction="J15" end="360" vehsPerHour="16.991844265327156" departLane="free" arrivalSpeed="0.0"/>
  <flow id="JF57111" begin="0" fromJunction="J0" toJunction="J16" end="360" vehsPerHour="47.36212510724285" departLane="free" arrivalSpeed="0.0"/>
  <flow id="JF57112" begin="0" fromJunction="J0" toJunction="J2" end="360" vehsPerHour="52.13291853251041" departLane="free" arrivalSpeed="0.0"/>
  <flow id="JF57113" begin="0" fromJunction="J0" toJunction="J3" end="360" vehsPerHour="15.06261608780774" departLane="free" arrivalSpeed="0.0"/>
  <flow id="JF57114" begin="0" fromJunction="J0" toJunction="J6" end="360" vehsPerHour="15.332656081187535" departLane="free" arrivalSpeed="0.0"/>
  <flow id="JF57115" begin="0" fromJunction="J0" toJunction="J9" end="360" vehsPerHour="8.59641725626321" departLane="free" arrivalSpeed="0.0"/>
  <flow id="JF57116" begin="0" fromJunction="J12" toJunction="J0" end="360" vehsPerHour="27.746053018132322" departLane="free" arrivalSpeed="0.0"/>
  <flow id="JF57117" begin="0" fromJunction="J12" toJunction="J13" end="360" vehsPerHour="21.243186262647203" departLane="free" arrivalSpeed="0.0"/>
  <flow id="JF57118" begin="0" fromJunction="J12" toJunction="J15" end="360" vehsPerHour="38.97365351480959" departLane="free" arrivalSpeed="0.0"/>
  <flow id="JF57119" begin="0" fromJunction="J12" toJunction="J16" end="360" vehsPerHour="44.00938225380896" departLane="free" arrivalSpeed="0.0"/>
  <flow id="JF57120" begin="0" fromJunction="J12" toJunction="J2" end="360" vehsPerHour="2.954975797865171" departLane="free" arrivalSpeed="0.0"/>
  <flow id="JF57121" begin="0" fromJunction="J12" toJunction="J3" end="360" vehsPerHour="32.6016674124465" departLane="free" arrivalSpeed="0.0"/>
  <flow id="JF57122" begin="0" fromJunction="J12" toJunction="J6" end="360" vehsPerHour="12.357958220807868" departLane="free" arrivalSpeed="0.0"/>
  <flow id="JF57123" begin="0" fromJunction="J12" toJunction="J8" end="360" vehsPerHour="47.078081262287576" departLane="free" arrivalSpeed="0.0"/>
  <flow id="JF57124" begin="0" fromJunction="J13" toJunction="J0" end="360" vehsPerHour="13.183956652760083" departLane="free" arrivalSpeed="0.0"/>
  <flow id="JF57125" begin="0" fromJunction="J13" toJunction="J12" end="360" vehsPerHour="59.802142809771745" departLane="free" arrivalSpeed="0.0"/>
  <flow id="JF57126" begin="0" fromJunction="J13" toJunction="J14" end="360" vehsPerHour="8.808462697136202" departLane="free" arrivalSpeed="0.0"/>
  <flow id="JF57127" begin="0" fromJunction="J13" toJunction="J15" end="360" vehsPerHour="9.945312357099976" departLane="free" arrivalSpeed="0.0"/>
  <flow id="JF57128" begin="0" fromJunction="J13" toJunction="J16" end="360" vehsPerHour="21.90427646410013" departLane="free" arrivalSpeed="0.0"/>
  <flow id="JF57129" begin="0" fromJunction="J13" toJunction="J7" end="360" vehsPerHour="31.204885397786608" departLane="free" arrivalSpeed="0.0"/>
  <flow id="JF57130" begin="0" fromJunction="J13" toJunction="J8" end="360" vehsPerHour="25.97685958587524" departLane="free" arrivalSpeed="0.0"/>
  <flow id="JF57131" begin="0" fromJunction="J14" toJunction="J0" end="360" vehsPerHour="8.164184909656798" departLane="free" arrivalSpeed="0.0"/>
  <flow id="JF57132" begin="0" fromJunction="J14" toJunction="J13" end="360" vehsPerHour="55.28172721576751" departLane="free" arrivalSpeed="0.0"/>
  <flow id="JF57133" begin="0" fromJunction="J14" toJunction="J15" end="360" vehsPerHour="67.93365497028694" departLane="free" arrivalSpeed="0.0"/>
  <flow id="JF57134" begin="0" fromJunction="J14" toJunction="J3" end="360" vehsPerHour="55.646853193126276" departLane="free" arrivalSpeed="0.0"/>
  <flow id="JF57135" begin="0" fromJunction="J14" toJunction="J6" end="360" vehsPerHour="1.4163265170101822" departLane="free" arrivalSpeed="0.0"/>
  <flow id="JF57136" begin="0" fromJunction="J14" toJunction="J7" end="360" vehsPerHour="22.817716877382654" departLane="free" arrivalSpeed="0.0"/>
  <flow id="JF57137" begin="0" fromJunction="J14" toJunction="J8" end="360" vehsPerHour="25.301042699909097" departLane="free" arrivalSpeed="0.0"/>
  <flow id="JF57138" begin="0" fromJunction="J15" toJunction="J0" end="360" vehsPerHour="20.944558011053424" departLane="free" arrivalSpeed="0.0"/>
  <flow id="JF57139" begin="0" fromJunction="J15" toJunction="J12" end="360" vehsPerHour="48.02726258822596" departLane="free" arrivalSpeed="0.0"/>
  <flow id="JF57140" begin="0" fromJunction="J15" toJunction="J13" end="360" vehsPerHour="65.87514674682023" departLane="free" arrivalSpeed="0.0"/>
  <flow id="JF57141" begin="0" fromJunction="J15" toJunction="J14" end="360" vehsPerHour="13.412295989475247" departLane="free" arrivalSpeed="0.0"/>
  <flow id="JF57142" begin="0" fromJunction="J15" toJunction="J16" end="360" vehsPerHour="32.989084485400056" departLane="free" arrivalSpeed="0.0"/>
  <flow id="JF57143" begin="0" fromJunction="J15" toJunction="J2" end="360" vehsPerHour="30.62204648019726" departLane="free" arrivalSpeed="0.0"/>
  <flow id="JF57144" begin="0" fromJunction="J15" toJunction="J3" end="360" vehsPerHour="11.384135371970673" departLane="free" arrivalSpeed="0.0"/>
  <flow id="JF57145" begin="0" fromJunction="J15" toJunction="J7" end="360" vehsPerHour="50.93091139432021" departLane="free" arrivalSpeed="0.0"/>
  <flow id="JF57146" begin="0" fromJunction="J15" toJunction="J8" end="360" vehsPerHour="44.61229280368571" departLane="free" arrivalSpeed="0.0"/>
  <flow id="JF57147" begin="0" fromJunction="J16" toJunction="J12" end="360" vehsPerHour="28.106266957422953" departLane="free" arrivalSpeed="0.0"/>
  <flow id="JF57148" begin="0" fromJunction="J16" toJunction="J15" end="360" vehsPerHour="119.23096783223393" departLane="free" arrivalSpeed="0.0"/>
  <flow id="JF57149" begin="0" fromJunction="J16" toJunction="J2" end="360" vehsPerHour="134.87346531555963" departLane="free" arrivalSpeed="0.0"/>
  <flow id="JF57150" begin="0" fromJunction="J16" toJunction="J3" end="360" vehsPerHour="33.70511914404209" departLane="free" arrivalSpeed="0.0"/>
  <flow id="JF57151" begin="0" fromJunction="J16" toJunction="J6" end="360" vehsPerHour="128.9801698820998" departLane="free" arrivalSpeed="0.0"/>
  <flow id="JF57152" begin="0" fromJunction="J16" toJunction="J7" end="360" vehsPerHour="106.75807822665475" departLane="free" arrivalSpeed="0.0"/>
  <flow id="JF57153" begin="0" fromJunction="J16" toJunction="J8" end="360" vehsPerHour="26.62151443143162" departLane="free" arrivalSpeed="0.0"/>
  <flow id="JF57154" begin="0" fromJunction="J16" toJunction="J9" end="360" vehsPerHour="97.86651038635723" departLane="free" arrivalSpeed="0.0"/>
  <flow id="JF57155" begin="0" fromJunction="J2" toJunction="J0" end="360" vehsPerHour="94.13419289430355" departLane="free" arrivalSpeed="0.0"/>
  <flow id="JF57156" begin="0" fromJunction="J2" toJunction="J12" end="360" vehsPerHour="107.3556169103154" departLane="free" arrivalSpeed="0.0"/>
  <flow id="JF57157" begin="0" fromJunction="J2" toJunction="J14" end="360" vehsPerHour="86.04298305358878" departLane="free" arrivalSpeed="0.0"/>
  <flow id="JF57158" begin="0" fromJunction="J2" toJunction="J15" end="360" vehsPerHour="77.60927661967746" departLane="free" arrivalSpeed="0.0"/>
  <flow id="JF57159" begin="0" fromJunction="J2" toJunction="J16" end="360" vehsPerHour="32.57836655468721" departLane="free" arrivalSpeed="0.0"/>
  <flow id="JF57160" begin="0" fromJunction="J2" toJunction="J3" end="360" vehsPerHour="2.158874079161682" departLane="free" arrivalSpeed="0.0"/>
  <flow id="JF57161" begin="0" fromJunction="J2" toJunction="J6" end="360" vehsPerHour="40.421282483397235" departLane="free" arrivalSpeed="0.0"/>
  <flow id="JF57162" begin="0" fromJunction="J2" toJunction="J7" end="360" vehsPerHour="60.8212170839967" departLane="free" arrivalSpeed="0.0"/>
  <flow id="JF57163" begin="0" fromJunction="J2" toJunction="J8" end="360" vehsPerHour="105.1429896752762" departLane="free" arrivalSpeed="0.0"/>
  <flow id="JF57164" begin="0" fromJunction="J2" toJunction="J9" end="360" vehsPerHour="112.62561684561265" departLane="free" arrivalSpeed="0.0"/>
  <flow id="JF57165" begin="0" fromJunction="J3" toJunction="J12" end="360" vehsPerHour="26.255983424249745" departLane="free" arrivalSpeed="0.0"/>
  <flow id="JF57166" begin="0" fromJunction="J3" toJunction="J13" end="360" vehsPerHour="33.48397627403057" departLane="free" arrivalSpeed="0.0"/>
  <flow id="JF57167" begin="0" fromJunction="J3" toJunction="J15" end="360" vehsPerHour="61.99704883457242" departLane="free" arrivalSpeed="0.0"/>
  <flow id="JF57168" begin="0" fromJunction="J3" toJunction="J16" end="360" vehsPerHour="29.6740223152922" departLane="free" arrivalSpeed="0.0"/>
  <flow id="JF57169" begin="0" fromJunction="J3" toJunction="J6" end="360" vehsPerHour="37.943709951713295" departLane="free" arrivalSpeed="0.0"/>
  <flow id="JF57170" begin="0" fromJunction="J3" toJunction="J7" end="360" vehsPerHour="46.68517294047154" departLane="free" arrivalSpeed="0.0"/>
  <flow id="JF57171" begin="0" fromJunction="J6" toJunction="J0" end="360" vehsPerHour="29.097972451434387" departLane="free" arrivalSpeed="0.0"/>
  <flow id="JF57172" begin="0" fromJunction="J6" toJunction="J12" end="360" vehsPerHour="19.027087820756407" departLane="free" arrivalSpeed="0.0"/>
  <flow id="JF57173" begin="0" fromJunction="J6" toJunction="J16" end="360" vehsPerHour="38.636321735546986" departLane="free" arrivalSpeed="0.0"/>
  <flow id="JF57174" begin="0" fromJunction="J6" toJunction="J2" end="360" vehsPerHour="10.249522517978075" departLane="free" arrivalSpeed="0.0"/>
  <flow id="JF57175" begin="0" fromJunction="J6" toJunction="J3" end="360" vehsPerHour="38.88537923146716" departLane="free" arrivalSpeed="0.0"/>
  <flow id="JF57176" begin="0" fromJunction="J6" toJunction="J7" end="360" vehsPerHour="64.6955685314256" departLane="free" arrivalSpeed="0.0"/>
  <flow id="JF57177" begin="0" fromJunction="J6" toJunction="J8" end="360" vehsPerHour="58.291757746343464" departLane="free" arrivalSpeed="0.0"/>
  <flow id="JF57178" begin="0" fromJunction="J7" toJunction="J0" end="360" vehsPerHour="11.341683140323124" departLane="free" arrivalSpeed="0.0"/>
  <flow id="JF57179" begin="0" fromJunction="J7" toJunction="J12" end="360" vehsPerHour="8.387260209556901" departLane="free" arrivalSpeed="0.0"/>
  <flow id="JF57180" begin="0" fromJunction="J7" toJunction="J15" end="360" vehsPerHour="45.0169833015013" departLane="free" arrivalSpeed="0.0"/>
  <flow id="JF57181" begin="0" fromJunction="J7" toJunction="J16" end="360" vehsPerHour="42.34634058467558" departLane="free" arrivalSpeed="0.0"/>
  <flow id="JF57182" begin="0" fromJunction="J7" toJunction="J2" end="360" vehsPerHour="43.50814026921824" departLane="free" arrivalSpeed="0.0"/>
  <flow id="JF57183" begin="0" fromJunction="J7" toJunction="J3" end="360" vehsPerHour="52.112993016399614" departLane="free" arrivalSpeed="0.0"/>
  <flow id="JF57184" begin="0" fromJunction="J7" toJunction="J6" end="360" vehsPerHour="49.6140505702426" departLane="free" arrivalSpeed="0.0"/>
  <flow id="JF57185" begin="0" fromJunction="J7" toJunction="J8" end="360" vehsPerHour="40.978838120097215" departLane="free" arrivalSpeed="0.0"/>
  <flow id="JF57186" begin="0" fromJunction="J7" toJunction="J9" end="360" vehsPerHour="4.833879357819284" departLane="free" arrivalSpeed="0.0"/>
  <flow id="JF57187" begin="0" fromJunction="J8" toJunction="J12" end="360" vehsPerHour="62.55931182334339" departLane="free" arrivalSpeed="0.0"/>
  <flow id="JF57188" begin="0" fromJunction="J8" toJunction="J13" end="360" vehsPerHour="65.64237603977199" departLane="free" arrivalSpeed="0.0"/>
  <flow id="JF57189" begin="0" fromJunction="J8" toJunction="J14" end="360" vehsPerHour="40.332087914119775" departLane="free" arrivalSpeed="0.0"/>
  <flow id="JF57190" begin="0" fromJunction="J8" toJunction="J15" end="360" vehsPerHour="56.55896942720383" departLane="free" arrivalSpeed="0.0"/>
  <flow id="JF57191" begin="0" fromJunction="J8" toJunction="J16" end="360" vehsPerHour="36.771429187074325" departLane="free" arrivalSpeed="0.0"/>
  <flow id="JF57192" begin="0" fromJunction="J8" toJunction="J2" end="360" vehsPerHour="65.13027789635377" departLane="free" arrivalSpeed="0.0"/>
  <flow id="JF57193" begin="0" fromJunction="J8" toJunction="J6" end="360" vehsPerHour="22.572324213372816" departLane="free" arrivalSpeed="0.0"/>
  <flow id="JF57194" begin="0" fromJunction="J8" toJunction="J7" end="360" vehsPerHour="43.34076044467196" departLane="free" arrivalSpeed="0.0"/>
  <flow id="JF57195" begin="0" fromJunction="J9" toJunction="J0" end="360" vehsPerHour="0.11983089421713573" departLane="free" arrivalSpeed="0.0"/>
  <flow id="JF57196" begin="0" fromJunction="J9" toJunction="J13" end="360" vehsPerHour="37.85706358716663" departLane="free" arrivalSpeed="0.0"/>
  <flow id="JF57197" begin="0" fromJunction="J9" toJunction="J16" end="360" vehsPerHour="1.1287389670428627" departLane="free" arrivalSpeed="0.0"/>
  <flow id="JF57198" begin="0" fromJunction="J9" toJunction="J2" end="360" vehsPerHour="24.289080540506546" departLane="free" arrivalSpeed="0.0"/>
  <flow id="JF57199" begin="0" fromJunction="J9" toJunction="J3" end="360" vehsPerHour="32.957764160546965" departLane="free" arrivalSpeed="0.0"/>
  <flow id="JF57200" begin="0" fromJunction="J9" toJunction="J6" end="360" vehsPerHour="59.029154144023714" departLane="free" arrivalSpeed="0.0"/>
  <flow id="JF57201" begin="0" fromJunction="J9" toJunction="J7" end="360" vehsPerHour="59.305713988547446" departLane="free" arrivalSpeed="0.0"/>
  <flow id="JF57202" begin="360" fromJunction="J0" toJunction="J12" end="720" vehsPerHour="25.223697606078552" departLane="free" arrivalSpeed="0.0"/>
  <flow id="JF57203" begin="360" fromJunction="J0" toJunction="J13" end="720" vehsPerHour="35.10895405401341" departLane="free" arrivalSpeed="0.0"/>
  <flow id="JF57204" begin="360" fromJunction="J0" toJunction="J14" end="720" vehsPerHour="64.74371968800185" departLane="free" arrivalSpeed="0.0"/>
  <flow id="JF57205" begin="360" fromJunction="J0" toJunction="J15" end="720" vehsPerHour="19.050430014724697" departLane="free" arrivalSpeed="0.0"/>
  <flow id="JF57206" begin="360" fromJunction="J0" toJunction="J16" end="720" vehsPerHour="59.74297996735159" departLane="free" arrivalSpeed="0.0"/>
  <flow id="JF57207" begin="360" fromJunction="J0" toJunction="J2" end="720" vehsPerHour="7.483166524832604" departLane="free" arrivalSpeed="0.0"/>
  <flow id="JF57208" begin="360" fromJunction="J0" toJunction="J3" end="720" vehsPerHour="64.13042830717411" departLane="free" arrivalSpeed="0.0"/>
  <flow id="JF57209" begin="360" fromJunction="J0" toJunction="J6" end="720" vehsPerHour="3.7137067392467715" departLane="free" arrivalSpeed="0.0"/>
  <flow id="JF57210" begin="360" fromJunction="J0" toJunction="J7" end="720" vehsPerHour="24.747757436705818" departLane="free" arrivalSpeed="0.0"/>
  <flow id="JF57211" begin="360" fromJunction="J0" toJunction="J8" end="720" vehsPerHour="44.58407232160197" departLane="free" arrivalSpeed="0.0"/>
  <flow id="JF57212" begin="360" fromJunction="J0" toJunction="J9" end="720" vehsPerHour="54.18133351590635" departLane="free" arrivalSpeed="0.0"/>
  <flow id="JF57213" begin="360" fromJunction="J12" toJunction="J0" end="720" vehsPerHour="49.397617420902606" departLane="free" arrivalSpeed="0.0"/>
  <flow id="JF57214" begin="360" fromJunction="J12" toJunction="J13" end="720" vehsPerHour="46.28010861945684" departLane="free" arrivalSpeed="0.0"/>
  <flow id="JF57215" begin="360" fromJunction="J12" toJunction="J14" end="720" vehsPerHour="32.76520767467991" departLane="free" arrivalSpeed="0.0"/>
  <flow id="JF57216" begin="360" fromJunction="J12" toJunction="J15" end="720" vehsPerHour="35.99658108102112" departLane="free" arrivalSpeed="0.0"/>
  <flow id="JF57217" begin="360" fromJunction="J12" toJunction="J2" end="720" vehsPerHour="23.74152704691589" departLane="free" arrivalSpeed="0.0"/>
  <flow id="JF57218" begin="360" fromJunction="J12" toJunction="J8" end="720" vehsPerHour="10.67158388364445" departLane="free" arrivalSpeed="0.0"/>
  <flow id="JF57219" begin="360" fromJunction="J12" toJunction="J9" end="720" vehsPerHour="28.533565207512343" departLane="free" arrivalSpeed="0.0"/>
  <flow id="JF57220" begin="360" fromJunction="J13" toJunction="J12" end="720" vehsPerHour="36.05780754675002" departLane="free" arrivalSpeed="0.0"/>
  <flow id="JF57221" begin="360" fromJunction="J13" toJunction="J14" end="720" vehsPerHour="3.5610208387529445" departLane="free" arrivalSpeed="0.0"/>
  <flow id="JF57222" begin="360" fromJunction="J13" toJunction="J16" end="720" vehsPerHour="34.850942603837645" departLane="free" arrivalSpeed="0.0"/>
  <flow id="JF57223" begin="360" fromJunction="J13" toJunction="J2" end="720" vehsPerHour="45.33877600811026" departLane="free" arrivalSpeed="0.0"/>
  <flow id="JF57224" begin="360" fromJunction="J13" toJunction="J3" end="720" vehsPerHour="32.25387527401997" departLane="free" arrivalSpeed="0.0"/>
  <flow id="JF57225" begin="360" fromJunction="J13" toJunction="J6" end="720" vehsPerHour="58.63786423173138" departLane="free" arrivalSpeed="0.0"/>
  <flow id="JF57226" begin="360" fromJunction="J13" toJunction="J7" end="720" vehsPerHour="36.949811031188034" departLane="free" arrivalSpeed="0.0"/>
  <flow id="JF57227" begin="360" fromJunction="J13" toJunction="J8" end="720" vehsPerHour="56.396201459731515" departLane="free" arrivalSpeed="0.0"/>
  <flow id="JF57228" begin="360" fromJunction="J13" toJunction="J9" end="720" vehsPerHour="19.548933612953114" departLane="free" arrivalSpeed="0.0"/>
  <flow id="JF57229" begin="360" fromJunction="J14" toJunction="J13" end="720" vehsPerHour="26.283537507734223" departLane="free" arrivalSpeed="0.0"/>
  <flow id="JF57230" begin="360" fromJunction="J14" toJunction="J16" end="720" vehsPerHour="45.74203383396588" departLane="free" arrivalSpeed="0.0"/>
  <flow id="JF57231" begin="360" fromJunction="J14" toJunction="J2" end="720" vehsPerHour="37.71164645023395" departLane="free" arrivalSpeed="0.0"/>
  <flow id="JF57232" begin="360" fromJunction="J14" toJunction="J6" end="720" vehsPerHour="44.09065802406976" departLane="free" arrivalSpeed="0.0"/>
  <flow id="JF57233" begin="360" fromJunction="J14" toJunction="J7" end="720" vehsPerHour="68.09536423542406" departLane="free" arrivalSpeed="0.0"/>
  <flow id="JF57234" begin="360" fromJunction="J14" toJunction="J8" end="720" vehsPerHour="62.03063686044769" departLane="free" arrivalSpeed="0.0"/>
  <flow id="JF57235" begin="360" fromJunction="J14" toJunction="J9" end="720" vehsPerHour="31.65897002139705" departLane="free" arrivalSpeed="0.0"/>
  <flow id="JF57236" begin="360" fromJunction="J15" toJunction="J0" end="720" vehsPerHour="30.89344936829541" departLane="free" arrivalSpeed="0.0"/>
  <flow id="JF57237" begin="360" fromJunction="J15" toJunction="J12" end="720" vehsPerHour="13.094957066167984" departLane="free" arrivalSpeed="0.0"/>
  <flow id="JF57238" begin="360" fromJunction="J15" toJunction="J13" end="720" vehsPerHour="49.366539736259995" departLane="free" arrivalSpeed="0.0"/>
  <flow id="JF57239" begin="360" fromJunction="J15" toJunction="J16" end="720" vehsPerHour="53.983807996777436" departLane="free" arrivalSpeed="0.0"/>
  <flow id="JF57240" begin="360" fromJunction="J15" toJunction="J3" end="720" vehsPerHour="60.64376369440561" departLane="free" arrivalSpeed="0.0"/>
  <flow id="JF57241" begin="360" fromJunction="J15" toJunction="J6" end="720" vehsPerHour="59.874259145601904" departLane="free" arrivalSpeed="0.0"/>
  <flow id="JF57242" begin="360" fromJunction="J15" toJunction="J7" end="720" vehsPerHour="24.71358529596083" departLane="free" arrivalSpeed="0.0"/>
  <flow id="JF57243" begin="360" fromJunction="J15" toJunction="J8" end="720" vehsPerHour="40.072722972930315" departLane="free" arrivalSpeed="0.0"/>
  <flow id="JF57244" begin="360" fromJunction="J15" toJunction="J9" end="720" vehsPerHour="10.2966293748978" departLane="free" arrivalSpeed="0.0"/>
  <flow id="JF57245" begin="360" fromJunction="J16" toJunction="J0" end="720" vehsPerHour="62.65576145232173" departLane="free" arrivalSpeed="0.0"/>
  <flow id="JF57246" begin="360" fromJunction="J16" toJunction="J13" end="720" vehsPerHour="89.67860676138059" departLane="free" arrivalSpeed="0.0"/>
  <flow id="JF57247" begin="360" fromJunction="J16" toJunction="J15" end="720" vehsPerHour="101.00677517758143" departLane="free" arrivalSpeed="0.0"/>
  <flow id="JF57248" begin="360" fromJunction="J16" toJunction="J2" end="720" vehsPerHour="15.288673167832307" departLane="free" arrivalSpeed="0.0"/>
  <flow id="JF57249" begin="360" fromJunction="J16" toJunction="J6" end="720" vehsPerHour="3.00545881036423" departLane="free" arrivalSpeed="0.0"/>
  <flow id="JF57250" begin="360" fromJunction="J16" toJunction="J7" end="720" vehsPerHour="11.394461949437828" departLane="free" arrivalSpeed="0.0"/>
  <flow id="JF57251" begin="360" fromJunction="J16" toJunction="J9" end="720" vehsPerHour="91.4977866461917" departLane="free" arrivalSpeed="0.0"/>
  <flow id="JF57252" begin="360" fromJunction="J2" toJunction="J0" end="720" vehsPerHour="21.928137251792094" departLane="free" arrivalSpeed="0.0"/>
  <flow id="JF57253" begin="360" fromJunction="J2" toJunction="J12" end="720" vehsPerHour="12.259872043397575" departLane="free" arrivalSpeed="0.0"/>
  <flow id="JF57254" begin="360" fromJunction="J2" toJunction="J13" end="720" vehsPerHour="97.14629915559705" departLane="free" arrivalSpeed="0.0"/>
  <flow id="JF57255" begin="360" fromJunction="J2" toJunction="J15" end="720" vehsPerHour="129.6833943916532" departLane="free" arrivalSpeed="0.0"/>
  <flow id="JF57256" begin="360" fromJunction="J2" toJunction="J16" end="720" vehsPerHour="33.43884977810138" departLane="free" arrivalSpeed="0.0"/>
  <flow id="JF57257" begin="360" fromJunction="J2" toJunction="J3" end="720" vehsPerHour="81.05701510219818" departLane="free" arrivalSpeed="0.0"/>
  <flow id="JF57258" begin="360" fromJunction="J2" toJunction="J6" end="720" vehsPerHour="39.52250656192721" departLane="free" arrivalSpeed="0.0"/>
  <flow id="JF57259" begin="360" fromJunction="J2" toJunction="J7" end="720" vehsPerHour="50.88359408205056" departLane="free" arrivalSpeed="0.0"/>
  <flow id="JF57260" begin="360" fromJunction="J2" toJunction="J9" end="720" vehsPerHour="70.48556399962392" departLane="free" arrivalSpeed="0.0"/>
  <flow id="JF57261" begin="360" fromJunction="J3" toJunction="J0" end="720" vehsPerHour="64.22245105466006" departLane="free" arrivalSpeed="0.0"/>
  <flow id="JF57262" begin="360" fromJunction="J3" toJunction="J12" end="720" vehsPerHour="48.2951660025835" departLane="free" arrivalSpeed="0.0"/>
  <flow id="JF57263" begin="360" fromJunction="J3" toJunction="J15" end="720" vehsPerHour="49.96520292665386" departLane="free" arrivalSpeed="0.0"/>
  <flow id="JF57264" begin="360" fromJunction="J3" toJunction="J16" end="720" vehsPerHour="31.86080599589043" departLane="free" arrivalSpeed="0.0"/>
  <flow id="JF57265" begin="360" fromJunction="J3" toJunction="J2" end="720" vehsPerHour="31.87515122773845" departLane="free" arrivalSpeed="0.0"/>
  <flow id="JF57266" begin="360" fromJunction="J3" toJunction="J6" end="720" vehsPerHour="24.742979378023875" departLane="free" arrivalSpeed="0.0"/>
  <flow id="JF57267" begin="360" fromJunction="J3" toJunction="J7" end="720" vehsPerHour="65.4996538143905" departLane="free" arrivalSpeed="0.0"/>
  <flow id="JF57268" begin="360" fromJunction="J3" toJunction="J8" end="720" vehsPerHour="40.02449876015631" departLane="free" arrivalSpeed="0.0"/>
  <flow id="JF57269" begin="360" fromJunction="J3" toJunction="J9" end="720" vehsPerHour="15.324544138231396" departLane="free" arrivalSpeed="0.0"/>
  <flow id="JF57270" begin="360" fromJunction="J6" toJunction="J0" end="720" vehsPerHour="61.19895285878157" departLane="free" arrivalSpeed="0.0"/>
  <flow id="JF57271" begin="360" fromJunction="J6" toJunction="J12" end="720" vehsPerHour="46.411815655949695" departLane="free" arrivalSpeed="0.0"/>
  <flow id="JF57272" begin="360" fromJunction="J6" toJunction="J13" end="720" vehsPerHour="20.002913398907168" departLane="free" arrivalSpeed="0.0"/>
  <flow id="JF57273" begin="360" fromJunction="J6" toJunction="J14" end="720" vehsPerHour="49.29150450541352" departLane="free" arrivalSpeed="0.0"/>
  <flow id="JF57274" begin="360" fromJunction="J6" toJunction="J15" end="720" vehsPerHour="21.318885401477228" departLane="free" arrivalSpeed="0.0"/>
  <flow id="JF57275" begin="360" fromJunction="J6" toJunction="J16" end="720" vehsPerHour="66.81650670846975" departLane="free" arrivalSpeed="0.0"/>
  <flow id="JF57276" begin="360" fromJunction="J6" toJunction="J2" end="720" vehsPerHour="65.35930362668742" departLane="free" arrivalSpeed="0.0"/>
  <flow id="JF57277" begin="360" fromJunction="J6" toJunction="J3" end="720" vehsPerHour="26.746300670088843" departLane="free" arrivalSpeed="0.0"/>
  <flow id="JF57278" begin="360" fromJunction="J6" toJunction="J7" end="720" vehsPerHour="57.42325263663101" departLane="free" arrivalSpeed="0.0"/>
  <flow id="JF57279" begin="360" fromJunction="J6" toJunction="J8" end="720" vehsPerHour="54.423119595810604" departLane="free" arrivalSpeed="0.0"/>
  <flow id="JF57280" begin="360" fromJunction="J6" toJunction="J9" end="720" vehsPerHour="20.987843958738853" departLane="free" arrivalSpeed="0.0"/>
  <flow id="JF57281" begin="360" fromJunction="J7" toJunction="J0" end="720" vehsPerHour="7.073331513861087" departLane="free" arrivalSpeed="0.0"/>
  <flow id="JF57282" begin="360" fromJunction="J7" toJunction="J12" end="720" vehsPerHour="40.22056496010214" departLane="free" arrivalSpeed="0.0"/>
  <flow id="JF57283" begin="360" fromJunction="J7" toJunction="J14" end="720" vehsPerHour="23.058892946799737" departLane="free" arrivalSpeed="0.0"/>
  <flow id="JF57284" begin="360" fromJunction="J7" toJunction="J15" end="720" vehsPerHour="7.667463824173591" departLane="free" arrivalSpeed="0.0"/>
  <flow id="JF57285" begin="360" fromJunction="J7" toJunction="J16" end="720" vehsPerHour="64.57147104671915" departLane="free" arrivalSpeed="0.0"/>
  <flow id="JF57286" begin="360" fromJunction="J7" toJunction="J2" end="720" vehsPerHour="57.902507658780685" departLane="free" arrivalSpeed="0.0"/>
  <flow id="JF57287" begin="360" fromJunction="J7" toJunction="J3" end="720" vehsPerHour="50.257489573010524" departLane="free" arrivalSpeed="0.0"/>
  <flow id="JF57288" begin="360" fromJunction="J8" toJunction="J0" end="720" vehsPerHour="50.44495422764055" departLane="free" arrivalSpeed="0.0"/>
  <flow id="JF57289" begin="360" fromJunction="J8" toJunction="J12" end="720" vehsPerHour="4.10889691533401" departLane="free" arrivalSpeed="0.0"/>
  <flow id="JF57290" begin="360" fromJunction="J8" toJunction="J13" end="720" vehsPerHour="41.28657555505028" departLane="free" arrivalSpeed="0.0"/>
  <flow id="JF57291" begin="360" fromJunction="J8" toJunction="J16" end="720" vehsPerHour="30.836207449635715" departLane="free" arrivalSpeed="0.0"/>
  <flow id="JF57292" begin="360" fromJunction="J8" toJunction="J2" end="720" vehsPerHour="53.43378753937735" departLane="free" arrivalSpeed="0.0"/>
  <flow id="JF57293" begin="360" fromJunction="J8" toJunction="J3" end="720" vehsPerHour="59.71301503747587" departLane="free" arrivalSpeed="0.0"/>
  <flow id="JF57294" begin="360" fromJunction="J8" toJunction="J6" end="720" vehsPerHour="41.027627707831996" departLane="free" arrivalSpeed="0.0"/>
  <flow id="JF57295" begin="360" fromJunction="J8" toJunction="J7" end="720" vehsPerHour="14.922062358422574" departLane="free" arrivalSpeed="0.0"/>
  <flow id="JF57296" begin="360" fromJunction="J8" toJunction="J9" end="720" vehsPerHour="42.66376218733521" departLane="free" arrivalSpeed="0.0"/>
  <flow id="JF57297" begin="360" fromJunction="J9" toJunction="J0" end="720" vehsPerHour="51.56954341071451" departLane="free" arrivalSpeed="0.0"/>
  <flow id="JF57298" begin="360" fromJunction="J9" toJunction="J12" end="720" vehsPerHour="32.32232764870399" departLane="free" arrivalSpeed="0.0"/>
  <flow id="JF57299" begin="360" fromJunction="J9" toJunction="J14" end="720" vehsPerHour="19.933672956825152" departLane="free" arrivalSpeed="0.0"/>
  <flow id="JF57300" begin="360" fromJunction="J9" toJunction="J16" end="720" vehsPerHour="25.10919561963671" departLane="free" arrivalSpeed="0.0"/>
  <flow id="JF57301" begin="360" fromJunction="J9" toJunction="J2" end="720" vehsPerHour="65.71094775768213" departLane="free" arrivalSpeed="0.0"/>
  <flow id="JF57302" begin="360" fromJunction="J9" toJunction="J3" end="720" vehsPerHour="4.363528638830109" departLane="free" arrivalSpeed="0.0"/>
  <flow id="JF57303" begin="360" fromJunction="J9" toJunction="J6" end="720" vehsPerHour="50.47095421905708" departLane="free" arrivalSpeed="0.0"/>
  <flow id="JF57304" begin="360" fromJunction="J9" toJunction="J7" end="720" vehsPerHour="35.34633112274322" departLane="free" arrivalSpeed="0.0"/>
  <flow id="JF57305" begin="360" fromJunction="J9" toJunction="J8" end="720" vehsPerHour="57.19554000821652" departLane="free" arrivalSpeed="0.0"/>
  <flow id="JF57306" begin="720" fromJunction="J0" toJunction="J12" end="1080" vehsPerHour="4.845575848788294" departLane="free" arrivalSpeed="0.0"/>
  <flow id="JF57307" begin="720" fromJunction="J0" toJunction="J13" end="1080" vehsPerHour="1.6576547586402393" departLane="free" arrivalSpeed="0.0"/>
  <flow id="JF57308" begin="720" fromJunction="J0" toJunction="J14" end="1080" vehsPerHour="28.568064039210434" departLane="free" arrivalSpeed="0.0"/>