<?xml version="1.0" encoding="UTF-8"?>
<routes xmlns:xsi="http://www.w3.org/2001/XMLSchema-instance" xsi:noNamespaceSchemaLocation="http://sumo.dlr.de/xsd/routes_file.xsd">
  <flow id="JF87602" begin="0" fromJunction="J3" toJunction="J0" end="10000" vehsPerHour="622.2907027773382" departLane="free"/>
  <flow id="JF87603" begin="0" fromJunction="J0" toJunction="J3" end="10000" vehsPerHour="135.99982456293336" departLane="free"/>
  <flow id="JF87604" begin="0" fromJunction="J3" toJunction="J4" end="10000" vehsPerHour="451.22895633554697" departLane="free"/>
  <flow id="JF87605" begin="0" fromJunction="J3" toJunction="J7" end="10000" vehsPerHour="336.9528505701728" departLane="free"/>
  <flow id="JF87606" begin="0" fromJunction="J3" toJunction="J6" end="10000" vehsPerHour="377.10480117047365" departLane="free"/>
  <flow id="JF87607" begin="0" fromJunction="J3" toJunction="J5" end="10000" vehsPerHour="516.2566573973728" departLane="free"/>
  <flow id="JF87608" begin="0" fromJunction="J0" toJunction="J4" end="10000" vehsPerHour="96.75545912269389" departLane="free"/>
  <flow id="JF87609" begin="0" fromJunction="J0" toJunction="J7" end="10000" vehsPerHour="543.6998335176385" departLane="free"/>
  <flow id="JF87610" begin="0" fromJunction="J0" toJunction="J6" end="10000" vehsPerHour="448.7946449199625" departLane="free"/>
  <flow id="JF87611" begin="0" fromJunction="J0" toJunction="J5" end="10000" vehsPerHour="249.55546836488733" departLane="free"/>
  <flow id="JF87612" begin="0" fromJunction="J4" toJunction="J7" end="10000" vehsPerHour="160.61710026841627" departLane="free"/>
  <flow id="JF87613" begin="0" fromJunction="J4" toJunction="J6" end="10000" vehsPerHour="172.35468258529576" departLane="free"/>
  <flow id="JF87614" begin="0" fromJunction="J4" toJunction="J5" end="10000" vehsPerHour="221.85924814138824" departLane="free"/>
  <flow id="JF87615" begin="0" fromJunction="J7" toJunction="J4" end="10000" vehsPerHour="106.76853985951807" departLane="free"/>
  <flow id="JF87616" begin="0" fromJunction="J7" toJunction="J6" end="10000" vehsPerHour="131.79698219385824" departLane="free"/>
  <flow id="JF87617" begin="0" fromJunction="J7" toJunction="J5" end="10000" vehsPerHour="136.03249061910498" departLane="free"/>
  <flow id="JF87618" begin="0" fromJunction="J6" toJunction="J4" end="10000" vehsPerHour="85.4149977491446" departLane="free"/>
  <flow id="JF87619" begin="0" fromJunction="J6" toJunction="J7" end="10000" vehsPerHour="21.626143336065898" departLane="free"/>
  <flow id="JF87620" begin="0" fromJunction="J6" toJunction="J5" end="10000" vehsPerHour="126.88598517489511" departLane="free"/>
  <flow id="JF87621" begin="0" fromJunction="J5" toJunction="J4" end="10000" vehsPerHour="132.9645843156352" departLane="free"/>
  <flow id="JF87622" begin="0" fromJunction="J5" toJunction="J7" end="10000" vehsPerHour="219.54031184133984" departLane="free"/>
  <flow id="JF87623" begin="0" fromJunction="J5" toJunction="J6" end="10000" vehsPerHour="7.021443505686279" departLane="free"/>
  <flow id="JF87624" begin="0" fromJunction="J4" toJunction="J3" end="10000" vehsPerHour="19.1141394657123" departLane="free"/>
  <flow id="JF87625" begin="0" fromJunction="J4" toJunction="J0" end="10000" vehsPerHour="123.37626734540851" departLane="free"/>
  <flow id="JF87626" begin="0" fromJunction="J7" toJunction="J3" end="10000" vehsPerHour="50.59710611847037" departLane="free"/>
  <flow id="JF87627" begin="0" fromJunction="J7" toJunction="J0" end="10000" vehsPerHour="51.96064562236056" departLane="free"/>
  <flow id="JF87628" begin="0" fromJunction="J6" toJunction="J3" end="10000" vehsPerHour="115.28263309724777" departLane="free"/>
  <flow id="JF87629" begin="0" fromJunction="J6" toJunction="J0" end="10000" vehsPerHour="91.54118682874481" departLane="free"/>
  <flow id="JF87630" begin="0" fromJunction="J5" toJunction="J3" end="10000" vehsPerHour="49.52069926449457" departLane="free"/>
  <flow id="JF87631" begin="0" fromJunction="J5" toJunction="J0" end="10000" vehsPerHour="29.153069219216153" departLane="free"/>
</routes>