<?xml version="1.0" encoding="UTF-8"?>
<routes xmlns:xsi="http://www.w3.org/2001/XMLSchema-instance" xsi:noNamespaceSchemaLocation="http://sumo.dlr.de/xsd/routes_file.xsd">
  <flow id="JF301473" begin="0" fromJunction="J3" toJunction="J0" end="60" vehsPerHour="293.2987813736776" departLane="free"/>
  <flow id="JF301474" begin="0" fromJunction="J0" toJunction="J3" end="60" vehsPerHour="1.9811965651949366" departLane="free"/>
  <flow id="JF301475" begin="0" fromJunction="J3" toJunction="J7" end="60" vehsPerHour="34.792853086219594" departLane="free"/>
  <flow id="JF301476" begin="0" fromJunction="J3" toJunction="J5" end="60" vehsPerHour="71.94168547358775" departLane="free"/>
  <flow id="JF301477" begin="0" fromJunction="J3" toJunction="J4" end="60" vehsPerHour="112.89419885573365" departLane="free"/>
  <flow id="JF301478" begin="0" fromJunction="J3" toJunction="J6" end="60" vehsPerHour="27.66178265264639" departLane="free"/>
  <flow id="JF301479" begin="0" fromJunction="J0" toJunction="J7" end="60" vehsPerHour="129.83953507651873" departLane="free"/>
  <flow id="JF301480" begin="0" fromJunction="J0" toJunction="J5" end="60" vehsPerHour="60.720359859868886" departLane="free"/>
  <flow id="JF301481" begin="0" fromJunction="J0" toJunction="J4" end="60" vehsPerHour="17.904356772695227" departLane="free"/>
  <flow id="JF301482" begin="0" fromJunction="J0" toJunction="J6" end="60" vehsPerHour="66.09963446764029" departLane="free"/>
  <flow id="JF301483" begin="0" fromJunction="J7" toJunction="J5" end="60" vehsPerHour="0.9156949432612361" departLane="free"/>
  <flow id="JF301484" begin="0" fromJunction="J7" toJunction="J4" end="60" vehsPerHour="41.59571387872468" departLane="free"/>
  <flow id="JF301485" begin="0" fromJunction="J7" toJunction="J6" end="60" vehsPerHour="58.128319432984675" departLane="free"/>
  <flow id="JF301486" begin="0" fromJunction="J5" toJunction="J7" end="60" vehsPerHour="37.274825931268246" departLane="free"/>
  <flow id="JF301487" begin="0" fromJunction="J5" toJunction="J4" end="60" vehsPerHour="45.90481813629685" departLane="free"/>
  <flow id="JF301488" begin="0" fromJunction="J5" toJunction="J6" end="60" vehsPerHour="4.353041995881635" departLane="free"/>
  <flow id="JF301489" begin="0" fromJunction="J4" toJunction="J7" end="60" vehsPerHour="22.272207819787216" departLane="free"/>
  <flow id="JF301490" begin="0" fromJunction="J4" toJunction="J5" end="60" vehsPerHour="50.385924296898395" departLane="free"/>
  <flow id="JF301491" begin="0" fromJunction="J4" toJunction="J6" end="60" vehsPerHour="50.6842674276865" departLane="free"/>
  <flow id="JF301492" begin="0" fromJunction="J6" toJunction="J7" end="60" vehsPerHour="28.044744386763472" departLane="free"/>
  <flow id="JF301493" begin="0" fromJunction="J6" toJunction="J5" end="60" vehsPerHour="31.711600697154434" departLane="free"/>
  <flow id="JF301494" begin="0" fromJunction="J6" toJunction="J4" end="60" vehsPerHour="30.16572338098234" departLane="free"/>
  <flow id="JF301495" begin="0" fromJunction="J7" toJunction="J3" end="60" vehsPerHour="19.129498257646276" departLane="free"/>
  <flow id="JF301496" begin="0" fromJunction="J7" toJunction="J0" end="60" vehsPerHour="59.02792840899346" departLane="free"/>
  <flow id="JF301497" begin="0" fromJunction="J5" toJunction="J3" end="60" vehsPerHour="10.907960845402771" departLane="free"/>
  <flow id="JF301498" begin="0" fromJunction="J5" toJunction="J0" end="60" vehsPerHour="19.27939263079913" departLane="free"/>
  <flow id="JF301499" begin="0" fromJunction="J4" toJunction="J3" end="60" vehsPerHour="31.480048011056617" departLane="free"/>
  <flow id="JF301500" begin="0" fromJunction="J4" toJunction="J0" end="60" vehsPerHour="61.427516906751606" departLane="free"/>
  <flow id="JF301501" begin="0" fromJunction="J6" toJunction="J3" end="60" vehsPerHour="19.088155114229316" departLane="free"/>
  <flow id="JF301502" begin="0" fromJunction="J6" toJunction="J0" end="60" vehsPerHour="21.3836624667878" departLane="free"/>
  <flow id="JF301503" begin="60" fromJunction="J3" toJunction="J0" end="120" vehsPerHour="344.7960583884089" departLane="free"/>
  <flow id="JF301504" begin="60" fromJunction="J0" toJunction="J3" end="120" vehsPerHour="138.16806164192678" departLane="free"/>
  <flow id="JF301505" begin="60" fromJunction="J3" toJunction="J7" end="120" vehsPerHour="80.74159935652524" departLane="free"/>
  <flow id="JF301506" begin="60" fromJunction="J3" toJunction="J5" end="120" vehsPerHour="104.32804115475909" departLane="free"/>
  <flow id="JF301507" begin="60" fromJunction="J3" toJunction="J4" end="120" vehsPerHour="49.54817470645509" departLane="free"/>
  <flow id="JF301508" begin="60" fromJunction="J3" toJunction="J6" end="120" vehsPerHour="73.32590257442605" departLane="free"/>
  <flow id="JF301509" begin="60" fromJunction="J0" toJunction="J7" end="120" vehsPerHour="72.5067276276034" departLane="free"/>
  <flow id="JF301510" begin="60" fromJunction="J0" toJunction="J5" end="120" vehsPerHour="53.4465274308492" departLane="free"/>
  <flow id="JF301511" begin="60" fromJunction="J0" toJunction="J4" end="120" vehsPerHour="78.03490311417659" departLane="free"/>
  <flow id="JF301512" begin="60" fromJunction="J0" toJunction="J6" end="120" vehsPerHour="78.5692927906013" departLane="free"/>
  <flow id="JF301513" begin="120" fromJunction="J3" toJunction="J0" end="180" vehsPerHour="26.359116429874856" departLane="free"/>
  <flow id="JF301514" begin="120" fromJunction="J0" toJunction="J3" end="180" vehsPerHour="84.78585323406674" departLane="free"/>
  <flow id="JF301515" begin="120" fromJunction="J3" toJunction="J7" end="180" vehsPerHour="85.7600409067934" departLane="free"/>
  <flow id="JF301516" begin="120" fromJunction="J3" toJunction="J5" end="180" vehsPerHour="75.62223945690826" departLane="free"/>
  <flow id="JF301517" begin="120" fromJunction="J3" toJunction="J4" end="180" vehsPerHour="74.34519156321323" departLane="free"/>
  <flow id="JF301518" begin="120" fromJunction="J3" toJunction="J6" end="180" vehsPerHour="98.68709522826241" departLane="free"/>
  <flow id="JF301519" begin="120" fromJunction="J0" toJunction="J7" end="180" vehsPerHour="18.552770970589403" departLane="free"/>
  <flow id="JF301520" begin="120" fromJunction="J0" toJunction="J5" end="180" vehsPerHour="39.3200952075851" departLane="free"/>
  <flow id="JF301521" begin="120" fromJunction="J0" toJunction="J4" end="180" vehsPerHour="31.75221965121566" departLane="free"/>
  <flow id="JF301522" begin="120" fromJunction="J0" toJunction="J6" end="180" vehsPerHour="129.01033291242126" departLane="free"/>
  <flow id="JF301523" begin="120" fromJunction="J7" toJunction="J5" end="180" vehsPerHour="15.714681709343495" departLane="free"/>
  <flow id="JF301524" begin="120" fromJunction="J7" toJunction="J4" end="180" vehsPerHour="37.15282853687988" departLane="free"/>
  <flow id="JF301525" begin="120" fromJunction="J7" toJunction="J6" end="180" vehsPerHour="31.8660698951454" departLane="free"/>
  <flow id="JF301526" begin="120" fromJunction="J5" toJunction="J7" end="180" vehsPerHour="19.207193735636324" departLane="free"/>
  <flow id="JF301527" begin="120" fromJunction="J5" toJunction="J4" end="180" vehsPerHour="63.140420953847" departLane="free"/>
  <flow id="JF301528" begin="120" fromJunction="J5" toJunction="J6" end="180" vehsPerHour="61.01225832006282" departLane="free"/>
  <flow id="JF301529" begin="120" fromJunction="J4" toJunction="J7" end="180" vehsPerHour="67.43036610727704" departLane="free"/>
  <flow id="JF301530" begin="120" fromJunction="J4" toJunction="J5" end="180" vehsPerHour="4.21492452099856" departLane="free"/>
  <flow id="JF301531" begin="120" fromJunction="J4" toJunction="J6" end="180" vehsPerHour="37.339932266293445" departLane="free"/>
  <flow id="JF301532" begin="120" fromJunction="J6" toJunction="J7" end="180" vehsPerHour="47.588119453345655" departLane="free"/>
  <flow id="JF301533" begin="120" fromJunction="J6" toJunction="J5" end="180" vehsPerHour="42.033179887097454" departLane="free"/>
  <flow id="JF301534" begin="120" fromJunction="J6" toJunction="J4" end="180" vehsPerHour="29.647214654851954" departLane="free"/>
  <flow id="JF301535" begin="120" fromJunction="J7" toJunction="J3" end="180" vehsPerHour="46.55684608292133" departLane="free"/>
  <flow id="JF301536" begin="120" fromJunction="J7" toJunction="J0" end="180" vehsPerHour="64.85249889806886" departLane="free"/>
  <flow id="JF301537" begin="120" fromJunction="J5" toJunction="J3" end="180" vehsPerHour="2.852035667087955" departLane="free"/>
  <flow id="JF301538" begin="120" fromJunction="J5" toJunction="J0" end="180" vehsPerHour="48.91167800242378" departLane="free"/>
  <flow id="JF301539" begin="120" fromJunction="J4" toJunction="J3" end="180" vehsPerHour="48.80800725688374" departLane="free"/>
  <flow id="JF301540" begin="120" fromJunction="J4" toJunction="J0" end="180" vehsPerHour="21.333849183282332" departLane="free"/>
  <flow id="JF301541" begin="120" fromJunction="J6" toJunction="J3" end="180" vehsPerHour="47.90847500300442" departLane="free"/>
  <flow id="JF301542" begin="120" fromJunction="J6" toJunction="J0" end="180" vehsPerHour="42.40102924888937" departLane="free"/>
  <flow id="JF301543" begin="180" fromJunction="J3" toJunction="J0" end="240" vehsPerHour="530.4307598316325" departLane="free"/>
  <flow id="JF301544" begin="180" fromJunction="J0" toJunction="J3" end="240" vehsPerHour="489.27570326437933" departLane="free"/>
  <flow id="JF301545" begin="180" fromJunction="J3" toJunction="J7" end="240" vehsPerHour="0.5115991787102028" departLane="free"/>
  <flow id="JF301546" begin="180" fromJunction="J3" toJunction="J5" end="240" vehsPerHour="61.71098613457777" departLane="free"/>
  <flow id="JF301547" begin="180" fromJunction="J3" toJunction="J4" end="240" vehsPerHour="130.58961427874576" departLane="free"/>
  <flow id="JF301548" begin="180" fromJunction="J3" toJunction="J6" end="240" vehsPerHour="52.01599897704063" departLane="free"/>
  <flow id="JF301549" begin="180" fromJunction="J0" toJunction="J7" end="240" vehsPerHour="108.6613204904328" departLane="free"/>
  <flow id="JF301550" begin="180" fromJunction="J0" toJunction="J5" end="240" vehsPerHour="111.02157409447034" departLane="free"/>
  <flow id="JF301551" begin="180" fromJunction="J0" toJunction="J4" end="240" vehsPerHour="55.144792170190286" departLane="free"/>
  <flow id="JF301552" begin="180" fromJunction="J0" toJunction="J6" end="240" vehsPerHour="130.4939089095244" departLane="free"/>
  <flow id="JF301553" begin="180" fromJunction="J7" toJunction="J5" end="240" vehsPerHour="63.46628962116395" departLane="free"/>
  <flow id="JF301554" begin="180" fromJunction="J7" toJunction="J4" end="240" vehsPerHour="60.325059737518714" departLane="free"/>
  <flow id="JF301555" begin="180" fromJunction="J7" toJunction="J6" end="240" vehsPerHour="10.728405106383065" departLane="free"/>
  <flow id="JF301556" begin="180" fromJunction="J5" toJunction="J7" end="240" vehsPerHour="60.73702866679019" departLane="free"/>
  <flow id="JF301557" begin="180" fromJunction="J5" toJunction="J4" end="240" vehsPerHour="8.450666599413873" departLane="free"/>
  <flow id="JF301558" begin="180" fromJunction="J5" toJunction="J6" end="240" vehsPerHour="9.842725268424605" departLane="free"/>
  <flow id="JF301559" begin="180" fromJunction="J4" toJunction="J7" end="240" vehsPerHour="17.194880238529908" departLane="free"/>
  <flow id="JF301560" begin="180" fromJunction="J4" toJunction="J5" end="240" vehsPerHour="41.88755941716171" departLane="free"/>
  <flow id="JF301561" begin="180" fromJunction="J4" toJunction="J6" end="240" vehsPerHour="6.817299816071556" departLane="free"/>
  <flow id="JF301562" begin="180" fromJunction="J6" toJunction="J7" end="240" vehsPerHour="44.172036204352516" departLane="free"/>
  <flow id="JF301563" begin="180" fromJunction="J6" toJunction="J5" end="240" vehsPerHour="6.478298170853377" departLane="free"/>
  <flow id="JF301564" begin="180" fromJunction="J6" toJunction="J4" end="240" vehsPerHour="59.79520622527569" departLane="free"/>
  <flow id="JF301565" begin="180" fromJunction="J7" toJunction="J3" end="240" vehsPerHour="10.148786796679019" departLane="free"/>
  <flow id="JF301566" begin="180" fromJunction="J7" toJunction="J0" end="240" vehsPerHour="36.13055269692772" departLane="free"/>
  <flow id="JF301567" begin="180" fromJunction="J5" toJunction="J3" end="240" vehsPerHour="4.421413868635141" departLane="free"/>
  <flow id="JF301568" begin="180" fromJunction="J5" toJunction="J0" end="240" vehsPerHour="16.945079514095013" departLane="free"/>
  <flow id="JF301569" begin="180" fromJunction="J4" toJunction="J3" end="240" vehsPerHour="8.644058619183033" departLane="free"/>
  <flow id="JF301570" begin="180" fromJunction="J4" toJunction="J0" end="240" vehsPerHour="14.652128721342223" departLane="free"/>
  <flow id="JF301571" begin="180" fromJunction="J6" toJunction="J3" end="240" vehsPerHour="11.741067585395623" departLane="free"/>
  <flow id="JF301572" begin="180" fromJunction="J6" toJunction="J0" end="240" vehsPerHour="4.0582461246923405" departLane="free"/>
  <flow id="JF301573" begin="240" fromJunction="J3" toJunction="J0" end="300" vehsPerHour="328.33329829637705" departLane="free"/>
  <flow id="JF301574" begin="240" fromJunction="J0" toJunction="J3" end="300" vehsPerHour="338.68276687114616" departLane="free"/>
  <flow id="JF301575" begin="240" fromJunction="J3" toJunction="J7" end="300" vehsPerHour="113.1130456458113" departLane="free"/>
  <flow id="JF301576" begin="240" fromJunction="J3" toJunction="J5" end="300" vehsPerHour="135.90647898844475" departLane="free"/>
  <flow id="JF301577" begin="240" fromJunction="J3" toJunction="J4" end="300" vehsPerHour="24.715522819503494" departLane="free"/>
  <flow id="JF301578" begin="240" fromJunction="J3" toJunction="J6" end="300" vehsPerHour="21.115476085502145" departLane="free"/>
  <flow id="JF301579" begin="240" fromJunction="J0" toJunction="J7" end="300" vehsPerHour="54.15406282293484" departLane="free"/>
  <flow id="JF301580" begin="240" fromJunction="J0" toJunction="J5" end="300" vehsPerHour="79.9961210823646" departLane="free"/>
  <flow id="JF301581" begin="240" fromJunction="J0" toJunction="J4" end="300" vehsPerHour="28.648122570842414" departLane="free"/>
  <flow id="JF301582" begin="240" fromJunction="J0" toJunction="J6" end="300" vehsPerHour="75.14394699912008" departLane="free"/>
  <flow id="JF301583" begin="300" fromJunction="J3" toJunction="J0" end="360" vehsPerHour="218.79406542599466" departLane="free"/>
  <flow id="JF301584" begin="300" fromJunction="J0" toJunction="J3" end="360" vehsPerHour="415.39700489802357" departLane="free"/>
  <flow id="JF301585" begin="300" fromJunction="J3" toJunction="J7" end="360" vehsPerHour="116.9701844097225" departLane="free"/>
  <flow id="JF301586" begin="300" fromJunction="J3" toJunction="J5" end="360" vehsPerHour="72.73791245318245" departLane="free"/>
  <flow id="JF301587" begin="300" fromJunction="J3" toJunction="J4" end="360" vehsPerHour="46.56148533110702" departLane="free"/>
  <flow id="JF301588" begin="300" fromJunction="J3" toJunction="J6" end="360" vehsPerHour="78.69293777912874" departLane="free"/>
  <flow id="JF301589" begin="300" fromJunction="J0" toJunction="J7" end="360" vehsPerHour="7.109326730412888" departLane="free"/>
  <flow id="JF301590" begin="300" fromJunction="J0" toJunction="J5" end="360" vehsPerHour="13.3865608920646" departLane="free"/>
  <flow id="JF301591" begin="300" fromJunction="J0" toJunction="J4" end="360" vehsPerHour="112.23253690477512" departLane="free"/>
  <flow id="JF301592" begin="300" fromJunction="J0" toJunction="J6" end="360" vehsPerHour="43.22308877688706" departLane="free"/>
  <flow id="JF301593" begin="300" fromJunction="J7" toJunction="J5" end="360" vehsPerHour="7.85728094992505" departLane="free"/>
  <flow id="JF301594" begin="300" fromJunction="J7" toJunction="J4" end="360" vehsPerHour="30.79343175384203" departLane="free"/>
  <flow id="JF301595" begin="300" fromJunction="J7" toJunction="J6" end="360" vehsPerHour="57.67540177849126" departLane="free"/>
  <flow id="JF301596" begin="300" fromJunction="J5" toJunction="J7" end="360" vehsPerHour="46.69149655923839" departLane="free"/>
  <flow id="JF301597" begin="300" fromJunction="J5" toJunction="J4" end="360" vehsPerHour="7.156655633602211" departLane="free"/>
  <flow id="JF301598" begin="300" fromJunction="J5" toJunction="J6" end="360" vehsPerHour="15.550362204439935" departLane="free"/>
  <flow id="JF301599" begin="300" fromJunction="J4" toJunction="J7" end="360" vehsPerHour="12.597008572108429" departLane="free"/>
  <flow id="JF301600" begin="300" fromJunction="J4" toJunction="J5" end="360" vehsPerHour="54.07653307211198" departLane="free"/>
  <flow id="JF301601" begin="300" fromJunction="J4" toJunction="J6" end="360" vehsPerHour="38.60310378975939" departLane="free"/>
  <flow id="JF301602" begin="300" fromJunction="J6" toJunction="J7" end="360" vehsPerHour="5.49577267724514" departLane="free"/>
  <flow id="JF301603" begin="300" fromJunction="J6" toJunction="J5" end="360" vehsPerHour="8.914527419444173" departLane="free"/>
  <flow id="JF301604" begin="300" fromJunction="J6" toJunction="J4" end="360" vehsPerHour="54.58897896333156" departLane="free"/>
  <flow id="JF301605" begin="300" fromJunction="J7" toJunction="J3" end="360" vehsPerHour="34.87929228400121" departLane="free"/>
  <flow id="JF301606" begin="300" fromJunction="J7" toJunction="J0" end="360" vehsPerHour="37.07956252551467" departLane="free"/>
  <flow id="JF301607" begin="300" fromJunction="J5" toJunction="J3" end="360" vehsPerHour="15.028982916192906" departLane="free"/>
  <flow id="JF301608" begin="300" fromJunction="J5" toJunction="J0" end="360" vehsPerHour="59.46378710935558" departLane="free"/>
  <flow id="JF301609" begin="300" fromJunction="J4" toJunction="J3" end="360" vehsPerHour="44.147872841724784" departLane="free"/>
  <flow id="JF301610" begin="300" fromJunction="J4" toJunction="J0" end="360" vehsPerHour="22.963356313428676" departLane="free"/>
  <flow id="JF301611" begin="300" fromJunction="J6" toJunction="J3" end="360" vehsPerHour="46.25116217423293" departLane="free"/>
  <flow id="JF301612" begin="300" fromJunction="J6" toJunction="J0" end="360" vehsPerHour="42.968009077756626" departLane="free"/>
  <flow id="JF301613" begin="360" fromJunction="J3" toJunction="J0" end="420" vehsPerHour="193.5380835316235" departLane="free"/>
  <flow id="JF301614" begin="360" fromJunction="J0" toJunction="J3" end="420" vehsPerHour="391.96575731138574" departLane="free"/>
  <flow id="JF301615" begin="360" fromJunction="J3" toJunction="J7" end="420" vehsPerHour="31.52179509422139" departLane="free"/>
  <flow id="JF301616" begin="360" fromJunction="J3" toJunction="J5" end="420" vehsPerHour="123.22456313450044" departLane="free"/>
  <flow id="JF301617" begin="360" fromJunction="J3" toJunction="J4" end="420" vehsPerHour="0.4103264907404179" departLane="free"/>
  <flow id="JF301618" begin="360" fromJunction="J3" toJunction="J6" end="420" vehsPerHour="58.37734316654337" departLane="free"/>
  <flow id="JF301619" begin="360" fromJunction="J0" toJunction="J7" end="420" vehsPerHour="133.54644810981296" departLane="free"/>
  <flow id="JF301620" begin="360" fromJunction="J0" toJunction="J5" end="420" vehsPerHour="116.38977971435466" departLane="free"/>
  <flow id="JF301621" begin="360" fromJunction="J0" toJunction="J4" end="420" vehsPerHour="71.62742850547829" departLane="free"/>
  <flow id="JF301622" begin="360" fromJunction="J0" toJunction="J6" end="420" vehsPerHour="67.05899313064458" departLane="free"/>
  <flow id="JF301623" begin="360" fromJunction="J7" toJunction="J5" end="420" vehsPerHour="22.779816666060295" departLane="free"/>
  <flow id="JF301624" begin="360" fromJunction="J7" toJunction="J4" end="420" vehsPerHour="53.85822692825546" departLane="free"/>
  <flow id="JF301625" begin="360" fromJunction="J7" toJunction="J6" end="420" vehsPerHour="61.06811807937836" departLane="free"/>
  <flow id="JF301626" begin="360" fromJunction="J5" toJunction="J7" end="420" vehsPerHour="5.6701381901359555" departLane="free"/>
  <flow id="JF301627" begin="360" fromJunction="J5" toJunction="J4" end="420" vehsPerHour="28.368574270118653" departLane="free"/>
  <flow id="JF301628" begin="360" fromJunction="J5" toJunction="J6" end="420" vehsPerHour="50.07683839344132" departLane="free"/>
  <flow id="JF301629" begin="360" fromJunction="J4" toJunction="J7" end="420" vehsPerHour="56.217426557738406" departLane="free"/>
  <flow id="JF301630" begin="360" fromJunction="J4" toJunction="J5" end="420" vehsPerHour="64.95405695392567" departLane="free"/>
  <flow id="JF301631" begin="360" fromJunction="J4" toJunction="J6" end="420" vehsPerHour="43.526388572206244" departLane="free"/>
  <flow id="JF301632" begin="360" fromJunction="J6" toJunction="J7" end="420" vehsPerHour="41.41637960050496" departLane="free"/>
  <flow id="JF301633" begin="360" fromJunction="J6" toJunction="J5" end="420" vehsPerHour="17.01376335366778" departLane="free"/>
  <flow id="JF301634" begin="360" fromJunction="J6" toJunction="J4" end="420" vehsPerHour="30.56086094461887" departLane="free"/>
  <flow id="JF301635" begin="360" fromJunction="J7" toJunction="J3" end="420" vehsPerHour="62.34422747514539" departLane="free"/>
  <flow id="JF301636" begin="360" fromJunction="J7" toJunction="J0" end="420" vehsPerHour="12.002475291576868" departLane="free"/>
  <flow id="JF301637" begin="360" fromJunction="J5" toJunction="J3" end="420" vehsPerHour="30.942927025036777" departLane="free"/>
  <flow id="JF301638" begin="360" fromJunction="J5" toJunction="J0" end="420" vehsPerHour="34.89696171968256" departLane="free"/>
  <flow id="JF301639" begin="360" fromJunction="J4" toJunction="J3" end="420" vehsPerHour="14.08929334475102" departLane="free"/>
  <flow id="JF301640" begin="360" fromJunction="J4" toJunction="J0" end="420" vehsPerHour="7.73613058104241" departLane="free"/>
  <flow id="JF301641" begin="360" fromJunction="J6" toJunction="J3" end="420" vehsPerHour="0.09490989953335664" departLane="free"/>
  <flow id="JF301642" begin="360" fromJunction="J6" toJunction="J0" end="420" vehsPerHour="66.3227902503791" departLane="free"/>
  <flow id="JF301643" begin="420" fromJunction="J3" toJunction="J0" end="480" vehsPerHour="50.66992723226527" departLane="free"/>
  <flow id="JF301644" begin="420" fromJunction="J0" toJunction="J3" end="480" vehsPerHour="441.1438531250078" departLane="free"/>
  <flow id="JF301645" begin="420" fromJunction="J3" toJunction="J7" end="480" vehsPerHour="75.32548961768897" departLane="free"/>
  <flow id="JF301646" begin="420" fromJunction="J3" toJunction="J5" end="480" vehsPerHour="70.75920749109355" departLane="free"/>
  <flow id="JF301647" begin="420" fromJunction="J3" toJunction="J4" end="480" vehsPerHour="25.227853687997438" departLane="free"/>
  <flow id="JF301648" begin="420" fromJunction="J3" toJunction="J6" end="480" vehsPerHour="103.23055457360644" departLane="free"/>
  <flow id="JF301649" begin="420" fromJunction="J0" toJunction="J7" end="480" vehsPerHour="33.83532184058793" departLane="free"/>
  <flow id="JF301650" begin="420" fromJunction="J0" toJunction="J5" end="480" vehsPerHour="126.09129589379806" departLane="free"/>
  <flow id="JF301651" begin="420" fromJunction="J0" toJunction="J4" end="480" vehsPerHour="36.56002398636947" departLane="free"/>
  <flow id="JF301652" begin="420" fromJunction="J0" toJunction="J6" end="480" vehsPerHour="70.70952665457376" departLane="free"/>
  <flow id="JF301653" begin="420" fromJunction="J7" toJunction="J5" end="480" vehsPerHour="21.14670351744308" departLane="free"/>
  <flow id="JF301654" begin="420" fromJunction="J7" toJunction="J4" end="480" vehsPerHour="36.18559203217553" departLane="free"/>
  <flow id="JF301655" begin="420" fromJunction="J7" toJunction="J6" end="480" vehsPerHour="36.97196654512746" departLane="free"/>
  <flow id="JF301656" begin="420" fromJunction="J5" toJunction="J7" end="480" vehsPerHour="29.983342459776924" departLane="free"/>
  <flow id="JF301657" begin="420" fromJunction="J5" toJunction="J4" end="480" vehsPerHour="32.48431583294028" departLane="free"/>
  <flow id="JF301658" begin="420" fromJunction="J5" toJunction="J6" end="480" vehsPerHour="64.11391732437502" departLane="free"/>
  <flow id="JF301659" begin="420" fromJunction="J4" toJunction="J7" end="480" vehsPerHour="15.180986426338377" departLane="free"/>
  <flow id="JF301660" begin="420" fromJunction="J4" toJunction="J5" end="480" vehsPerHour="39.49719118089201" departLane="free"/>
  <flow id="JF301661" begin="420" fromJunction="J4" toJunction="J6" end="480" vehsPerHour="30.014942503846363" departLane="free"/>
  <flow id="JF301662" begin="420" fromJunction="J6" toJunction="J7" end="480" vehsPerHour="58.84109248358729" departLane="free"/>
  <flow id="JF301663" begin="420" fromJunction="J6" toJunction="J5" end="480" vehsPerHour="60.257074215310496" departLane="free"/>
  <flow id="JF301664" begin="420" fromJunction="J6" toJunction="J4" end="480" vehsPerHour="61.08084921650917" departLane="free"/>
  <flow id="JF301665" begin="420" fromJunction="J7" toJunction="J3" end="480" vehsPerHour="2.861293588203207" departLane="free"/>
  <flow id="JF301666" begin="420" fromJunction="J7" toJunction="J0" end="480" vehsPerHour="63.183507919100656" departLane="free"/>
  <flow id="JF301667" begin="420" fromJunction="J5" toJunction="J3" end="480" vehsPerHour="49.486663805848146" departLane="free"/>
  <flow id="JF301668" begin="420" fromJunction="J5" toJunction="J0" end="480" vehsPerHour="66.50347900110458" departLane="free"/>
  <flow id="JF301669" begin="420" fromJunction="J4" toJunction="J3" end="480" vehsPerHour="6.361302074882386" departLane="free"/>
  <flow id="JF301670" begin="420" fromJunction="J4" toJunction="J0" end="480" vehsPerHour="56.938730166145945" departLane="free"/>
  <flow id="JF301671" begin="420" fromJunction="J6" toJunction="J3" end="480" vehsPerHour="65.43028847799671" departLane="free"/>
  <flow id="JF301672" begin="420" fromJunction="J6" toJunction="J0" end="480" vehsPerHour="6.71539300354049" departLane="free"/>
  <flow id="JF301673" begin="480" fromJunction="J3" toJunction="J0" end="540" vehsPerHour="292.97153818915797" departLane="free"/>
  <flow id="JF301674" begin="480" fromJunction="J0" toJunction="J3" end="540" vehsPerHour="85.16019797553815" departLane="free"/>
  <flow id="JF301675" begin="480" fromJunction="J3" toJunction="J7" end="540" vehsPerHour="57.51166061560678" departLane="free"/>
  <flow id="JF301676" begin="480" fromJunction="J3" toJunction="J5" end="540" vehsPerHour="128.65808166838983" departLane="free"/>
  <flow id="JF301677" begin="480" fromJunction="J3" toJunction="J4" end="540" vehsPerHour="120.465265150118" departLane="free"/>
  <flow id="JF301678" begin="480" fromJunction="J3" toJunction="J6" end="540" vehsPerHour="135.51703919559202" departLane="free"/>
  <flow id="JF301679" begin="480" fromJunction="J0" toJunction="J7" end="540" vehsPerHour="37.35432473786238" departLane="free"/>
  <flow id="JF301680" begin="480" fromJunction="J0" toJunction="J5" end="540" vehsPerHour="123.19633661755378" departLane="free"/>
  <flow id="JF301681" begin="480" fromJunction="J0" toJunction="J4" end="540" vehsPerHour="107.42749029436956" departLane="free"/>
  <flow id="JF301682" begin="480" fromJunction="J0" toJunction="J6" end="540" vehsPerHour="105.37056328397473" departLane="free"/>
  <flow id="JF301683" begin="480" fromJunction="J7" toJunction="J5" end="540" vehsPerHour="48.07268633748303" departLane="free"/>
  <flow id="JF301684" begin="480" fromJunction="J7" toJunction="J4" end="540" vehsPerHour="25.17480569748543" departLane="free"/>
  <flow id="JF301685" begin="480" fromJunction="J7" toJunction="J6" end="540" vehsPerHour="46.984466531903486" departLane="free"/>
  <flow id="JF301686" begin="480" fromJunction="J5" toJunction="J7" end="540" vehsPerHour="53.52010427330199" departLane="free"/>
  <flow id="JF301687" begin="480" fromJunction="J5" toJunction="J4" end="540" vehsPerHour="34.572801579779586" departLane="free"/>
  <flow id="JF301688" begin="480" fromJunction="J5" toJunction="J6" end="540" vehsPerHour="2.6510947374654705" departLane="free"/>
  <flow id="JF301689" begin="480" fromJunction="J4" toJunction="J7" end="540" vehsPerHour="14.394448951168163" departLane="free"/>
  <flow id="JF301690" begin="480" fromJunction="J4" toJunction="J5" end="540" vehsPerHour="26.356320561391936" departLane="free"/>
  <flow id="JF301691" begin="480" fromJunction="J4" toJunction="J6" end="540" vehsPerHour="11.475593348542002" departLane="free"/>
  <flow id="JF301692" begin="480" fromJunction="J6" toJunction="J7" end="540" vehsPerHour="46.650758359419626" departLane="free"/>
  <flow id="JF301693" begin="480" fromJunction="J6" toJunction="J5" end="540" vehsPerHour="20.163580085838575" departLane="free"/>
  <flow id="JF301694" begin="480" fromJunction="J6" toJunction="J4" end="540" vehsPerHour="16.27717977421946" departLane="free"/>
  <flow id="JF301695" begin="480" fromJunction="J7" toJunction="J3" end="540" vehsPerHour="37.39480420709468" departLane="free"/>
  <flow id="JF301696" begin="480" fromJunction="J7" toJunction="J0" end="540" vehsPerHour="62.76358456939741" departLane="free"/>
  <flow id="JF301697" begin="480" fromJunction="J5" toJunction="J3" end="540" vehsPerHour="57.678917832353086" departLane="free"/>
  <flow id="JF301698" begin="480" fromJunction="J5" toJunction="J0" end="540" vehsPerHour="1.3231507664445292" departLane="free"/>
  <flow id="JF301699" begin="480" fromJunction="J4" toJunction="J3" end="540" vehsPerHour="3.2539108565908963" departLane="free"/>
  <flow id="JF301700" begin="480" fromJunction="J4" toJunction="J0" end="540" vehsPerHour="54.74203910708198" departLane="free"/>
  <flow id="JF301701" begin="480" fromJunction="J6" toJunction="J3" end="540" vehsPerHour="19.583919243093007" departLane="free"/>