<?xml version="1.0" encoding="UTF-8"?>
<routes xmlns:xsi="http://www.w3.org/2001/XMLSchema-instance" xsi:noNamespaceSchemaLocation="http://sumo.dlr.de/xsd/routes_file.xsd">
  <flow id="JF290187" begin="0" fromJunction="J3" toJunction="J0" end="60" vehsPerHour="174.51783774892434" departLane="free"/>
  <flow id="JF290188" begin="0" fromJunction="J0" toJunction="J3" end="60" vehsPerHour="186.02274938420393" departLane="free"/>
  <flow id="JF290189" begin="0" fromJunction="J3" toJunction="J7" end="60" vehsPerHour="18.905438231672008" departLane="free"/>
  <flow id="JF290190" begin="0" fromJunction="J3" toJunction="J5" end="60" vehsPerHour="60.565570004301456" departLane="free"/>
  <flow id="JF290191" begin="0" fromJunction="J3" toJunction="J4" end="60" vehsPerHour="11.362893341284613" departLane="free"/>
  <flow id="JF290192" begin="0" fromJunction="J3" toJunction="J6" end="60" vehsPerHour="43.698138836560084" departLane="free"/>
  <flow id="JF290193" begin="0" fromJunction="J0" toJunction="J7" end="60" vehsPerHour="42.9019427684484" departLane="free"/>
  <flow id="JF290194" begin="0" fromJunction="J0" toJunction="J5" end="60" vehsPerHour="105.9363096135701" departLane="free"/>
  <flow id="JF290195" begin="0" fromJunction="J0" toJunction="J4" end="60" vehsPerHour="133.9917934207754" departLane="free"/>
  <flow id="JF290196" begin="0" fromJunction="J0" toJunction="J6" end="60" vehsPerHour="60.26158916396082" departLane="free"/>
  <flow id="JF290197" begin="60" fromJunction="J3" toJunction="J0" end="120" vehsPerHour="8.908840756647157" departLane="free"/>
  <flow id="JF290198" begin="60" fromJunction="J0" toJunction="J3" end="120" vehsPerHour="441.59344730409305" departLane="free"/>
  <flow id="JF290199" begin="60" fromJunction="J3" toJunction="J7" end="120" vehsPerHour="131.8943797568456" departLane="free"/>
  <flow id="JF290200" begin="60" fromJunction="J3" toJunction="J5" end="120" vehsPerHour="32.41223780552156" departLane="free"/>
  <flow id="JF290201" begin="60" fromJunction="J3" toJunction="J4" end="120" vehsPerHour="110.08338818413169" departLane="free"/>
  <flow id="JF290202" begin="60" fromJunction="J3" toJunction="J6" end="120" vehsPerHour="9.768995832722098" departLane="free"/>
  <flow id="JF290203" begin="60" fromJunction="J0" toJunction="J7" end="120" vehsPerHour="41.877928468169394" departLane="free"/>
  <flow id="JF290204" begin="60" fromJunction="J0" toJunction="J5" end="120" vehsPerHour="89.94112791299179" departLane="free"/>
  <flow id="JF290205" begin="60" fromJunction="J0" toJunction="J4" end="120" vehsPerHour="7.9417220211630255" departLane="free"/>
  <flow id="JF290206" begin="60" fromJunction="J0" toJunction="J6" end="120" vehsPerHour="118.53439392573135" departLane="free"/>
  <flow id="JF290207" begin="60" fromJunction="J7" toJunction="J5" end="120" vehsPerHour="6.17881992796153" departLane="free"/>
  <flow id="JF290208" begin="60" fromJunction="J7" toJunction="J4" end="120" vehsPerHour="18.27004452615684" departLane="free"/>
  <flow id="JF290209" begin="60" fromJunction="J7" toJunction="J6" end="120" vehsPerHour="44.482444790631" departLane="free"/>
  <flow id="JF290210" begin="60" fromJunction="J5" toJunction="J7" end="120" vehsPerHour="0.49451991240796395" departLane="free"/>
  <flow id="JF290211" begin="60" fromJunction="J5" toJunction="J4" end="120" vehsPerHour="30.0201277759048" departLane="free"/>
  <flow id="JF290212" begin="60" fromJunction="J5" toJunction="J6" end="120" vehsPerHour="38.89293766775039" departLane="free"/>
  <flow id="JF290213" begin="60" fromJunction="J4" toJunction="J7" end="120" vehsPerHour="67.33356324821925" departLane="free"/>
  <flow id="JF290214" begin="60" fromJunction="J4" toJunction="J5" end="120" vehsPerHour="8.754954139449781" departLane="free"/>
  <flow id="JF290215" begin="60" fromJunction="J4" toJunction="J6" end="120" vehsPerHour="13.466642142760154" departLane="free"/>
  <flow id="JF290216" begin="60" fromJunction="J6" toJunction="J7" end="120" vehsPerHour="48.09622793160887" departLane="free"/>
  <flow id="JF290217" begin="60" fromJunction="J6" toJunction="J5" end="120" vehsPerHour="46.66416273399777" departLane="free"/>
  <flow id="JF290218" begin="60" fromJunction="J6" toJunction="J4" end="120" vehsPerHour="0.7930270469082112" departLane="free"/>
  <flow id="JF290219" begin="60" fromJunction="J7" toJunction="J3" end="120" vehsPerHour="4.033390230344161" departLane="free"/>
  <flow id="JF290220" begin="60" fromJunction="J7" toJunction="J0" end="120" vehsPerHour="61.26457339452449" departLane="free"/>
  <flow id="JF290221" begin="60" fromJunction="J5" toJunction="J3" end="120" vehsPerHour="27.37208390376653" departLane="free"/>
  <flow id="JF290222" begin="60" fromJunction="J5" toJunction="J0" end="120" vehsPerHour="21.953590357615436" departLane="free"/>
  <flow id="JF290223" begin="60" fromJunction="J4" toJunction="J3" end="120" vehsPerHour="60.15552984969807" departLane="free"/>
  <flow id="JF290224" begin="60" fromJunction="J4" toJunction="J0" end="120" vehsPerHour="6.215359524353041" departLane="free"/>
  <flow id="JF290225" begin="60" fromJunction="J6" toJunction="J3" end="120" vehsPerHour="67.98383447872017" departLane="free"/>
  <flow id="JF290226" begin="60" fromJunction="J6" toJunction="J0" end="120" vehsPerHour="67.1207223113971" departLane="free"/>
  <flow id="JF290227" begin="120" fromJunction="J3" toJunction="J0" end="180" vehsPerHour="517.2317558799623" departLane="free"/>
  <flow id="JF290228" begin="120" fromJunction="J0" toJunction="J3" end="180" vehsPerHour="331.30504853708607" departLane="free"/>
  <flow id="JF290229" begin="120" fromJunction="J3" toJunction="J7" end="180" vehsPerHour="90.78466474595595" departLane="free"/>
  <flow id="JF290230" begin="120" fromJunction="J3" toJunction="J5" end="180" vehsPerHour="96.82624586135968" departLane="free"/>
  <flow id="JF290231" begin="120" fromJunction="J3" toJunction="J4" end="180" vehsPerHour="102.32408615191565" departLane="free"/>
  <flow id="JF290232" begin="120" fromJunction="J3" toJunction="J6" end="180" vehsPerHour="37.66854607134504" departLane="free"/>
  <flow id="JF290233" begin="120" fromJunction="J0" toJunction="J7" end="180" vehsPerHour="7.248859393658741" departLane="free"/>
  <flow id="JF290234" begin="120" fromJunction="J0" toJunction="J5" end="180" vehsPerHour="110.3304931086144" departLane="free"/>
  <flow id="JF290235" begin="120" fromJunction="J0" toJunction="J4" end="180" vehsPerHour="137.00606411178376" departLane="free"/>
  <flow id="JF290236" begin="120" fromJunction="J0" toJunction="J6" end="180" vehsPerHour="114.09689203636196" departLane="free"/>
  <flow id="JF290237" begin="180" fromJunction="J3" toJunction="J0" end="240" vehsPerHour="243.75689898753038" departLane="free"/>
  <flow id="JF290238" begin="180" fromJunction="J0" toJunction="J3" end="240" vehsPerHour="40.849178309446664" departLane="free"/>
  <flow id="JF290239" begin="180" fromJunction="J3" toJunction="J7" end="240" vehsPerHour="127.18978665652818" departLane="free"/>
  <flow id="JF290240" begin="180" fromJunction="J3" toJunction="J5" end="240" vehsPerHour="55.87548614229888" departLane="free"/>
  <flow id="JF290241" begin="180" fromJunction="J3" toJunction="J4" end="240" vehsPerHour="41.96692590087705" departLane="free"/>
  <flow id="JF290242" begin="180" fromJunction="J3" toJunction="J6" end="240" vehsPerHour="13.096204491540448" departLane="free"/>
  <flow id="JF290243" begin="180" fromJunction="J0" toJunction="J7" end="240" vehsPerHour="32.317959013069824" departLane="free"/>
  <flow id="JF290244" begin="180" fromJunction="J0" toJunction="J5" end="240" vehsPerHour="127.7128762370254" departLane="free"/>
  <flow id="JF290245" begin="180" fromJunction="J0" toJunction="J4" end="240" vehsPerHour="23.449669862456503" departLane="free"/>
  <flow id="JF290246" begin="180" fromJunction="J0" toJunction="J6" end="240" vehsPerHour="26.168603438093857" departLane="free"/>
  <flow id="JF290247" begin="180" fromJunction="J7" toJunction="J5" end="240" vehsPerHour="16.32450704184014" departLane="free"/>
  <flow id="JF290248" begin="180" fromJunction="J7" toJunction="J4" end="240" vehsPerHour="30.926195097333682" departLane="free"/>
  <flow id="JF290249" begin="180" fromJunction="J7" toJunction="J6" end="240" vehsPerHour="60.75183125506745" departLane="free"/>
  <flow id="JF290250" begin="180" fromJunction="J5" toJunction="J7" end="240" vehsPerHour="57.22371693348536" departLane="free"/>
  <flow id="JF290251" begin="180" fromJunction="J5" toJunction="J4" end="240" vehsPerHour="56.99045545947002" departLane="free"/>
  <flow id="JF290252" begin="180" fromJunction="J5" toJunction="J6" end="240" vehsPerHour="7.37946486342572" departLane="free"/>
  <flow id="JF290253" begin="180" fromJunction="J4" toJunction="J7" end="240" vehsPerHour="12.742667588736246" departLane="free"/>
  <flow id="JF290254" begin="180" fromJunction="J4" toJunction="J5" end="240" vehsPerHour="10.16075378902967" departLane="free"/>
  <flow id="JF290255" begin="180" fromJunction="J4" toJunction="J6" end="240" vehsPerHour="29.794132893001354" departLane="free"/>
  <flow id="JF290256" begin="180" fromJunction="J6" toJunction="J7" end="240" vehsPerHour="35.26849077602481" departLane="free"/>
  <flow id="JF290257" begin="180" fromJunction="J6" toJunction="J5" end="240" vehsPerHour="31.209951586035324" departLane="free"/>
  <flow id="JF290258" begin="180" fromJunction="J6" toJunction="J4" end="240" vehsPerHour="5.055434029967132" departLane="free"/>
  <flow id="JF290259" begin="180" fromJunction="J7" toJunction="J3" end="240" vehsPerHour="27.976819277796533" departLane="free"/>
  <flow id="JF290260" begin="180" fromJunction="J7" toJunction="J0" end="240" vehsPerHour="62.51781042196071" departLane="free"/>
  <flow id="JF290261" begin="180" fromJunction="J5" toJunction="J3" end="240" vehsPerHour="15.069581889536337" departLane="free"/>
  <flow id="JF290262" begin="180" fromJunction="J5" toJunction="J0" end="240" vehsPerHour="39.998195064965806" departLane="free"/>
  <flow id="JF290263" begin="180" fromJunction="J4" toJunction="J3" end="240" vehsPerHour="15.963975323492612" departLane="free"/>
  <flow id="JF290264" begin="180" fromJunction="J4" toJunction="J0" end="240" vehsPerHour="29.58461904383824" departLane="free"/>
  <flow id="JF290265" begin="180" fromJunction="J6" toJunction="J3" end="240" vehsPerHour="58.43954753695711" departLane="free"/>
  <flow id="JF290266" begin="180" fromJunction="J6" toJunction="J0" end="240" vehsPerHour="4.314911534965504" departLane="free"/>
  <flow id="JF290267" begin="240" fromJunction="J3" toJunction="J0" end="300" vehsPerHour="271.8254653634097" departLane="free"/>
  <flow id="JF290268" begin="240" fromJunction="J0" toJunction="J3" end="300" vehsPerHour="495.68481021472957" departLane="free"/>
  <flow id="JF290269" begin="240" fromJunction="J3" toJunction="J7" end="300" vehsPerHour="17.703856306985905" departLane="free"/>
  <flow id="JF290270" begin="240" fromJunction="J3" toJunction="J5" end="300" vehsPerHour="14.40313337728566" departLane="free"/>
  <flow id="JF290271" begin="240" fromJunction="J3" toJunction="J4" end="300" vehsPerHour="50.75066742856182" departLane="free"/>
  <flow id="JF290272" begin="240" fromJunction="J3" toJunction="J6" end="300" vehsPerHour="58.07434520741184" departLane="free"/>
  <flow id="JF290273" begin="240" fromJunction="J0" toJunction="J7" end="300" vehsPerHour="63.71669633350313" departLane="free"/>
  <flow id="JF290274" begin="240" fromJunction="J0" toJunction="J5" end="300" vehsPerHour="107.64334798052525" departLane="free"/>
  <flow id="JF290275" begin="240" fromJunction="J0" toJunction="J4" end="300" vehsPerHour="82.37697421733363" departLane="free"/>
  <flow id="JF290276" begin="240" fromJunction="J0" toJunction="J6" end="300" vehsPerHour="47.79973947051093" departLane="free"/>
  <flow id="JF290277" begin="240" fromJunction="J7" toJunction="J5" end="300" vehsPerHour="57.43355608681757" departLane="free"/>
  <flow id="JF290278" begin="240" fromJunction="J7" toJunction="J4" end="300" vehsPerHour="27.83470577749514" departLane="free"/>
  <flow id="JF290279" begin="240" fromJunction="J7" toJunction="J6" end="300" vehsPerHour="58.24471968171406" departLane="free"/>
  <flow id="JF290280" begin="240" fromJunction="J5" toJunction="J7" end="300" vehsPerHour="6.663719391685729" departLane="free"/>
  <flow id="JF290281" begin="240" fromJunction="J5" toJunction="J4" end="300" vehsPerHour="35.280646286359854" departLane="free"/>
  <flow id="JF290282" begin="240" fromJunction="J5" toJunction="J6" end="300" vehsPerHour="29.65602841385449" departLane="free"/>
  <flow id="JF290283" begin="240" fromJunction="J4" toJunction="J7" end="300" vehsPerHour="0.41478758137546917" departLane="free"/>
  <flow id="JF290284" begin="240" fromJunction="J4" toJunction="J5" end="300" vehsPerHour="46.18166305958069" departLane="free"/>
  <flow id="JF290285" begin="240" fromJunction="J4" toJunction="J6" end="300" vehsPerHour="4.320368545462898" departLane="free"/>
  <flow id="JF290286" begin="240" fromJunction="J6" toJunction="J7" end="300" vehsPerHour="60.148528242362545" departLane="free"/>
  <flow id="JF290287" begin="240" fromJunction="J6" toJunction="J5" end="300" vehsPerHour="11.879347874856629" departLane="free"/>
  <flow id="JF290288" begin="240" fromJunction="J6" toJunction="J4" end="300" vehsPerHour="44.89097429236454" departLane="free"/>
  <flow id="JF290289" begin="240" fromJunction="J7" toJunction="J3" end="300" vehsPerHour="3.4595010527209418" departLane="free"/>
  <flow id="JF290290" begin="240" fromJunction="J7" toJunction="J0" end="300" vehsPerHour="6.322378381997648" departLane="free"/>
  <flow id="JF290291" begin="240" fromJunction="J5" toJunction="J3" end="300" vehsPerHour="48.766696650621974" departLane="free"/>
  <flow id="JF290292" begin="240" fromJunction="J5" toJunction="J0" end="300" vehsPerHour="59.00451661530527" departLane="free"/>
  <flow id="JF290293" begin="240" fromJunction="J4" toJunction="J3" end="300" vehsPerHour="9.459576636350002" departLane="free"/>
  <flow id="JF290294" begin="240" fromJunction="J4" toJunction="J0" end="300" vehsPerHour="16.488143473477052" departLane="free"/>
  <flow id="JF290295" begin="240" fromJunction="J6" toJunction="J3" end="300" vehsPerHour="23.44059620608176" departLane="free"/>
  <flow id="JF290296" begin="240" fromJunction="J6" toJunction="J0" end="300" vehsPerHour="48.108777284345265" departLane="free"/>
  <flow id="JF290297" begin="300" fromJunction="J3" toJunction="J0" end="360" vehsPerHour="311.61071065435647" departLane="free"/>
  <flow id="JF290298" begin="300" fromJunction="J0" toJunction="J3" end="360" vehsPerHour="455.6719581750239" departLane="free"/>
  <flow id="JF290299" begin="300" fromJunction="J3" toJunction="J7" end="360" vehsPerHour="129.17628389612943" departLane="free"/>
  <flow id="JF290300" begin="300" fromJunction="J3" toJunction="J5" end="360" vehsPerHour="51.335156955821624" departLane="free"/>
  <flow id="JF290301" begin="300" fromJunction="J3" toJunction="J4" end="360" vehsPerHour="26.331940420666477" departLane="free"/>
  <flow id="JF290302" begin="300" fromJunction="J3" toJunction="J6" end="360" vehsPerHour="112.84771373886909" departLane="free"/>
  <flow id="JF290303" begin="300" fromJunction="J0" toJunction="J7" end="360" vehsPerHour="35.1903372235103" departLane="free"/>
  <flow id="JF290304" begin="300" fromJunction="J0" toJunction="J5" end="360" vehsPerHour="89.04975804075163" departLane="free"/>
  <flow id="JF290305" begin="300" fromJunction="J0" toJunction="J4" end="360" vehsPerHour="42.66777253797162" departLane="free"/>
  <flow id="JF290306" begin="300" fromJunction="J0" toJunction="J6" end="360" vehsPerHour="34.02962968793335" departLane="free"/>
  <flow id="JF290307" begin="300" fromJunction="J7" toJunction="J5" end="360" vehsPerHour="46.0071912627383" departLane="free"/>
  <flow id="JF290308" begin="300" fromJunction="J7" toJunction="J4" end="360" vehsPerHour="14.48205881786781" departLane="free"/>
  <flow id="JF290309" begin="300" fromJunction="J7" toJunction="J6" end="360" vehsPerHour="39.44181392286585" departLane="free"/>
  <flow id="JF290310" begin="300" fromJunction="J5" toJunction="J7" end="360" vehsPerHour="32.19851783546698" departLane="free"/>
  <flow id="JF290311" begin="300" fromJunction="J5" toJunction="J4" end="360" vehsPerHour="38.21065438293215" departLane="free"/>
  <flow id="JF290312" begin="300" fromJunction="J5" toJunction="J6" end="360" vehsPerHour="53.470206087414844" departLane="free"/>
  <flow id="JF290313" begin="300" fromJunction="J4" toJunction="J7" end="360" vehsPerHour="4.362299772856653" departLane="free"/>
  <flow id="JF290314" begin="300" fromJunction="J4" toJunction="J5" end="360" vehsPerHour="28.020563091030294" departLane="free"/>
  <flow id="JF290315" begin="300" fromJunction="J4" toJunction="J6" end="360" vehsPerHour="15.342592285965308" departLane="free"/>
  <flow id="JF290316" begin="300" fromJunction="J6" toJunction="J7" end="360" vehsPerHour="63.117912648846456" departLane="free"/>
  <flow id="JF290317" begin="300" fromJunction="J6" toJunction="J5" end="360" vehsPerHour="51.91027054050082" departLane="free"/>
  <flow id="JF290318" begin="300" fromJunction="J6" toJunction="J4" end="360" vehsPerHour="6.317247832874569" departLane="free"/>
  <flow id="JF290319" begin="300" fromJunction="J7" toJunction="J3" end="360" vehsPerHour="2.4566846046624606" departLane="free"/>
  <flow id="JF290320" begin="300" fromJunction="J7" toJunction="J0" end="360" vehsPerHour="56.310719734481765" departLane="free"/>
  <flow id="JF290321" begin="300" fromJunction="J5" toJunction="J3" end="360" vehsPerHour="29.130824727055543" departLane="free"/>
  <flow id="JF290322" begin="300" fromJunction="J5" toJunction="J0" end="360" vehsPerHour="46.388203127057" departLane="free"/>
  <flow id="JF290323" begin="300" fromJunction="J4" toJunction="J3" end="360" vehsPerHour="59.787380799423254" departLane="free"/>
  <flow id="JF290324" begin="300" fromJunction="J4" toJunction="J0" end="360" vehsPerHour="40.492709914968245" departLane="free"/>
  <flow id="JF290325" begin="300" fromJunction="J6" toJunction="J3" end="360" vehsPerHour="16.119578300267996" departLane="free"/>
  <flow id="JF290326" begin="300" fromJunction="J6" toJunction="J0" end="360" vehsPerHour="64.54085230529797" departLane="free"/>
  <flow id="JF290327" begin="360" fromJunction="J3" toJunction="J0" end="420" vehsPerHour="542.7046959999202" departLane="free"/>
  <flow id="JF290328" begin="360" fromJunction="J0" toJunction="J3" end="420" vehsPerHour="24.38129181776644" departLane="free"/>
  <flow id="JF290329" begin="360" fromJunction="J3" toJunction="J7" end="420" vehsPerHour="99.63189722870459" departLane="free"/>
  <flow id="JF290330" begin="360" fromJunction="J3" toJunction="J5" end="420" vehsPerHour="98.31439857262045" departLane="free"/>
  <flow id="JF290331" begin="360" fromJunction="J3" toJunction="J4" end="420" vehsPerHour="106.77269150667034" departLane="free"/>
  <flow id="JF290332" begin="360" fromJunction="J3" toJunction="J6" end="420" vehsPerHour="7.260970268447247" departLane="free"/>
  <flow id="JF290333" begin="360" fromJunction="J0" toJunction="J7" end="420" vehsPerHour="7.94122461447579" departLane="free"/>
  <flow id="JF290334" begin="360" fromJunction="J0" toJunction="J5" end="420" vehsPerHour="71.4978170999728" departLane="free"/>
  <flow id="JF290335" begin="360" fromJunction="J0" toJunction="J4" end="420" vehsPerHour="61.96314497035379" departLane="free"/>
  <flow id="JF290336" begin="360" fromJunction="J0" toJunction="J6" end="420" vehsPerHour="88.83162299805838" departLane="free"/>
  <flow id="JF290337" begin="360" fromJunction="J7" toJunction="J5" end="420" vehsPerHour="16.72507400010482" departLane="free"/>
  <flow id="JF290338" begin="360" fromJunction="J7" toJunction="J4" end="420" vehsPerHour="45.98455933543654" departLane="free"/>
  <flow id="JF290339" begin="360" fromJunction="J7" toJunction="J6" end="420" vehsPerHour="20.110031297230528" departLane="free"/>
  <flow id="JF290340" begin="360" fromJunction="J5" toJunction="J7" end="420" vehsPerHour="52.65932032010868" departLane="free"/>
  <flow id="JF290341" begin="360" fromJunction="J5" toJunction="J4" end="420" vehsPerHour="42.37901451527617" departLane="free"/>
  <flow id="JF290342" begin="360" fromJunction="J5" toJunction="J6" end="420" vehsPerHour="67.41551741477093" departLane="free"/>
  <flow id="JF290343" begin="360" fromJunction="J4" toJunction="J7" end="420" vehsPerHour="62.52882936299539" departLane="free"/>
  <flow id="JF290344" begin="360" fromJunction="J4" toJunction="J5" end="420" vehsPerHour="25.412764558590723" departLane="free"/>
  <flow id="JF290345" begin="360" fromJunction="J4" toJunction="J6" end="420" vehsPerHour="47.379896115412016" departLane="free"/>
  <flow id="JF290346" begin="360" fromJunction="J6" toJunction="J7" end="420" vehsPerHour="41.908316134238646" departLane="free"/>
  <flow id="JF290347" begin="360" fromJunction="J6" toJunction="J5" end="420" vehsPerHour="41.524884201768344" departLane="free"/>
  <flow id="JF290348" begin="360" fromJunction="J6" toJunction="J4" end="420" vehsPerHour="18.195018187971904" departLane="free"/>
  <flow id="JF290349" begin="360" fromJunction="J7" toJunction="J3" end="420" vehsPerHour="66.8599241290972" departLane="free"/>
  <flow id="JF290350" begin="360" fromJunction="J7" toJunction="J0" end="420" vehsPerHour="34.17722867286971" departLane="free"/>
  <flow id="JF290351" begin="360" fromJunction="J5" toJunction="J3" end="420" vehsPerHour="17.88556591839709" departLane="free"/>
  <flow id="JF290352" begin="360" fromJunction="J5" toJunction="J0" end="420" vehsPerHour="24.790450631933798" departLane="free"/>
  <flow id="JF290353" begin="360" fromJunction="J4" toJunction="J3" end="420" vehsPerHour="53.45288611277824" departLane="free"/>
  <flow id="JF290354" begin="360" fromJunction="J4" toJunction="J0" end="420" vehsPerHour="67.45255307719421" departLane="free"/>
  <flow id="JF290355" begin="360" fromJunction="J6" toJunction="J3" end="420" vehsPerHour="14.94032341609569" departLane="free"/>
  <flow id="JF290356" begin="360" fromJunction="J6" toJunction="J0" end="420" vehsPerHour="2.596224645212775" departLane="free"/>
  <flow id="JF290357" begin="420" fromJunction="J3" toJunction="J0" end="480" vehsPerHour="319.4724305975004" departLane="free"/>
  <flow id="JF290358" begin="420" fromJunction="J0" toJunction="J3" end="480" vehsPerHour="432.68931280091556" departLane="free"/>
  <flow id="JF290359" begin="420" fromJunction="J3" toJunction="J7" end="480" vehsPerHour="71.82388196409609" departLane="free"/>
  <flow id="JF290360" begin="420" fromJunction="J3" toJunction="J5" end="480" vehsPerHour="28.617839073831373" departLane="free"/>
  <flow id="JF290361" begin="420" fromJunction="J3" toJunction="J4" end="480" vehsPerHour="5.662865851440245" departLane="free"/>
  <flow id="JF290362" begin="420" fromJunction="J3" toJunction="J6" end="480" vehsPerHour="128.6057209405401" departLane="free"/>
  <flow id="JF290363" begin="420" fromJunction="J0" toJunction="J7" end="480" vehsPerHour="24.01310096959084" departLane="free"/>
  <flow id="JF290364" begin="420" fromJunction="J0" toJunction="J5" end="480" vehsPerHour="79.27364933796916" departLane="free"/>
  <flow id="JF290365" begin="420" fromJunction="J0" toJunction="J4" end="480" vehsPerHour="10.033471001150883" departLane="free"/>
  <flow id="JF290366" begin="420" fromJunction="J0" toJunction="J6" end="480" vehsPerHour="135.41302058186952" departLane="free"/>
  <flow id="JF290367" begin="420" fromJunction="J7" toJunction="J5" end="480" vehsPerHour="48.74541767436599" departLane="free"/>
  <flow id="JF290368" begin="420" fromJunction="J7" toJunction="J4" end="480" vehsPerHour="15.508416719173528" departLane="free"/>
  <flow id="JF290369" begin="420" fromJunction="J7" toJunction="J6" end="480" vehsPerHour="20.298857799199915" departLane="free"/>
  <flow id="JF290370" begin="420" fromJunction="J5" toJunction="J7" end="480" vehsPerHour="26.5260453591822" departLane="free"/>
  <flow id="JF290371" begin="420" fromJunction="J5" toJunction="J4" end="480" vehsPerHour="23.85957973154655" departLane="free"/>
  <flow id="JF290372" begin="420" fromJunction="J5" toJunction="J6" end="480" vehsPerHour="60.21021609189322" departLane="free"/>
  <flow id="JF290373" begin="420" fromJunction="J4" toJunction="J7" end="480" vehsPerHour="1.8752208009439393" departLane="free"/>
  <flow id="JF290374" begin="420" fromJunction="J4" toJunction="J5" end="480" vehsPerHour="20.48864329021083" departLane="free"/>
  <flow id="JF290375" begin="420" fromJunction="J4" toJunction="J6" end="480" vehsPerHour="63.50737802691264" departLane="free"/>
  <flow id="JF290376" begin="420" fromJunction="J6" toJunction="J7" end="480" vehsPerHour="28.282527601332355" departLane="free"/>
  <flow id="JF290377" begin="420" fromJunction="J6" toJunction="J5" end="480" vehsPerHour="14.176923910067723" departLane="free"/>
  <flow id="JF290378" begin="420" fromJunction="J6" toJunction="J4" end="480" vehsPerHour="60.02549806186415" departLane="free"/>
  <flow id="JF290379" begin="420" fromJunction="J7" toJunction="J3" end="480" vehsPerHour="19.17904713150121" departLane="free"/>
  <flow id="JF290380" begin="420" fromJunction="J7" toJunction="J0" end="480" vehsPerHour="16.655946610456667" departLane="free"/>
  <flow id="JF290381" begin="420" fromJunction="J5" toJunction="J3" end="480" vehsPerHour="7.927081466256463" departLane="free"/>
  <flow id="JF290382" begin="420" fromJunction="J5" toJunction="J0" end="480" vehsPerHour="57.062128229922415" departLane="free"/>
  <flow id="JF290383" begin="420" fromJunction="J4" toJunction="J3" end="480" vehsPerHour="53.55950743559014" departLane="free"/>
  <flow id="JF290384" begin="420" fromJunction="J4" toJunction="J0" end="480" vehsPerHour="63.97148433053206" departLane="free"/>
  <flow id="JF290385" begin="420" fromJunction="J6" toJunction="J3" end="480" vehsPerHour="53.213093411809375" departLane="free"/>
  <flow id="JF290386" begin="420" fromJunction="J6" toJunction="J0" end="480" vehsPerHour="63.99254129259811" departLane="free"/>
  <flow id="JF290387" begin="480" fromJunction="J3" toJunction="J0" end="540" vehsPerHour="328.0705455249736" departLane="free"/>
  <flow id="JF290388" begin="480" fromJunction="J0" toJunction="J3" end="540" vehsPerHour="424.2890529062959" departLane="free"/>
  <flow id="JF290389" begin="480" fromJunction="J3" toJunction="J7" end="540" vehsPerHour="53.68787469980383" departLane="free"/>
  <flow id="JF290390" begin="480" fromJunction="J3" toJunction="J5" end="540" vehsPerHour="35.57022933428436" departLane="free"/>
  <flow id="JF290391" begin="480" fromJunction="J3" toJunction="J4" end="540" vehsPerHour="116.20266095409407" departLane="free"/>
  <flow id="JF290392" begin="480" fromJunction="J3" toJunction="J6" end="540" vehsPerHour="0.725034722431598" departLane="free"/>
  <flow id="JF290393" begin="480" fromJunction="J0" toJunction="J7" end="540" vehsPerHour="51.523550229399" departLane="free"/>
  <flow id="JF290394" begin="480" fromJunction="J0" toJunction="J5" end="540" vehsPerHour="52.41242794128039" departLane="free"/>
  <flow id="JF290395" begin="480" fromJunction="J0" toJunction="J4" end="540" vehsPerHour="83.33953550872405" departLane="free"/>
  <flow id="JF290396" begin="480" fromJunction="J0" toJunction="J6" end="540" vehsPerHour="125.56360023451178" departLane="free"/>
  <flow id="JF290397" begin="480" fromJunction="J7" toJunction="J5" end="540" vehsPerHour="35.01928799225303" departLane="free"/>
  <flow id="JF290398" begin="480" fromJunction="J7" toJunction="J4" end="540" vehsPerHour="52.79456466854878" departLane="free"/>
  <flow id="JF290399" begin="480" fromJunction="J7" toJunction="J6" end="540" vehsPerHour="7.943410556781168" departLane="free"/>
  <flow id="JF290400" begin="480" fromJunction="J5" toJunction="J7" end="540" vehsPerHour="3.3531855157009156" departLane="free"/>
  <flow id="JF290401" begin="480" fromJunction="J5" toJunction="J4" end="540" vehsPerHour="37.3018904645423" departLane="free"/>
  <flow id="JF290402" begin="480" fromJunction="J5" toJunction="J6" end="540" vehsPerHour="33.240063292218196" departLane="free"/>
  <flow id="JF290403" begin="480" fromJunction="J4" toJunction="J7" end="540" vehsPerHour="56.174942804016624" departLane="free"/>
  <flow id="JF290404" begin="480" fromJunction="J4" toJunction="J5" end="540" vehsPerHour="64.94660585528581" departLane="free"/>
  <flow id="JF290405" begin="480" fromJunction="J4" toJunction="J6" end="540" vehsPerHour="21.2270652807774" departLane="free"/>
  <flow id="JF290406" begin="480" fromJunction="J6" toJunction="J7" end="540" vehsPerHour="57.4513097455141" departLane="free"/>
  <flow id="JF290407" begin="480" fromJunction="J6" toJunction="J5" end="540" vehsPerHour="22.5089280841683" departLane="free"/>
  <flow id="JF290408" begin="480" fromJunction="J6" toJunction="J4" end="540" vehsPerHour="13.312014200074879" departLane="free"/>
  <flow id="JF290409" begin="480" fromJunction="J7" toJunction="J3" end="540" vehsPerHour="35.42815424237954" departLane="free"/>
  <flow id="JF290410" begin="480" fromJunction="J7" toJunction="J0" end="540" vehsPerHour="21.95157639935381" departLane="free"/>
  <flow id="JF290411" begin="480" fromJunction="J5" toJunction="J3" end="540" vehsPerHour="9.727557626724053" departLane="free"/>
  <flow id="JF290412" begin="480" fromJunction="J5" toJunction="J0" end="540" vehsPerHour="9.316347295017401" departLane="free"/>
  <flow id="JF290413" begin="480" fromJunction="J4" toJunction="J3" end="540" vehsPerHour="35.03029278755014" departLane="free"/>
  <flow id="JF290414" begin="480" fromJunction="J4" toJunction="J0" end="540" vehsPerHour="38.386616802399026" departLane="free"/>
  <flow id="JF290415" begin="480" fromJunction="J6" toJunction="J3" end="540" vehsPerHour="67.74877249354188" departLane="free"/>