<?xml version="1.0" encoding="UTF-8"?>
<routes xmlns:xsi="http://www.w3.org/2001/XMLSchema-instance" xsi:noNamespaceSchemaLocation="http://sumo.dlr.de/xsd/routes_file.xsd">
  <flow id="JF305198" begin="0" fromJunction="J3" toJunction="J0" end="60" vehsPerHour="502.036707079493" departLane="free"/>
  <flow id="JF305199" begin="0" fromJunction="J0" toJunction="J3" end="60" vehsPerHour="272.76973714563945" departLane="free"/>
  <flow id="JF305200" begin="0" fromJunction="J3" toJunction="J7" end="60" vehsPerHour="131.0324528197429" departLane="free"/>
  <flow id="JF305201" begin="0" fromJunction="J3" toJunction="J5" end="60" vehsPerHour="80.83507981344745" departLane="free"/>
  <flow id="JF305202" begin="0" fromJunction="J3" toJunction="J4" end="60" vehsPerHour="60.271234009548934" departLane="free"/>
  <flow id="JF305203" begin="0" fromJunction="J3" toJunction="J6" end="60" vehsPerHour="122.9315014305719" departLane="free"/>
  <flow id="JF305204" begin="0" fromJunction="J0" toJunction="J7" end="60" vehsPerHour="84.24678438111215" departLane="free"/>
  <flow id="JF305205" begin="0" fromJunction="J0" toJunction="J5" end="60" vehsPerHour="19.36862849038188" departLane="free"/>
  <flow id="JF305206" begin="0" fromJunction="J0" toJunction="J4" end="60" vehsPerHour="26.822226243972473" departLane="free"/>
  <flow id="JF305207" begin="0" fromJunction="J0" toJunction="J6" end="60" vehsPerHour="98.8462383285037" departLane="free"/>
  <flow id="JF305208" begin="60" fromJunction="J3" toJunction="J0" end="120" vehsPerHour="230.50531347706826" departLane="free"/>
  <flow id="JF305209" begin="60" fromJunction="J0" toJunction="J3" end="120" vehsPerHour="495.1496678372637" departLane="free"/>
  <flow id="JF305210" begin="60" fromJunction="J3" toJunction="J7" end="120" vehsPerHour="37.099972788215304" departLane="free"/>
  <flow id="JF305211" begin="60" fromJunction="J3" toJunction="J5" end="120" vehsPerHour="110.0505432320211" departLane="free"/>
  <flow id="JF305212" begin="60" fromJunction="J3" toJunction="J4" end="120" vehsPerHour="101.41195382897487" departLane="free"/>
  <flow id="JF305213" begin="60" fromJunction="J3" toJunction="J6" end="120" vehsPerHour="50.25306205294844" departLane="free"/>
  <flow id="JF305214" begin="60" fromJunction="J0" toJunction="J7" end="120" vehsPerHour="83.07911094978573" departLane="free"/>
  <flow id="JF305215" begin="60" fromJunction="J0" toJunction="J5" end="120" vehsPerHour="62.86020626316461" departLane="free"/>
  <flow id="JF305216" begin="60" fromJunction="J0" toJunction="J4" end="120" vehsPerHour="70.94409830853506" departLane="free"/>
  <flow id="JF305217" begin="60" fromJunction="J0" toJunction="J6" end="120" vehsPerHour="37.69689052304542" departLane="free"/>
  <flow id="JF305218" begin="60" fromJunction="J7" toJunction="J5" end="120" vehsPerHour="9.12444421526047" departLane="free"/>
  <flow id="JF305219" begin="60" fromJunction="J7" toJunction="J4" end="120" vehsPerHour="27.84166143607365" departLane="free"/>
  <flow id="JF305220" begin="60" fromJunction="J7" toJunction="J6" end="120" vehsPerHour="36.3944084194834" departLane="free"/>
  <flow id="JF305221" begin="60" fromJunction="J5" toJunction="J7" end="120" vehsPerHour="56.33305379649429" departLane="free"/>
  <flow id="JF305222" begin="60" fromJunction="J5" toJunction="J4" end="120" vehsPerHour="10.787536429937068" departLane="free"/>
  <flow id="JF305223" begin="60" fromJunction="J5" toJunction="J6" end="120" vehsPerHour="17.07667600669224" departLane="free"/>
  <flow id="JF305224" begin="60" fromJunction="J4" toJunction="J7" end="120" vehsPerHour="6.555355511720595" departLane="free"/>
  <flow id="JF305225" begin="60" fromJunction="J4" toJunction="J5" end="120" vehsPerHour="63.97979998138467" departLane="free"/>
  <flow id="JF305226" begin="60" fromJunction="J4" toJunction="J6" end="120" vehsPerHour="46.69739843106583" departLane="free"/>
  <flow id="JF305227" begin="60" fromJunction="J6" toJunction="J7" end="120" vehsPerHour="48.65117088207686" departLane="free"/>
  <flow id="JF305228" begin="60" fromJunction="J6" toJunction="J5" end="120" vehsPerHour="44.50411166947143" departLane="free"/>
  <flow id="JF305229" begin="60" fromJunction="J6" toJunction="J4" end="120" vehsPerHour="55.55815082759448" departLane="free"/>
  <flow id="JF305230" begin="60" fromJunction="J7" toJunction="J3" end="120" vehsPerHour="47.41361121030714" departLane="free"/>
  <flow id="JF305231" begin="60" fromJunction="J7" toJunction="J0" end="120" vehsPerHour="14.862585573171073" departLane="free"/>
  <flow id="JF305232" begin="60" fromJunction="J5" toJunction="J3" end="120" vehsPerHour="28.894169942881042" departLane="free"/>
  <flow id="JF305233" begin="60" fromJunction="J5" toJunction="J0" end="120" vehsPerHour="6.56419753980158" departLane="free"/>
  <flow id="JF305234" begin="60" fromJunction="J4" toJunction="J3" end="120" vehsPerHour="4.092911691373338" departLane="free"/>
  <flow id="JF305235" begin="60" fromJunction="J4" toJunction="J0" end="120" vehsPerHour="58.214549718583434" departLane="free"/>
  <flow id="JF305236" begin="60" fromJunction="J6" toJunction="J3" end="120" vehsPerHour="47.25579911853152" departLane="free"/>
  <flow id="JF305237" begin="60" fromJunction="J6" toJunction="J0" end="120" vehsPerHour="57.06137574289386" departLane="free"/>
  <flow id="JF305238" begin="120" fromJunction="J3" toJunction="J0" end="180" vehsPerHour="176.3556761287026" departLane="free"/>
  <flow id="JF305239" begin="120" fromJunction="J0" toJunction="J3" end="180" vehsPerHour="63.693317210108845" departLane="free"/>
  <flow id="JF305240" begin="120" fromJunction="J3" toJunction="J7" end="180" vehsPerHour="128.86480695014004" departLane="free"/>
  <flow id="JF305241" begin="120" fromJunction="J3" toJunction="J5" end="180" vehsPerHour="92.85936105407758" departLane="free"/>
  <flow id="JF305242" begin="120" fromJunction="J3" toJunction="J4" end="180" vehsPerHour="111.72633228807953" departLane="free"/>
  <flow id="JF305243" begin="120" fromJunction="J3" toJunction="J6" end="180" vehsPerHour="88.77484290040252" departLane="free"/>
  <flow id="JF305244" begin="120" fromJunction="J0" toJunction="J7" end="180" vehsPerHour="39.362759532823446" departLane="free"/>
  <flow id="JF305245" begin="120" fromJunction="J0" toJunction="J5" end="180" vehsPerHour="61.84687810650959" departLane="free"/>
  <flow id="JF305246" begin="120" fromJunction="J0" toJunction="J4" end="180" vehsPerHour="100.9620788849889" departLane="free"/>
  <flow id="JF305247" begin="120" fromJunction="J0" toJunction="J6" end="180" vehsPerHour="62.292953633515765" departLane="free"/>
  <flow id="JF305248" begin="120" fromJunction="J7" toJunction="J5" end="180" vehsPerHour="22.407378060705376" departLane="free"/>
  <flow id="JF305249" begin="120" fromJunction="J7" toJunction="J4" end="180" vehsPerHour="42.49294101929664" departLane="free"/>
  <flow id="JF305250" begin="120" fromJunction="J7" toJunction="J6" end="180" vehsPerHour="13.101261538405593" departLane="free"/>
  <flow id="JF305251" begin="120" fromJunction="J5" toJunction="J7" end="180" vehsPerHour="41.31817057694792" departLane="free"/>
  <flow id="JF305252" begin="120" fromJunction="J5" toJunction="J4" end="180" vehsPerHour="13.257617304522983" departLane="free"/>
  <flow id="JF305253" begin="120" fromJunction="J5" toJunction="J6" end="180" vehsPerHour="46.39501044351161" departLane="free"/>
  <flow id="JF305254" begin="120" fromJunction="J4" toJunction="J7" end="180" vehsPerHour="56.96492882170356" departLane="free"/>
  <flow id="JF305255" begin="120" fromJunction="J4" toJunction="J5" end="180" vehsPerHour="17.10574464371464" departLane="free"/>
  <flow id="JF305256" begin="120" fromJunction="J4" toJunction="J6" end="180" vehsPerHour="2.0340046794494184" departLane="free"/>
  <flow id="JF305257" begin="120" fromJunction="J6" toJunction="J7" end="180" vehsPerHour="29.73435699464453" departLane="free"/>
  <flow id="JF305258" begin="120" fromJunction="J6" toJunction="J5" end="180" vehsPerHour="53.28625249430092" departLane="free"/>
  <flow id="JF305259" begin="120" fromJunction="J6" toJunction="J4" end="180" vehsPerHour="58.40796677339784" departLane="free"/>
  <flow id="JF305260" begin="120" fromJunction="J7" toJunction="J3" end="180" vehsPerHour="20.42289991649613" departLane="free"/>
  <flow id="JF305261" begin="120" fromJunction="J7" toJunction="J0" end="180" vehsPerHour="40.43296376322093" departLane="free"/>
  <flow id="JF305262" begin="120" fromJunction="J5" toJunction="J3" end="180" vehsPerHour="49.651563774765506" departLane="free"/>
  <flow id="JF305263" begin="120" fromJunction="J5" toJunction="J0" end="180" vehsPerHour="27.879207358757093" departLane="free"/>
  <flow id="JF305264" begin="120" fromJunction="J4" toJunction="J3" end="180" vehsPerHour="39.15925362526932" departLane="free"/>
  <flow id="JF305265" begin="120" fromJunction="J4" toJunction="J0" end="180" vehsPerHour="66.17918764590836" departLane="free"/>
  <flow id="JF305266" begin="120" fromJunction="J6" toJunction="J3" end="180" vehsPerHour="58.72788677434385" departLane="free"/>
  <flow id="JF305267" begin="120" fromJunction="J6" toJunction="J0" end="180" vehsPerHour="55.622708041809695" departLane="free"/>
  <flow id="JF305268" begin="180" fromJunction="J3" toJunction="J0" end="240" vehsPerHour="139.84689292865525" departLane="free"/>
  <flow id="JF305269" begin="180" fromJunction="J0" toJunction="J3" end="240" vehsPerHour="502.9351832282241" departLane="free"/>
  <flow id="JF305270" begin="180" fromJunction="J3" toJunction="J7" end="240" vehsPerHour="77.42980464395627" departLane="free"/>
  <flow id="JF305271" begin="180" fromJunction="J3" toJunction="J5" end="240" vehsPerHour="49.09261485081956" departLane="free"/>
  <flow id="JF305272" begin="180" fromJunction="J3" toJunction="J4" end="240" vehsPerHour="11.15051187330822" departLane="free"/>
  <flow id="JF305273" begin="180" fromJunction="J3" toJunction="J6" end="240" vehsPerHour="122.88515985677172" departLane="free"/>
  <flow id="JF305274" begin="180" fromJunction="J0" toJunction="J7" end="240" vehsPerHour="70.75752877572744" departLane="free"/>
  <flow id="JF305275" begin="180" fromJunction="J0" toJunction="J5" end="240" vehsPerHour="131.62495518555696" departLane="free"/>
  <flow id="JF305276" begin="180" fromJunction="J0" toJunction="J4" end="240" vehsPerHour="31.922492757092968" departLane="free"/>
  <flow id="JF305277" begin="180" fromJunction="J0" toJunction="J6" end="240" vehsPerHour="121.77320545945716" departLane="free"/>
  <flow id="JF305278" begin="180" fromJunction="J7" toJunction="J5" end="240" vehsPerHour="49.082954816462056" departLane="free"/>
  <flow id="JF305279" begin="180" fromJunction="J7" toJunction="J4" end="240" vehsPerHour="67.00881528719096" departLane="free"/>
  <flow id="JF305280" begin="180" fromJunction="J7" toJunction="J6" end="240" vehsPerHour="7.358188866216304" departLane="free"/>
  <flow id="JF305281" begin="180" fromJunction="J5" toJunction="J7" end="240" vehsPerHour="48.66551359512832" departLane="free"/>
  <flow id="JF305282" begin="180" fromJunction="J5" toJunction="J4" end="240" vehsPerHour="30.060032232139093" departLane="free"/>
  <flow id="JF305283" begin="180" fromJunction="J5" toJunction="J6" end="240" vehsPerHour="12.649672420483194" departLane="free"/>
  <flow id="JF305284" begin="180" fromJunction="J4" toJunction="J7" end="240" vehsPerHour="15.511594134141959" departLane="free"/>
  <flow id="JF305285" begin="180" fromJunction="J4" toJunction="J5" end="240" vehsPerHour="22.516753219872708" departLane="free"/>
  <flow id="JF305286" begin="180" fromJunction="J4" toJunction="J6" end="240" vehsPerHour="62.80591135708899" departLane="free"/>
  <flow id="JF305287" begin="180" fromJunction="J6" toJunction="J7" end="240" vehsPerHour="54.242373568945126" departLane="free"/>
  <flow id="JF305288" begin="180" fromJunction="J6" toJunction="J5" end="240" vehsPerHour="31.5345873633387" departLane="free"/>
  <flow id="JF305289" begin="180" fromJunction="J6" toJunction="J4" end="240" vehsPerHour="40.60827858468568" departLane="free"/>
  <flow id="JF305290" begin="180" fromJunction="J7" toJunction="J3" end="240" vehsPerHour="62.65217317991942" departLane="free"/>
  <flow id="JF305291" begin="180" fromJunction="J7" toJunction="J0" end="240" vehsPerHour="28.978143490724957" departLane="free"/>
  <flow id="JF305292" begin="180" fromJunction="J5" toJunction="J3" end="240" vehsPerHour="2.5902968721897315" departLane="free"/>
  <flow id="JF305293" begin="180" fromJunction="J5" toJunction="J0" end="240" vehsPerHour="29.879231489179194" departLane="free"/>
  <flow id="JF305294" begin="180" fromJunction="J4" toJunction="J3" end="240" vehsPerHour="34.95360142460258" departLane="free"/>
  <flow id="JF305295" begin="180" fromJunction="J4" toJunction="J0" end="240" vehsPerHour="19.27108011759511" departLane="free"/>
  <flow id="JF305296" begin="180" fromJunction="J6" toJunction="J3" end="240" vehsPerHour="2.6653265293867485" departLane="free"/>
  <flow id="JF305297" begin="180" fromJunction="J6" toJunction="J0" end="240" vehsPerHour="23.529962701597658" departLane="free"/>
  <flow id="JF305298" begin="240" fromJunction="J3" toJunction="J0" end="300" vehsPerHour="286.31159830636295" departLane="free"/>
  <flow id="JF305299" begin="240" fromJunction="J0" toJunction="J3" end="300" vehsPerHour="22.794445415503407" departLane="free"/>
  <flow id="JF305300" begin="240" fromJunction="J3" toJunction="J7" end="300" vehsPerHour="85.78587678002314" departLane="free"/>
  <flow id="JF305301" begin="240" fromJunction="J3" toJunction="J5" end="300" vehsPerHour="71.29740635774922" departLane="free"/>
  <flow id="JF305302" begin="240" fromJunction="J3" toJunction="J4" end="300" vehsPerHour="81.23601503517732" departLane="free"/>
  <flow id="JF305303" begin="240" fromJunction="J3" toJunction="J6" end="300" vehsPerHour="32.7512505192624" departLane="free"/>
  <flow id="JF305304" begin="240" fromJunction="J0" toJunction="J7" end="300" vehsPerHour="101.3184140817036" departLane="free"/>
  <flow id="JF305305" begin="240" fromJunction="J0" toJunction="J5" end="300" vehsPerHour="97.52569021907507" departLane="free"/>
  <flow id="JF305306" begin="240" fromJunction="J0" toJunction="J4" end="300" vehsPerHour="78.35655503216684" departLane="free"/>
  <flow id="JF305307" begin="240" fromJunction="J0" toJunction="J6" end="300" vehsPerHour="38.54304659333516" departLane="free"/>
  <flow id="JF305308" begin="240" fromJunction="J7" toJunction="J5" end="300" vehsPerHour="2.6770682301902546" departLane="free"/>
  <flow id="JF305309" begin="240" fromJunction="J7" toJunction="J4" end="300" vehsPerHour="4.37744856034671" departLane="free"/>
  <flow id="JF305310" begin="240" fromJunction="J7" toJunction="J6" end="300" vehsPerHour="20.36048503533193" departLane="free"/>
  <flow id="JF305311" begin="240" fromJunction="J5" toJunction="J7" end="300" vehsPerHour="3.440568030011009" departLane="free"/>
  <flow id="JF305312" begin="240" fromJunction="J5" toJunction="J4" end="300" vehsPerHour="41.16958756214093" departLane="free"/>
  <flow id="JF305313" begin="240" fromJunction="J5" toJunction="J6" end="300" vehsPerHour="32.36436836794956" departLane="free"/>
  <flow id="JF305314" begin="240" fromJunction="J4" toJunction="J7" end="300" vehsPerHour="64.28915187543585" departLane="free"/>
  <flow id="JF305315" begin="240" fromJunction="J4" toJunction="J5" end="300" vehsPerHour="1.1498081357623917" departLane="free"/>
  <flow id="JF305316" begin="240" fromJunction="J4" toJunction="J6" end="300" vehsPerHour="44.981413228718296" departLane="free"/>
  <flow id="JF305317" begin="240" fromJunction="J6" toJunction="J7" end="300" vehsPerHour="64.25582534157154" departLane="free"/>
  <flow id="JF305318" begin="240" fromJunction="J6" toJunction="J5" end="300" vehsPerHour="34.91261301461623" departLane="free"/>
  <flow id="JF305319" begin="240" fromJunction="J6" toJunction="J4" end="300" vehsPerHour="28.021297088045163" departLane="free"/>
  <flow id="JF305320" begin="240" fromJunction="J7" toJunction="J3" end="300" vehsPerHour="24.09632895431555" departLane="free"/>
  <flow id="JF305321" begin="240" fromJunction="J7" toJunction="J0" end="300" vehsPerHour="7.250296625345165" departLane="free"/>
  <flow id="JF305322" begin="240" fromJunction="J5" toJunction="J3" end="300" vehsPerHour="20.101638251711062" departLane="free"/>
  <flow id="JF305323" begin="240" fromJunction="J5" toJunction="J0" end="300" vehsPerHour="6.500914636713848" departLane="free"/>
  <flow id="JF305324" begin="240" fromJunction="J4" toJunction="J3" end="300" vehsPerHour="44.80227803401367" departLane="free"/>
  <flow id="JF305325" begin="240" fromJunction="J4" toJunction="J0" end="300" vehsPerHour="51.90184852604765" departLane="free"/>
  <flow id="JF305326" begin="240" fromJunction="J6" toJunction="J3" end="300" vehsPerHour="8.814057524390075" departLane="free"/>
  <flow id="JF305327" begin="240" fromJunction="J6" toJunction="J0" end="300" vehsPerHour="53.76669748881613" departLane="free"/>
  <flow id="JF305328" begin="300" fromJunction="J3" toJunction="J0" end="360" vehsPerHour="294.7598618897973" departLane="free"/>
  <flow id="JF305329" begin="300" fromJunction="J0" toJunction="J3" end="360" vehsPerHour="88.4213139228765" departLane="free"/>
  <flow id="JF305330" begin="300" fromJunction="J3" toJunction="J7" end="360" vehsPerHour="94.83653452328939" departLane="free"/>
  <flow id="JF305331" begin="300" fromJunction="J3" toJunction="J5" end="360" vehsPerHour="2.3440221611208973" departLane="free"/>
  <flow id="JF305332" begin="300" fromJunction="J3" toJunction="J4" end="360" vehsPerHour="118.608366183116" departLane="free"/>
  <flow id="JF305333" begin="300" fromJunction="J3" toJunction="J6" end="360" vehsPerHour="115.71068139034695" departLane="free"/>
  <flow id="JF305334" begin="300" fromJunction="J0" toJunction="J7" end="360" vehsPerHour="19.298852119006984" departLane="free"/>
  <flow id="JF305335" begin="300" fromJunction="J0" toJunction="J5" end="360" vehsPerHour="9.30501233538383" departLane="free"/>
  <flow id="JF305336" begin="300" fromJunction="J0" toJunction="J4" end="360" vehsPerHour="75.60970662665463" departLane="free"/>
  <flow id="JF305337" begin="300" fromJunction="J0" toJunction="J6" end="360" vehsPerHour="18.952818899311147" departLane="free"/>
  <flow id="JF305338" begin="300" fromJunction="J7" toJunction="J5" end="360" vehsPerHour="64.96309877128947" departLane="free"/>
  <flow id="JF305339" begin="300" fromJunction="J7" toJunction="J4" end="360" vehsPerHour="39.876162676843926" departLane="free"/>
  <flow id="JF305340" begin="300" fromJunction="J7" toJunction="J6" end="360" vehsPerHour="67.1904067361251" departLane="free"/>
  <flow id="JF305341" begin="300" fromJunction="J5" toJunction="J7" end="360" vehsPerHour="37.03671108081166" departLane="free"/>
  <flow id="JF305342" begin="300" fromJunction="J5" toJunction="J4" end="360" vehsPerHour="24.57795342255422" departLane="free"/>
  <flow id="JF305343" begin="300" fromJunction="J5" toJunction="J6" end="360" vehsPerHour="50.45076168793467" departLane="free"/>
  <flow id="JF305344" begin="300" fromJunction="J4" toJunction="J7" end="360" vehsPerHour="11.603519630188158" departLane="free"/>
  <flow id="JF305345" begin="300" fromJunction="J4" toJunction="J5" end="360" vehsPerHour="65.90994059942572" departLane="free"/>
  <flow id="JF305346" begin="300" fromJunction="J4" toJunction="J6" end="360" vehsPerHour="30.212902513466858" departLane="free"/>
  <flow id="JF305347" begin="300" fromJunction="J6" toJunction="J7" end="360" vehsPerHour="1.7204298309725512" departLane="free"/>
  <flow id="JF305348" begin="300" fromJunction="J6" toJunction="J5" end="360" vehsPerHour="24.6045339962916" departLane="free"/>
  <flow id="JF305349" begin="300" fromJunction="J6" toJunction="J4" end="360" vehsPerHour="49.72451008054243" departLane="free"/>
  <flow id="JF305350" begin="300" fromJunction="J7" toJunction="J3" end="360" vehsPerHour="31.01131936464257" departLane="free"/>
  <flow id="JF305351" begin="300" fromJunction="J7" toJunction="J0" end="360" vehsPerHour="31.98093120278175" departLane="free"/>
  <flow id="JF305352" begin="300" fromJunction="J5" toJunction="J3" end="360" vehsPerHour="51.06536965960549" departLane="free"/>
  <flow id="JF305353" begin="300" fromJunction="J5" toJunction="J0" end="360" vehsPerHour="55.900318273338264" departLane="free"/>
  <flow id="JF305354" begin="300" fromJunction="J4" toJunction="J3" end="360" vehsPerHour="36.62052953410798" departLane="free"/>
  <flow id="JF305355" begin="300" fromJunction="J4" toJunction="J0" end="360" vehsPerHour="44.32279592674658" departLane="free"/>
  <flow id="JF305356" begin="300" fromJunction="J6" toJunction="J3" end="360" vehsPerHour="1.9829511609500203" departLane="free"/>
  <flow id="JF305357" begin="300" fromJunction="J6" toJunction="J0" end="360" vehsPerHour="42.56732163982085" departLane="free"/>
  <flow id="JF305358" begin="360" fromJunction="J3" toJunction="J0" end="420" vehsPerHour="248.95123673507103" departLane="free"/>
  <flow id="JF305359" begin="360" fromJunction="J0" toJunction="J3" end="420" vehsPerHour="440.5791989436316" departLane="free"/>
  <flow id="JF305360" begin="360" fromJunction="J3" toJunction="J7" end="420" vehsPerHour="120.995737154904" departLane="free"/>
  <flow id="JF305361" begin="360" fromJunction="J3" toJunction="J5" end="420" vehsPerHour="11.913362466981594" departLane="free"/>
  <flow id="JF305362" begin="360" fromJunction="J3" toJunction="J4" end="420" vehsPerHour="27.9053643947237" departLane="free"/>
  <flow id="JF305363" begin="360" fromJunction="J3" toJunction="J6" end="420" vehsPerHour="62.51439603181594" departLane="free"/>
  <flow id="JF305364" begin="360" fromJunction="J0" toJunction="J7" end="420" vehsPerHour="63.70803498465221" departLane="free"/>
  <flow id="JF305365" begin="360" fromJunction="J0" toJunction="J5" end="420" vehsPerHour="121.33364492686245" departLane="free"/>
  <flow id="JF305366" begin="360" fromJunction="J0" toJunction="J4" end="420" vehsPerHour="57.60941548142601" departLane="free"/>
  <flow id="JF305367" begin="360" fromJunction="J0" toJunction="J6" end="420" vehsPerHour="9.435904284468993" departLane="free"/>
  <flow id="JF305368" begin="360" fromJunction="J7" toJunction="J5" end="420" vehsPerHour="7.252874801016813" departLane="free"/>
  <flow id="JF305369" begin="360" fromJunction="J7" toJunction="J4" end="420" vehsPerHour="9.893358492046849" departLane="free"/>
  <flow id="JF305370" begin="360" fromJunction="J7" toJunction="J6" end="420" vehsPerHour="22.81997319853925" departLane="free"/>
  <flow id="JF305371" begin="360" fromJunction="J5" toJunction="J7" end="420" vehsPerHour="57.59733078722268" departLane="free"/>
  <flow id="JF305372" begin="360" fromJunction="J5" toJunction="J4" end="420" vehsPerHour="11.80097136721515" departLane="free"/>
  <flow id="JF305373" begin="360" fromJunction="J5" toJunction="J6" end="420" vehsPerHour="18.2498421791146" departLane="free"/>
  <flow id="JF305374" begin="360" fromJunction="J4" toJunction="J7" end="420" vehsPerHour="43.97906458827023" departLane="free"/>
  <flow id="JF305375" begin="360" fromJunction="J4" toJunction="J5" end="420" vehsPerHour="34.73953864451074" departLane="free"/>
  <flow id="JF305376" begin="360" fromJunction="J4" toJunction="J6" end="420" vehsPerHour="66.21138425586722" departLane="free"/>
  <flow id="JF305377" begin="360" fromJunction="J6" toJunction="J7" end="420" vehsPerHour="41.02211697922241" departLane="free"/>
  <flow id="JF305378" begin="360" fromJunction="J6" toJunction="J5" end="420" vehsPerHour="45.566596153059166" departLane="free"/>
  <flow id="JF305379" begin="360" fromJunction="J6" toJunction="J4" end="420" vehsPerHour="56.36727096293556" departLane="free"/>
  <flow id="JF305380" begin="360" fromJunction="J7" toJunction="J3" end="420" vehsPerHour="32.257925657967476" departLane="free"/>
  <flow id="JF305381" begin="360" fromJunction="J7" toJunction="J0" end="420" vehsPerHour="54.18863756934815" departLane="free"/>
  <flow id="JF305382" begin="360" fromJunction="J5" toJunction="J3" end="420" vehsPerHour="58.01273196839558" departLane="free"/>
  <flow id="JF305383" begin="360" fromJunction="J5" toJunction="J0" end="420" vehsPerHour="61.06154493929714" departLane="free"/>
  <flow id="JF305384" begin="360" fromJunction="J4" toJunction="J3" end="420" vehsPerHour="50.77827704632822" departLane="free"/>
  <flow id="JF305385" begin="360" fromJunction="J4" toJunction="J0" end="420" vehsPerHour="15.299038216818133" departLane="free"/>
  <flow id="JF305386" begin="360" fromJunction="J6" toJunction="J3" end="420" vehsPerHour="19.921347767288665" departLane="free"/>
  <flow id="JF305387" begin="360" fromJunction="J6" toJunction="J0" end="420" vehsPerHour="22.425238378231608" departLane="free"/>
  <flow id="JF305388" begin="420" fromJunction="J3" toJunction="J0" end="480" vehsPerHour="340.53597245633574" departLane="free"/>
  <flow id="JF305389" begin="420" fromJunction="J0" toJunction="J3" end="480" vehsPerHour="100.83413135600983" departLane="free"/>
  <flow id="JF305390" begin="420" fromJunction="J3" toJunction="J7" end="480" vehsPerHour="3.5128544350622817" departLane="free"/>
  <flow id="JF305391" begin="420" fromJunction="J3" toJunction="J5" end="480" vehsPerHour="54.48471881358246" departLane="free"/>
  <flow id="JF305392" begin="420" fromJunction="J3" toJunction="J4" end="480" vehsPerHour="77.9519441365624" departLane="free"/>
  <flow id="JF305393" begin="420" fromJunction="J3" toJunction="J6" end="480" vehsPerHour="23.63634206129898" departLane="free"/>
  <flow id="JF305394" begin="420" fromJunction="J0" toJunction="J7" end="480" vehsPerHour="35.22866196405411" departLane="free"/>
  <flow id="JF305395" begin="420" fromJunction="J0" toJunction="J5" end="480" vehsPerHour="1.3861122958631051" departLane="free"/>
  <flow id="JF305396" begin="420" fromJunction="J0" toJunction="J4" end="480" vehsPerHour="44.16386171350147" departLane="free"/>
  <flow id="JF305397" begin="420" fromJunction="J0" toJunction="J6" end="480" vehsPerHour="97.04569086798529" departLane="free"/>
  <flow id="JF305398" begin="420" fromJunction="J7" toJunction="J5" end="480" vehsPerHour="16.54689970768426" departLane="free"/>
  <flow id="JF305399" begin="420" fromJunction="J7" toJunction="J4" end="480" vehsPerHour="31.131030701332268" departLane="free"/>
  <flow id="JF305400" begin="420" fromJunction="J7" toJunction="J6" end="480" vehsPerHour="44.07787700153541" departLane="free"/>
  <flow id="JF305401" begin="420" fromJunction="J5" toJunction="J7" end="480" vehsPerHour="61.98966597827611" departLane="free"/>
  <flow id="JF305402" begin="420" fromJunction="J5" toJunction="J4" end="480" vehsPerHour="68.20802475225258" departLane="free"/>
  <flow id="JF305403" begin="420" fromJunction="J5" toJunction="J6" end="480" vehsPerHour="63.0761180527329" departLane="free"/>
  <flow id="JF305404" begin="420" fromJunction="J4" toJunction="J7" end="480" vehsPerHour="26.994667342528693" departLane="free"/>
  <flow id="JF305405" begin="420" fromJunction="J4" toJunction="J5" end="480" vehsPerHour="44.87651567440826" departLane="free"/>
  <flow id="JF305406" begin="420" fromJunction="J4" toJunction="J6" end="480" vehsPerHour="20.321129580049956" departLane="free"/>
  <flow id="JF305407" begin="420" fromJunction="J6" toJunction="J7" end="480" vehsPerHour="30.900032973999892" departLane="free"/>
  <flow id="JF305408" begin="420" fromJunction="J6" toJunction="J5" end="480" vehsPerHour="20.912022687067118" departLane="free"/>
  <flow id="JF305409" begin="420" fromJunction="J6" toJunction="J4" end="480" vehsPerHour="44.933030946772725" departLane="free"/>
  <flow id="JF305410" begin="420" fromJunction="J7" toJunction="J3" end="480" vehsPerHour="43.008636983226005" departLane="free"/>
  <flow id="JF305411" begin="420" fromJunction="J7" toJunction="J0" end="480" vehsPerHour="24.481547979800045" departLane="free"/>
  <flow id="JF305412" begin="420" fromJunction="J5" toJunction="J3" end="480" vehsPerHour="8.657935919671612" departLane="free"/>
  <flow id="JF305413" begin="420" fromJunction="J5" toJunction="J0" end="480" vehsPerHour="40.72841694974118" departLane="free"/>
  <flow id="JF305414" begin="420" fromJunction="J4" toJunction="J3" end="480" vehsPerHour="36.82804164640304" departLane="free"/>
  <flow id="JF305415" begin="420" fromJunction="J4" toJunction="J0" end="480" vehsPerHour="49.66836925822386" departLane="free"/>
  <flow id="JF305416" begin="420" fromJunction="J6" toJunction="J3" end="480" vehsPerHour="6.7297923591706565" departLane="free"/>
  <flow id="JF305417" begin="420" fromJunction="J6" toJunction="J0" end="480" vehsPerHour="48.809822936368164" departLane="free"/>
  <flow id="JF305418" begin="480" fromJunction="J3" toJunction="J0" end="540" vehsPerHour="93.34529390222397" departLane="free"/>
  <flow id="JF305419" begin="480" fromJunction="J0" toJunction="J3" end="540" vehsPerHour="407.414962254121" departLane="free"/>
  <flow id="JF305420" begin="480" fromJunction="J3" toJunction="J7" end="540" vehsPerHour="96.63598178488238" departLane="free"/>
  <flow id="JF305421" begin="480" fromJunction="J3" toJunction="J5" end="540" vehsPerHour="111.04071195261473" departLane="free"/>
  <flow id="JF305422" begin="480" fromJunction="J3" toJunction="J4" end="540" vehsPerHour="104.31411788754576" departLane="free"/>
  <flow id="JF305423" begin="480" fromJunction="J3" toJunction="J6" end="540" vehsPerHour="78.55758542370046" departLane="free"/>
  <flow id="JF305424" begin="480" fromJunction="J0" toJunction="J7" end="540" vehsPerHour="59.774304989318736" departLane="free"/>
  <flow id="JF305425" begin="480" fromJunction="J0" toJunction="J5" end="540" vehsPerHour="25.12725901692711" departLane="free"/>
  <flow id="JF305426" begin="480" fromJunction="J0" toJunction="J4" end="540" vehsPerHour="51.08330664778921" departLane="free"/>