<?xml version="1.0" encoding="UTF-8"?>
<routes xmlns:xsi="http://www.w3.org/2001/XMLSchema-instance" xsi:noNamespaceSchemaLocation="http://sumo.dlr.de/xsd/routes_file.xsd">
  <flow id="JF297758" begin="0" fromJunction="J3" toJunction="J0" end="60" vehsPerHour="182.73017004048043" departLane="free"/>
  <flow id="JF297759" begin="0" fromJunction="J0" toJunction="J3" end="60" vehsPerHour="516.7826455104849" departLane="free"/>
  <flow id="JF297760" begin="0" fromJunction="J3" toJunction="J7" end="60" vehsPerHour="0.18488693685640464" departLane="free"/>
  <flow id="JF297761" begin="0" fromJunction="J3" toJunction="J5" end="60" vehsPerHour="67.20548147104874" departLane="free"/>
  <flow id="JF297762" begin="0" fromJunction="J3" toJunction="J4" end="60" vehsPerHour="81.6026865146173" departLane="free"/>
  <flow id="JF297763" begin="0" fromJunction="J3" toJunction="J6" end="60" vehsPerHour="13.534444704680482" departLane="free"/>
  <flow id="JF297764" begin="0" fromJunction="J0" toJunction="J7" end="60" vehsPerHour="68.51245757482408" departLane="free"/>
  <flow id="JF297765" begin="0" fromJunction="J0" toJunction="J5" end="60" vehsPerHour="75.22452462680162" departLane="free"/>
  <flow id="JF297766" begin="0" fromJunction="J0" toJunction="J4" end="60" vehsPerHour="90.42366855608492" departLane="free"/>
  <flow id="JF297767" begin="0" fromJunction="J0" toJunction="J6" end="60" vehsPerHour="76.92315310007332" departLane="free"/>
  <flow id="JF297768" begin="0" fromJunction="J7" toJunction="J5" end="60" vehsPerHour="25.94907386895246" departLane="free"/>
  <flow id="JF297769" begin="0" fromJunction="J7" toJunction="J4" end="60" vehsPerHour="29.517316680993908" departLane="free"/>
  <flow id="JF297770" begin="0" fromJunction="J7" toJunction="J6" end="60" vehsPerHour="29.884848802985953" departLane="free"/>
  <flow id="JF297771" begin="0" fromJunction="J5" toJunction="J7" end="60" vehsPerHour="54.37394781549825" departLane="free"/>
  <flow id="JF297772" begin="0" fromJunction="J5" toJunction="J4" end="60" vehsPerHour="16.895047276020687" departLane="free"/>
  <flow id="JF297773" begin="0" fromJunction="J5" toJunction="J6" end="60" vehsPerHour="48.857957989714144" departLane="free"/>
  <flow id="JF297774" begin="0" fromJunction="J4" toJunction="J7" end="60" vehsPerHour="22.84304428830514" departLane="free"/>
  <flow id="JF297775" begin="0" fromJunction="J4" toJunction="J5" end="60" vehsPerHour="3.917666315877475" departLane="free"/>
  <flow id="JF297776" begin="0" fromJunction="J4" toJunction="J6" end="60" vehsPerHour="2.2096506147640254" departLane="free"/>
  <flow id="JF297777" begin="0" fromJunction="J6" toJunction="J7" end="60" vehsPerHour="18.196064227941402" departLane="free"/>
  <flow id="JF297778" begin="0" fromJunction="J6" toJunction="J5" end="60" vehsPerHour="2.750120556823996" departLane="free"/>
  <flow id="JF297779" begin="0" fromJunction="J6" toJunction="J4" end="60" vehsPerHour="3.1101921349301525" departLane="free"/>
  <flow id="JF297780" begin="0" fromJunction="J7" toJunction="J3" end="60" vehsPerHour="67.15532286638629" departLane="free"/>
  <flow id="JF297781" begin="0" fromJunction="J7" toJunction="J0" end="60" vehsPerHour="57.27383814344125" departLane="free"/>
  <flow id="JF297782" begin="0" fromJunction="J5" toJunction="J3" end="60" vehsPerHour="59.0768841749359" departLane="free"/>
  <flow id="JF297783" begin="0" fromJunction="J5" toJunction="J0" end="60" vehsPerHour="45.528708806239145" departLane="free"/>
  <flow id="JF297784" begin="0" fromJunction="J4" toJunction="J3" end="60" vehsPerHour="35.019833184295216" departLane="free"/>
  <flow id="JF297785" begin="0" fromJunction="J4" toJunction="J0" end="60" vehsPerHour="8.064865231844605" departLane="free"/>
  <flow id="JF297786" begin="0" fromJunction="J6" toJunction="J3" end="60" vehsPerHour="21.116019193240053" departLane="free"/>
  <flow id="JF297787" begin="0" fromJunction="J6" toJunction="J0" end="60" vehsPerHour="35.187900003565474" departLane="free"/>
  <flow id="JF297788" begin="60" fromJunction="J3" toJunction="J0" end="120" vehsPerHour="249.33971955305498" departLane="free"/>
  <flow id="JF297789" begin="60" fromJunction="J0" toJunction="J3" end="120" vehsPerHour="422.8379861014994" departLane="free"/>
  <flow id="JF297790" begin="60" fromJunction="J3" toJunction="J7" end="120" vehsPerHour="124.50702498516978" departLane="free"/>
  <flow id="JF297791" begin="60" fromJunction="J3" toJunction="J5" end="120" vehsPerHour="15.000487961623362" departLane="free"/>
  <flow id="JF297792" begin="60" fromJunction="J3" toJunction="J4" end="120" vehsPerHour="37.29259204509023" departLane="free"/>
  <flow id="JF297793" begin="60" fromJunction="J3" toJunction="J6" end="120" vehsPerHour="14.259042643515" departLane="free"/>
  <flow id="JF297794" begin="60" fromJunction="J0" toJunction="J7" end="120" vehsPerHour="6.863950001311241" departLane="free"/>
  <flow id="JF297795" begin="60" fromJunction="J0" toJunction="J5" end="120" vehsPerHour="111.78235396485447" departLane="free"/>
  <flow id="JF297796" begin="60" fromJunction="J0" toJunction="J4" end="120" vehsPerHour="134.86043954387085" departLane="free"/>
  <flow id="JF297797" begin="60" fromJunction="J0" toJunction="J6" end="120" vehsPerHour="100.47665492962261" departLane="free"/>
  <flow id="JF297798" begin="60" fromJunction="J7" toJunction="J5" end="120" vehsPerHour="11.631223608189993" departLane="free"/>
  <flow id="JF297799" begin="60" fromJunction="J7" toJunction="J4" end="120" vehsPerHour="21.93332754817973" departLane="free"/>
  <flow id="JF297800" begin="60" fromJunction="J7" toJunction="J6" end="120" vehsPerHour="43.16618900374612" departLane="free"/>
  <flow id="JF297801" begin="60" fromJunction="J5" toJunction="J7" end="120" vehsPerHour="27.9469587870011" departLane="free"/>
  <flow id="JF297802" begin="60" fromJunction="J5" toJunction="J4" end="120" vehsPerHour="24.16848424197523" departLane="free"/>
  <flow id="JF297803" begin="60" fromJunction="J5" toJunction="J6" end="120" vehsPerHour="42.55893200258139" departLane="free"/>
  <flow id="JF297804" begin="60" fromJunction="J4" toJunction="J7" end="120" vehsPerHour="1.9369696541688863" departLane="free"/>
  <flow id="JF297805" begin="60" fromJunction="J4" toJunction="J5" end="120" vehsPerHour="10.72728582938701" departLane="free"/>
  <flow id="JF297806" begin="60" fromJunction="J4" toJunction="J6" end="120" vehsPerHour="12.542170144851482" departLane="free"/>
  <flow id="JF297807" begin="60" fromJunction="J6" toJunction="J7" end="120" vehsPerHour="55.1077455256019" departLane="free"/>
  <flow id="JF297808" begin="60" fromJunction="J6" toJunction="J5" end="120" vehsPerHour="63.327672547101336" departLane="free"/>
  <flow id="JF297809" begin="60" fromJunction="J6" toJunction="J4" end="120" vehsPerHour="2.2098096911080143" departLane="free"/>
  <flow id="JF297810" begin="60" fromJunction="J7" toJunction="J3" end="120" vehsPerHour="54.6550352188266" departLane="free"/>
  <flow id="JF297811" begin="60" fromJunction="J7" toJunction="J0" end="120" vehsPerHour="61.91911501609019" departLane="free"/>
  <flow id="JF297812" begin="60" fromJunction="J5" toJunction="J3" end="120" vehsPerHour="28.467638877108488" departLane="free"/>
  <flow id="JF297813" begin="60" fromJunction="J5" toJunction="J0" end="120" vehsPerHour="26.797040119428278" departLane="free"/>
  <flow id="JF297814" begin="60" fromJunction="J4" toJunction="J3" end="120" vehsPerHour="22.250217854505927" departLane="free"/>
  <flow id="JF297815" begin="60" fromJunction="J4" toJunction="J0" end="120" vehsPerHour="59.96760395187393" departLane="free"/>
  <flow id="JF297816" begin="60" fromJunction="J6" toJunction="J3" end="120" vehsPerHour="32.64436698218515" departLane="free"/>
  <flow id="JF297817" begin="60" fromJunction="J6" toJunction="J0" end="120" vehsPerHour="53.38159383632041" departLane="free"/>
  <flow id="JF297818" begin="120" fromJunction="J3" toJunction="J0" end="180" vehsPerHour="443.50694073520583" departLane="free"/>
  <flow id="JF297819" begin="120" fromJunction="J0" toJunction="J3" end="180" vehsPerHour="18.765286274663904" departLane="free"/>
  <flow id="JF297820" begin="120" fromJunction="J3" toJunction="J7" end="180" vehsPerHour="47.78401717449853" departLane="free"/>
  <flow id="JF297821" begin="120" fromJunction="J3" toJunction="J5" end="180" vehsPerHour="81.32123081843629" departLane="free"/>
  <flow id="JF297822" begin="120" fromJunction="J3" toJunction="J4" end="180" vehsPerHour="27.382101660916057" departLane="free"/>
  <flow id="JF297823" begin="120" fromJunction="J3" toJunction="J6" end="180" vehsPerHour="6.07397148238335" departLane="free"/>
  <flow id="JF297824" begin="120" fromJunction="J0" toJunction="J7" end="180" vehsPerHour="83.35151230875964" departLane="free"/>
  <flow id="JF297825" begin="120" fromJunction="J0" toJunction="J5" end="180" vehsPerHour="136.66261093105356" departLane="free"/>
  <flow id="JF297826" begin="120" fromJunction="J0" toJunction="J4" end="180" vehsPerHour="9.912754283124194" departLane="free"/>
  <flow id="JF297827" begin="120" fromJunction="J0" toJunction="J6" end="180" vehsPerHour="119.40620818421365" departLane="free"/>
  <flow id="JF297828" begin="120" fromJunction="J7" toJunction="J5" end="180" vehsPerHour="51.40508730116928" departLane="free"/>
  <flow id="JF297829" begin="120" fromJunction="J7" toJunction="J4" end="180" vehsPerHour="66.42415809798278" departLane="free"/>
  <flow id="JF297830" begin="120" fromJunction="J7" toJunction="J6" end="180" vehsPerHour="5.444648667707921" departLane="free"/>
  <flow id="JF297831" begin="120" fromJunction="J5" toJunction="J7" end="180" vehsPerHour="14.800655634890258" departLane="free"/>
  <flow id="JF297832" begin="120" fromJunction="J5" toJunction="J4" end="180" vehsPerHour="49.39780442904965" departLane="free"/>
  <flow id="JF297833" begin="120" fromJunction="J5" toJunction="J6" end="180" vehsPerHour="65.10456234285537" departLane="free"/>
  <flow id="JF297834" begin="120" fromJunction="J4" toJunction="J7" end="180" vehsPerHour="67.21870102758625" departLane="free"/>
  <flow id="JF297835" begin="120" fromJunction="J4" toJunction="J5" end="180" vehsPerHour="28.349474023050334" departLane="free"/>
  <flow id="JF297836" begin="120" fromJunction="J4" toJunction="J6" end="180" vehsPerHour="12.461756331155346" departLane="free"/>
  <flow id="JF297837" begin="120" fromJunction="J6" toJunction="J7" end="180" vehsPerHour="57.413044125859095" departLane="free"/>
  <flow id="JF297838" begin="120" fromJunction="J6" toJunction="J5" end="180" vehsPerHour="57.39779330080415" departLane="free"/>
  <flow id="JF297839" begin="120" fromJunction="J6" toJunction="J4" end="180" vehsPerHour="63.00836181100529" departLane="free"/>
  <flow id="JF297840" begin="120" fromJunction="J7" toJunction="J3" end="180" vehsPerHour="26.652368894629916" departLane="free"/>
  <flow id="JF297841" begin="120" fromJunction="J7" toJunction="J0" end="180" vehsPerHour="15.6908258417809" departLane="free"/>
  <flow id="JF297842" begin="120" fromJunction="J5" toJunction="J3" end="180" vehsPerHour="23.102927110495322" departLane="free"/>
  <flow id="JF297843" begin="120" fromJunction="J5" toJunction="J0" end="180" vehsPerHour="30.391416230476388" departLane="free"/>
  <flow id="JF297844" begin="120" fromJunction="J4" toJunction="J3" end="180" vehsPerHour="54.43105166068132" departLane="free"/>
  <flow id="JF297845" begin="120" fromJunction="J4" toJunction="J0" end="180" vehsPerHour="7.108529570690231" departLane="free"/>
  <flow id="JF297846" begin="120" fromJunction="J6" toJunction="J3" end="180" vehsPerHour="12.499539193850884" departLane="free"/>
  <flow id="JF297847" begin="120" fromJunction="J6" toJunction="J0" end="180" vehsPerHour="59.031773127017544" departLane="free"/>
  <flow id="JF297848" begin="180" fromJunction="J3" toJunction="J0" end="240" vehsPerHour="12.214009103757313" departLane="free"/>
  <flow id="JF297849" begin="180" fromJunction="J0" toJunction="J3" end="240" vehsPerHour="75.7196606999305" departLane="free"/>
  <flow id="JF297850" begin="180" fromJunction="J3" toJunction="J7" end="240" vehsPerHour="97.97482885893623" departLane="free"/>
  <flow id="JF297851" begin="180" fromJunction="J3" toJunction="J5" end="240" vehsPerHour="54.42489032170342" departLane="free"/>
  <flow id="JF297852" begin="180" fromJunction="J3" toJunction="J4" end="240" vehsPerHour="63.286982691408284" departLane="free"/>
  <flow id="JF297853" begin="180" fromJunction="J3" toJunction="J6" end="240" vehsPerHour="4.483726965825643" departLane="free"/>
  <flow id="JF297854" begin="180" fromJunction="J0" toJunction="J7" end="240" vehsPerHour="15.856568372715964" departLane="free"/>
  <flow id="JF297855" begin="180" fromJunction="J0" toJunction="J5" end="240" vehsPerHour="46.51231088332649" departLane="free"/>
  <flow id="JF297856" begin="180" fromJunction="J0" toJunction="J4" end="240" vehsPerHour="68.01197176616284" departLane="free"/>
  <flow id="JF297857" begin="180" fromJunction="J0" toJunction="J6" end="240" vehsPerHour="134.17271002948814" departLane="free"/>
  <flow id="JF297858" begin="180" fromJunction="J7" toJunction="J5" end="240" vehsPerHour="6.946285784194392" departLane="free"/>
  <flow id="JF297859" begin="180" fromJunction="J7" toJunction="J4" end="240" vehsPerHour="10.297398508909504" departLane="free"/>
  <flow id="JF297860" begin="180" fromJunction="J7" toJunction="J6" end="240" vehsPerHour="13.34277723829941" departLane="free"/>
  <flow id="JF297861" begin="180" fromJunction="J5" toJunction="J7" end="240" vehsPerHour="0.5945452162436158" departLane="free"/>
  <flow id="JF297862" begin="180" fromJunction="J5" toJunction="J4" end="240" vehsPerHour="1.6311918976782442" departLane="free"/>
  <flow id="JF297863" begin="180" fromJunction="J5" toJunction="J6" end="240" vehsPerHour="3.86204717523256" departLane="free"/>
  <flow id="JF297864" begin="180" fromJunction="J4" toJunction="J7" end="240" vehsPerHour="18.00745177828437" departLane="free"/>
  <flow id="JF297865" begin="180" fromJunction="J4" toJunction="J5" end="240" vehsPerHour="25.57423852050663" departLane="free"/>
  <flow id="JF297866" begin="180" fromJunction="J4" toJunction="J6" end="240" vehsPerHour="48.9449538959589" departLane="free"/>
  <flow id="JF297867" begin="180" fromJunction="J6" toJunction="J7" end="240" vehsPerHour="54.60033492702963" departLane="free"/>
  <flow id="JF297868" begin="180" fromJunction="J6" toJunction="J5" end="240" vehsPerHour="12.412440185964009" departLane="free"/>
  <flow id="JF297869" begin="180" fromJunction="J6" toJunction="J4" end="240" vehsPerHour="54.620753853601904" departLane="free"/>
  <flow id="JF297870" begin="180" fromJunction="J7" toJunction="J3" end="240" vehsPerHour="1.980253714730771" departLane="free"/>
  <flow id="JF297871" begin="180" fromJunction="J7" toJunction="J0" end="240" vehsPerHour="33.141940553828974" departLane="free"/>
  <flow id="JF297872" begin="180" fromJunction="J5" toJunction="J3" end="240" vehsPerHour="14.654881334766197" departLane="free"/>
  <flow id="JF297873" begin="180" fromJunction="J5" toJunction="J0" end="240" vehsPerHour="11.417020390832558" departLane="free"/>
  <flow id="JF297874" begin="180" fromJunction="J4" toJunction="J3" end="240" vehsPerHour="19.167113287777376" departLane="free"/>
  <flow id="JF297875" begin="180" fromJunction="J4" toJunction="J0" end="240" vehsPerHour="51.76131967951137" departLane="free"/>
  <flow id="JF297876" begin="180" fromJunction="J6" toJunction="J3" end="240" vehsPerHour="53.9216962934587" departLane="free"/>
  <flow id="JF297877" begin="180" fromJunction="J6" toJunction="J0" end="240" vehsPerHour="28.304476351843736" departLane="free"/>
  <flow id="JF297878" begin="240" fromJunction="J3" toJunction="J0" end="300" vehsPerHour="242.2448373493533" departLane="free"/>
  <flow id="JF297879" begin="240" fromJunction="J0" toJunction="J3" end="300" vehsPerHour="336.81787068621225" departLane="free"/>
  <flow id="JF297880" begin="240" fromJunction="J3" toJunction="J7" end="300" vehsPerHour="111.83491847173951" departLane="free"/>
  <flow id="JF297881" begin="240" fromJunction="J3" toJunction="J5" end="300" vehsPerHour="111.37371476295878" departLane="free"/>
  <flow id="JF297882" begin="240" fromJunction="J3" toJunction="J4" end="300" vehsPerHour="108.66533994405762" departLane="free"/>
  <flow id="JF297883" begin="240" fromJunction="J3" toJunction="J6" end="300" vehsPerHour="91.60035205437018" departLane="free"/>
  <flow id="JF297884" begin="240" fromJunction="J0" toJunction="J7" end="300" vehsPerHour="56.17845985737673" departLane="free"/>
  <flow id="JF297885" begin="240" fromJunction="J0" toJunction="J5" end="300" vehsPerHour="91.35128808475746" departLane="free"/>
  <flow id="JF297886" begin="240" fromJunction="J0" toJunction="J4" end="300" vehsPerHour="131.80630615841994" departLane="free"/>
  <flow id="JF297887" begin="240" fromJunction="J0" toJunction="J6" end="300" vehsPerHour="115.80293604383444" departLane="free"/>
  <flow id="JF297888" begin="240" fromJunction="J7" toJunction="J5" end="300" vehsPerHour="67.97768626905729" departLane="free"/>
  <flow id="JF297889" begin="240" fromJunction="J7" toJunction="J4" end="300" vehsPerHour="6.117070518715072" departLane="free"/>
  <flow id="JF297890" begin="240" fromJunction="J7" toJunction="J6" end="300" vehsPerHour="64.97893230087324" departLane="free"/>
  <flow id="JF297891" begin="240" fromJunction="J5" toJunction="J7" end="300" vehsPerHour="18.439462969627467" departLane="free"/>
  <flow id="JF297892" begin="240" fromJunction="J5" toJunction="J4" end="300" vehsPerHour="45.10053761628853" departLane="free"/>
  <flow id="JF297893" begin="240" fromJunction="J5" toJunction="J6" end="300" vehsPerHour="3.7519263142799586" departLane="free"/>
  <flow id="JF297894" begin="240" fromJunction="J4" toJunction="J7" end="300" vehsPerHour="6.651935518874318" departLane="free"/>
  <flow id="JF297895" begin="240" fromJunction="J4" toJunction="J5" end="300" vehsPerHour="28.826106692726587" departLane="free"/>
  <flow id="JF297896" begin="240" fromJunction="J4" toJunction="J6" end="300" vehsPerHour="31.222499094098872" departLane="free"/>
  <flow id="JF297897" begin="240" fromJunction="J6" toJunction="J7" end="300" vehsPerHour="23.248676402528098" departLane="free"/>
  <flow id="JF297898" begin="240" fromJunction="J6" toJunction="J5" end="300" vehsPerHour="26.067438724385998" departLane="free"/>
  <flow id="JF297899" begin="240" fromJunction="J6" toJunction="J4" end="300" vehsPerHour="61.156208347252736" departLane="free"/>
  <flow id="JF297900" begin="240" fromJunction="J7" toJunction="J3" end="300" vehsPerHour="15.228175486794608" departLane="free"/>
  <flow id="JF297901" begin="240" fromJunction="J7" toJunction="J0" end="300" vehsPerHour="9.288439129316929" departLane="free"/>
  <flow id="JF297902" begin="240" fromJunction="J5" toJunction="J3" end="300" vehsPerHour="60.378597684366554" departLane="free"/>
  <flow id="JF297903" begin="240" fromJunction="J5" toJunction="J0" end="300" vehsPerHour="31.441816381309195" departLane="free"/>
  <flow id="JF297904" begin="240" fromJunction="J4" toJunction="J3" end="300" vehsPerHour="50.644121271889475" departLane="free"/>
  <flow id="JF297905" begin="240" fromJunction="J4" toJunction="J0" end="300" vehsPerHour="26.408365948651646" departLane="free"/>
  <flow id="JF297906" begin="240" fromJunction="J6" toJunction="J3" end="300" vehsPerHour="39.22659608497498" departLane="free"/>
  <flow id="JF297907" begin="240" fromJunction="J6" toJunction="J0" end="300" vehsPerHour="23.761049429406107" departLane="free"/>
  <flow id="JF297908" begin="300" fromJunction="J3" toJunction="J0" end="360" vehsPerHour="212.53387052634815" departLane="free"/>
  <flow id="JF297909" begin="300" fromJunction="J0" toJunction="J3" end="360" vehsPerHour="139.06833874881661" departLane="free"/>
  <flow id="JF297910" begin="300" fromJunction="J3" toJunction="J7" end="360" vehsPerHour="77.9325965232813" departLane="free"/>
  <flow id="JF297911" begin="300" fromJunction="J3" toJunction="J5" end="360" vehsPerHour="11.087363291348225" departLane="free"/>
  <flow id="JF297912" begin="300" fromJunction="J3" toJunction="J4" end="360" vehsPerHour="101.77755984476893" departLane="free"/>
  <flow id="JF297913" begin="300" fromJunction="J3" toJunction="J6" end="360" vehsPerHour="34.31640909329124" departLane="free"/>
  <flow id="JF297914" begin="300" fromJunction="J0" toJunction="J7" end="360" vehsPerHour="113.19028351612906" departLane="free"/>
  <flow id="JF297915" begin="300" fromJunction="J0" toJunction="J5" end="360" vehsPerHour="79.68531040651564" departLane="free"/>
  <flow id="JF297916" begin="300" fromJunction="J0" toJunction="J4" end="360" vehsPerHour="40.840150002302124" departLane="free"/>
  <flow id="JF297917" begin="300" fromJunction="J0" toJunction="J6" end="360" vehsPerHour="28.506537728317895" departLane="free"/>
  <flow id="JF297918" begin="300" fromJunction="J7" toJunction="J5" end="360" vehsPerHour="30.523159848437704" departLane="free"/>
  <flow id="JF297919" begin="300" fromJunction="J7" toJunction="J4" end="360" vehsPerHour="31.55226950801481" departLane="free"/>
  <flow id="JF297920" begin="300" fromJunction="J7" toJunction="J6" end="360" vehsPerHour="22.42591722774796" departLane="free"/>
  <flow id="JF297921" begin="300" fromJunction="J5" toJunction="J7" end="360" vehsPerHour="0.12412965980935224" departLane="free"/>
  <flow id="JF297922" begin="300" fromJunction="J5" toJunction="J4" end="360" vehsPerHour="52.07598080093434" departLane="free"/>
  <flow id="JF297923" begin="300" fromJunction="J5" toJunction="J6" end="360" vehsPerHour="8.243108129020477" departLane="free"/>
  <flow id="JF297924" begin="300" fromJunction="J4" toJunction="J7" end="360" vehsPerHour="10.378535288915746" departLane="free"/>
  <flow id="JF297925" begin="300" fromJunction="J4" toJunction="J5" end="360" vehsPerHour="9.186744528676872" departLane="free"/>
  <flow id="JF297926" begin="300" fromJunction="J4" toJunction="J6" end="360" vehsPerHour="5.808371456306313" departLane="free"/>
  <flow id="JF297927" begin="300" fromJunction="J6" toJunction="J7" end="360" vehsPerHour="68.58360930727437" departLane="free"/>
  <flow id="JF297928" begin="300" fromJunction="J6" toJunction="J5" end="360" vehsPerHour="3.3786923678423486" departLane="free"/>
  <flow id="JF297929" begin="300" fromJunction="J6" toJunction="J4" end="360" vehsPerHour="61.879472349891195" departLane="free"/>
  <flow id="JF297930" begin="300" fromJunction="J7" toJunction="J3" end="360" vehsPerHour="52.02117712551479" departLane="free"/>
  <flow id="JF297931" begin="300" fromJunction="J7" toJunction="J0" end="360" vehsPerHour="3.472858933379338" departLane="free"/>
  <flow id="JF297932" begin="300" fromJunction="J5" toJunction="J3" end="360" vehsPerHour="24.984422831971496" departLane="free"/>
  <flow id="JF297933" begin="300" fromJunction="J5" toJunction="J0" end="360" vehsPerHour="19.482270574754086" departLane="free"/>
  <flow id="JF297934" begin="300" fromJunction="J4" toJunction="J3" end="360" vehsPerHour="10.158685837278622" departLane="free"/>
  <flow id="JF297935" begin="300" fromJunction="J4" toJunction="J0" end="360" vehsPerHour="57.75861147839928" departLane="free"/>
  <flow id="JF297936" begin="300" fromJunction="J6" toJunction="J3" end="360" vehsPerHour="27.051185086327386" departLane="free"/>
  <flow id="JF297937" begin="300" fromJunction="J6" toJunction="J0" end="360" vehsPerHour="13.938494408416032" departLane="free"/>
  <flow id="JF297938" begin="360" fromJunction="J3" toJunction="J0" end="420" vehsPerHour="138.47459036273432" departLane="free"/>
  <flow id="JF297939" begin="360" fromJunction="J0" toJunction="J3" end="420" vehsPerHour="116.17808493115854" departLane="free"/>
  <flow id="JF297940" begin="360" fromJunction="J3" toJunction="J7" end="420" vehsPerHour="136.37553255553658" departLane="free"/>
  <flow id="JF297941" begin="360" fromJunction="J3" toJunction="J5" end="420" vehsPerHour="3.8167788660134025" departLane="free"/>
  <flow id="JF297942" begin="360" fromJunction="J3" toJunction="J4" end="420" vehsPerHour="41.60477309591027" departLane="free"/>
  <flow id="JF297943" begin="360" fromJunction="J3" toJunction="J6" end="420" vehsPerHour="98.62594333126182" departLane="free"/>
  <flow id="JF297944" begin="360" fromJunction="J0" toJunction="J7" end="420" vehsPerHour="88.52173921091217" departLane="free"/>
  <flow id="JF297945" begin="360" fromJunction="J0" toJunction="J5" end="420" vehsPerHour="76.78300499373903" departLane="free"/>
  <flow id="JF297946" begin="360" fromJunction="J0" toJunction="J4" end="420" vehsPerHour="61.78973980377911" departLane="free"/>
  <flow id="JF297947" begin="360" fromJunction="J0" toJunction="J6" end="420" vehsPerHour="44.76830959305055" departLane="free"/>
  <flow id="JF297948" begin="420" fromJunction="J3" toJunction="J0" end="480" vehsPerHour="418.79039932224066" departLane="free"/>
  <flow id="JF297949" begin="420" fromJunction="J0" toJunction="J3" end="480" vehsPerHour="207.51894414079928" departLane="free"/>
  <flow id="JF297950" begin="420" fromJunction="J3" toJunction="J7" end="480" vehsPerHour="35.812723429085814" departLane="free"/>
  <flow id="JF297951" begin="420" fromJunction="J3" toJunction="J5" end="480" vehsPerHour="95.14802828374603" departLane="free"/>
  <flow id="JF297952" begin="420" fromJunction="J3" toJunction="J4" end="480" vehsPerHour="48.80591722112633" departLane="free"/>
  <flow id="JF297953" begin="420" fromJunction="J3" toJunction="J6" end="480" vehsPerHour="87.1159265122759" departLane="free"/>
  <flow id="JF297954" begin="420" fromJunction="J0" toJunction="J7" end="480" vehsPerHour="88.64603546681518" departLane="free"/>
  <flow id="JF297955" begin="420" fromJunction="J0" toJunction="J5" end="480" vehsPerHour="48.5107600909934" departLane="free"/>
  <flow id="JF297956" begin="420" fromJunction="J0" toJunction="J4" end="480" vehsPerHour="45.17886836688503" departLane="free"/>
  <flow id="JF297957" begin="420" fromJunction="J0" toJunction="J6" end="480" vehsPerHour="55.32330986068912" departLane="free"/>
  <flow id="JF297958" begin="420" fromJunction="J7" toJunction="J5" end="480" vehsPerHour="25.159607631222855" departLane="free"/>
  <flow id="JF297959" begin="420" fromJunction="J7" toJunction="J4" end="480" vehsPerHour="64.95010256443128" departLane="free"/>
  <flow id="JF297960" begin="420" fromJunction="J7" toJunction="J6" end="480" vehsPerHour="43.219210897215035" departLane="free"/>
  <flow id="JF297961" begin="420" fromJunction="J5" toJunction="J7" end="480" vehsPerHour="44.333416478716764" departLane="free"/>
  <flow id="JF297962" begin="420" fromJunction="J5" toJunction="J4" end="480" vehsPerHour="33.446036062375256" departLane="free"/>
  <flow id="JF297963" begin="420" fromJunction="J5" toJunction="J6" end="480" vehsPerHour="3.0680537028019508" departLane="free"/>
  <flow id="JF297964" begin="420" fromJunction="J4" toJunction="J7" end="480" vehsPerHour="58.762724981125295" departLane="free"/>
  <flow id="JF297965" begin="420" fromJunction="J4" toJunction="J5" end="480" vehsPerHour="29.474190259463562" departLane="free"/>
  <flow id="JF297966" begin="420" fromJunction="J4" toJunction="J6" end="480" vehsPerHour="3.0050308736735127" departLane="free"/>
  <flow id="JF297967" begin="420" fromJunction="J6" toJunction="J7" end="480" vehsPerHour="19.758918995391515" departLane="free"/>
  <flow id="JF297968" begin="420" fromJunction="J6" toJunction="J5" end="480" vehsPerHour="32.05287791287739" departLane="free"/>
  <flow id="JF297969" begin="420" fromJunction="J6" toJunction="J4" end="480" vehsPerHour="20.531829573386208" departLane="free"/>
  <flow id="JF297970" begin="420" fromJunction="J7" toJunction="J3" end="480" vehsPerHour="12.227528024705787" departLane="free"/>
  <flow id="JF297971" begin="420" fromJunction="J7" toJunction="J0" end="480" vehsPerHour="5.0136542804473505" departLane="free"/>
  <flow id="JF297972" begin="420" fromJunction="J5" toJunction="J3" end="480" vehsPerHour="57.695667739607224" departLane="free"/>
  <flow id="JF297973" begin="420" fromJunction="J5" toJunction="J0" end="480" vehsPerHour="62.93662518314551" departLane="free"/>
  <flow id="JF297974" begin="420" fromJunction="J4" toJunction="J3" end="480" vehsPerHour="44.01744601576667" departLane="free"/>
  <flow id="JF297975" begin="420" fromJunction="J4" toJunction="J0" end="480" vehsPerHour="32.84838787966388" departLane="free"/>
  <flow id="JF297976" begin="420" fromJunction="J6" toJunction="J3" end="480" vehsPerHour="29.49307745692288" departLane="free"/>
  <flow id="JF297977" begin="420" fromJunction="J6" toJunction="J0" end="480" vehsPerHour="10.526257453313672" departLane="free"/>
  <flow id="JF297978" begin="480" fromJunction="J3" toJunction="J0" end="540" vehsPerHour="121.25560704854374" departLane="free"/>
  <flow id="JF297979" begin="480" fromJunction="J0" toJunction="J3" end="540" vehsPerHour="113.96865583134573" departLane="free"/>
  <flow id="JF297980" begin="480" fromJunction="J3" toJunction="J7" end="540" vehsPerHour="24.196164769443953" departLane="free"/>
  <flow id="JF297981" begin="480" fromJunction="J3" toJunction="J5" end="540" vehsPerHour="61.69260432492952" departLane="free"/>
  <flow id="JF297982" begin="480" fromJunction="J3" toJunction="J4" end="540" vehsPerHour="60.23986768637736" departLane="free"/>
  <flow id="JF297983" begin="480" fromJunction="J3" toJunction="J6" end="540" vehsPerHour="132.8037585865546" departLane="free"/>
  <flow id="JF297984" begin="480" fromJunction="J0" toJunction="J7" end="540" vehsPerHour="19.540503047826693" departLane="free"/>
  <flow id="JF297985" begin="480" fromJunction="J0" toJunction="J5" end="540" vehsPerHour="32.25947203232503" departLane="free"/>
  <flow id="JF297986" begin="480" fromJunction="J0" toJunction="J4" end="540" vehsPerHour="5.298275642038391" departLane="free"/>