<?xml version="1.0" encoding="UTF-8"?>
<routes xmlns:xsi="http://www.w3.org/2001/XMLSchema-instance" xsi:noNamespaceSchemaLocation="http://sumo.dlr.de/xsd/routes_file.xsd">
  <flow id="JF293936" begin="0" fromJunction="J3" toJunction="J0" end="60" vehsPerHour="392.21662966017743" departLane="free"/>
  <flow id="JF293937" begin="0" fromJunction="J0" toJunction="J3" end="60" vehsPerHour="322.1255998451089" departLane="free"/>
  <flow id="JF293938" begin="0" fromJunction="J3" toJunction="J7" end="60" vehsPerHour="117.37685714132157" departLane="free"/>
  <flow id="JF293939" begin="0" fromJunction="J3" toJunction="J5" end="60" vehsPerHour="52.746579201932576" departLane="free"/>
  <flow id="JF293940" begin="0" fromJunction="J3" toJunction="J4" end="60" vehsPerHour="23.775648338585434" departLane="free"/>
  <flow id="JF293941" begin="0" fromJunction="J3" toJunction="J6" end="60" vehsPerHour="86.19933644436793" departLane="free"/>
  <flow id="JF293942" begin="0" fromJunction="J0" toJunction="J7" end="60" vehsPerHour="93.04669166241848" departLane="free"/>
  <flow id="JF293943" begin="0" fromJunction="J0" toJunction="J5" end="60" vehsPerHour="13.200214693453901" departLane="free"/>
  <flow id="JF293944" begin="0" fromJunction="J0" toJunction="J4" end="60" vehsPerHour="133.00124253813297" departLane="free"/>
  <flow id="JF293945" begin="0" fromJunction="J0" toJunction="J6" end="60" vehsPerHour="15.482264996155692" departLane="free"/>
  <flow id="JF293946" begin="60" fromJunction="J3" toJunction="J0" end="120" vehsPerHour="218.82126662432088" departLane="free"/>
  <flow id="JF293947" begin="60" fromJunction="J0" toJunction="J3" end="120" vehsPerHour="294.2463958842021" departLane="free"/>
  <flow id="JF293948" begin="60" fromJunction="J3" toJunction="J7" end="120" vehsPerHour="88.2878214281355" departLane="free"/>
  <flow id="JF293949" begin="60" fromJunction="J3" toJunction="J5" end="120" vehsPerHour="69.57338876492508" departLane="free"/>
  <flow id="JF293950" begin="60" fromJunction="J3" toJunction="J4" end="120" vehsPerHour="130.448577583474" departLane="free"/>
  <flow id="JF293951" begin="60" fromJunction="J3" toJunction="J6" end="120" vehsPerHour="110.8157245207664" departLane="free"/>
  <flow id="JF293952" begin="60" fromJunction="J0" toJunction="J7" end="120" vehsPerHour="10.940438562804486" departLane="free"/>
  <flow id="JF293953" begin="60" fromJunction="J0" toJunction="J5" end="120" vehsPerHour="59.19197170849594" departLane="free"/>
  <flow id="JF293954" begin="60" fromJunction="J0" toJunction="J4" end="120" vehsPerHour="91.52259607110202" departLane="free"/>
  <flow id="JF293955" begin="60" fromJunction="J0" toJunction="J6" end="120" vehsPerHour="27.195654599150117" departLane="free"/>
  <flow id="JF293956" begin="120" fromJunction="J3" toJunction="J0" end="180" vehsPerHour="344.11480390798226" departLane="free"/>
  <flow id="JF293957" begin="120" fromJunction="J0" toJunction="J3" end="180" vehsPerHour="26.824420391816208" departLane="free"/>
  <flow id="JF293958" begin="120" fromJunction="J3" toJunction="J7" end="180" vehsPerHour="40.685516270456915" departLane="free"/>
  <flow id="JF293959" begin="120" fromJunction="J3" toJunction="J5" end="180" vehsPerHour="54.40291047540835" departLane="free"/>
  <flow id="JF293960" begin="120" fromJunction="J3" toJunction="J4" end="180" vehsPerHour="16.95024064304498" departLane="free"/>
  <flow id="JF293961" begin="120" fromJunction="J3" toJunction="J6" end="180" vehsPerHour="59.49655994861313" departLane="free"/>
  <flow id="JF293962" begin="120" fromJunction="J0" toJunction="J7" end="180" vehsPerHour="68.07376743116771" departLane="free"/>
  <flow id="JF293963" begin="120" fromJunction="J0" toJunction="J5" end="180" vehsPerHour="37.686688623231696" departLane="free"/>
  <flow id="JF293964" begin="120" fromJunction="J0" toJunction="J4" end="180" vehsPerHour="121.13574565949057" departLane="free"/>
  <flow id="JF293965" begin="120" fromJunction="J0" toJunction="J6" end="180" vehsPerHour="52.582392477501024" departLane="free"/>
  <flow id="JF293966" begin="180" fromJunction="J3" toJunction="J0" end="240" vehsPerHour="482.76857575667935" departLane="free"/>
  <flow id="JF293967" begin="180" fromJunction="J0" toJunction="J3" end="240" vehsPerHour="195.8806323438634" departLane="free"/>
  <flow id="JF293968" begin="180" fromJunction="J3" toJunction="J7" end="240" vehsPerHour="61.283500349449106" departLane="free"/>
  <flow id="JF293969" begin="180" fromJunction="J3" toJunction="J5" end="240" vehsPerHour="77.63696823303324" departLane="free"/>
  <flow id="JF293970" begin="180" fromJunction="J3" toJunction="J4" end="240" vehsPerHour="126.76216577394406" departLane="free"/>
  <flow id="JF293971" begin="180" fromJunction="J3" toJunction="J6" end="240" vehsPerHour="71.35545646976081" departLane="free"/>
  <flow id="JF293972" begin="180" fromJunction="J0" toJunction="J7" end="240" vehsPerHour="55.599036291438374" departLane="free"/>
  <flow id="JF293973" begin="180" fromJunction="J0" toJunction="J5" end="240" vehsPerHour="124.54644982554893" departLane="free"/>
  <flow id="JF293974" begin="180" fromJunction="J0" toJunction="J4" end="240" vehsPerHour="36.931816686392196" departLane="free"/>
  <flow id="JF293975" begin="180" fromJunction="J0" toJunction="J6" end="240" vehsPerHour="47.3061345015219" departLane="free"/>
  <flow id="JF293976" begin="180" fromJunction="J7" toJunction="J5" end="240" vehsPerHour="51.013889299979716" departLane="free"/>
  <flow id="JF293977" begin="180" fromJunction="J7" toJunction="J4" end="240" vehsPerHour="6.809466439368819" departLane="free"/>
  <flow id="JF293978" begin="180" fromJunction="J7" toJunction="J6" end="240" vehsPerHour="15.476567445744989" departLane="free"/>
  <flow id="JF293979" begin="180" fromJunction="J5" toJunction="J7" end="240" vehsPerHour="12.392320669686667" departLane="free"/>
  <flow id="JF293980" begin="180" fromJunction="J5" toJunction="J4" end="240" vehsPerHour="46.98934173815229" departLane="free"/>
  <flow id="JF293981" begin="180" fromJunction="J5" toJunction="J6" end="240" vehsPerHour="13.401196341913705" departLane="free"/>
  <flow id="JF293982" begin="180" fromJunction="J4" toJunction="J7" end="240" vehsPerHour="57.1794847123485" departLane="free"/>
  <flow id="JF293983" begin="180" fromJunction="J4" toJunction="J5" end="240" vehsPerHour="0.7934159869627272" departLane="free"/>
  <flow id="JF293984" begin="180" fromJunction="J4" toJunction="J6" end="240" vehsPerHour="17.711925699821855" departLane="free"/>
  <flow id="JF293985" begin="180" fromJunction="J6" toJunction="J7" end="240" vehsPerHour="35.282274587560046" departLane="free"/>
  <flow id="JF293986" begin="180" fromJunction="J6" toJunction="J5" end="240" vehsPerHour="5.295740982389915" departLane="free"/>
  <flow id="JF293987" begin="180" fromJunction="J6" toJunction="J4" end="240" vehsPerHour="27.738010114144743" departLane="free"/>
  <flow id="JF293988" begin="180" fromJunction="J7" toJunction="J3" end="240" vehsPerHour="65.72665357616768" departLane="free"/>
  <flow id="JF293989" begin="180" fromJunction="J7" toJunction="J0" end="240" vehsPerHour="58.86720128599979" departLane="free"/>
  <flow id="JF293990" begin="180" fromJunction="J5" toJunction="J3" end="240" vehsPerHour="16.714290943085047" departLane="free"/>
  <flow id="JF293991" begin="180" fromJunction="J5" toJunction="J0" end="240" vehsPerHour="0.7452758414580004" departLane="free"/>
  <flow id="JF293992" begin="180" fromJunction="J4" toJunction="J3" end="240" vehsPerHour="15.140898996384207" departLane="free"/>
  <flow id="JF293993" begin="180" fromJunction="J4" toJunction="J0" end="240" vehsPerHour="14.198332090378859" departLane="free"/>
  <flow id="JF293994" begin="180" fromJunction="J6" toJunction="J3" end="240" vehsPerHour="51.494363367721945" departLane="free"/>
  <flow id="JF293995" begin="180" fromJunction="J6" toJunction="J0" end="240" vehsPerHour="11.625109109920848" departLane="free"/>
  <flow id="JF293996" begin="240" fromJunction="J3" toJunction="J0" end="300" vehsPerHour="9.824607799625607" departLane="free"/>
  <flow id="JF293997" begin="240" fromJunction="J0" toJunction="J3" end="300" vehsPerHour="50.37459826756092" departLane="free"/>
  <flow id="JF293998" begin="240" fromJunction="J3" toJunction="J7" end="300" vehsPerHour="3.441366165333399" departLane="free"/>
  <flow id="JF293999" begin="240" fromJunction="J3" toJunction="J5" end="300" vehsPerHour="97.08706749730017" departLane="free"/>
  <flow id="JF294000" begin="240" fromJunction="J3" toJunction="J4" end="300" vehsPerHour="98.99362005386405" departLane="free"/>
  <flow id="JF294001" begin="240" fromJunction="J3" toJunction="J6" end="300" vehsPerHour="119.0405922595433" departLane="free"/>
  <flow id="JF294002" begin="240" fromJunction="J0" toJunction="J7" end="300" vehsPerHour="106.00368988876099" departLane="free"/>
  <flow id="JF294003" begin="240" fromJunction="J0" toJunction="J5" end="300" vehsPerHour="10.550398959661033" departLane="free"/>
  <flow id="JF294004" begin="240" fromJunction="J0" toJunction="J4" end="300" vehsPerHour="46.206841511378144" departLane="free"/>
  <flow id="JF294005" begin="240" fromJunction="J0" toJunction="J6" end="300" vehsPerHour="59.84728584198385" departLane="free"/>
  <flow id="JF294006" begin="240" fromJunction="J7" toJunction="J5" end="300" vehsPerHour="26.961610349604108" departLane="free"/>
  <flow id="JF294007" begin="240" fromJunction="J7" toJunction="J4" end="300" vehsPerHour="19.29308868340286" departLane="free"/>
  <flow id="JF294008" begin="240" fromJunction="J7" toJunction="J6" end="300" vehsPerHour="43.280182669530674" departLane="free"/>
  <flow id="JF294009" begin="240" fromJunction="J5" toJunction="J7" end="300" vehsPerHour="28.421236736741346" departLane="free"/>
  <flow id="JF294010" begin="240" fromJunction="J5" toJunction="J4" end="300" vehsPerHour="25.974877056480167" departLane="free"/>
  <flow id="JF294011" begin="240" fromJunction="J5" toJunction="J6" end="300" vehsPerHour="50.18882245648311" departLane="free"/>
  <flow id="JF294012" begin="240" fromJunction="J4" toJunction="J7" end="300" vehsPerHour="34.14203638222646" departLane="free"/>
  <flow id="JF294013" begin="240" fromJunction="J4" toJunction="J5" end="300" vehsPerHour="37.7537777441418" departLane="free"/>
  <flow id="JF294014" begin="240" fromJunction="J4" toJunction="J6" end="300" vehsPerHour="26.0870597147727" departLane="free"/>
  <flow id="JF294015" begin="240" fromJunction="J6" toJunction="J7" end="300" vehsPerHour="64.02088932314307" departLane="free"/>
  <flow id="JF294016" begin="240" fromJunction="J6" toJunction="J5" end="300" vehsPerHour="58.44815994973897" departLane="free"/>
  <flow id="JF294017" begin="240" fromJunction="J6" toJunction="J4" end="300" vehsPerHour="57.98827242275317" departLane="free"/>
  <flow id="JF294018" begin="240" fromJunction="J7" toJunction="J3" end="300" vehsPerHour="52.13756168795792" departLane="free"/>
  <flow id="JF294019" begin="240" fromJunction="J7" toJunction="J0" end="300" vehsPerHour="57.330355280675285" departLane="free"/>
  <flow id="JF294020" begin="240" fromJunction="J5" toJunction="J3" end="300" vehsPerHour="29.801600828907787" departLane="free"/>
  <flow id="JF294021" begin="240" fromJunction="J5" toJunction="J0" end="300" vehsPerHour="6.836898250900306" departLane="free"/>
  <flow id="JF294022" begin="240" fromJunction="J4" toJunction="J3" end="300" vehsPerHour="61.18059426548072" departLane="free"/>
  <flow id="JF294023" begin="240" fromJunction="J4" toJunction="J0" end="300" vehsPerHour="39.6398933604187" departLane="free"/>
  <flow id="JF294024" begin="240" fromJunction="J6" toJunction="J3" end="300" vehsPerHour="50.21714874565432" departLane="free"/>
  <flow id="JF294025" begin="240" fromJunction="J6" toJunction="J0" end="300" vehsPerHour="44.98180945599758" departLane="free"/>
  <flow id="JF294026" begin="300" fromJunction="J3" toJunction="J0" end="360" vehsPerHour="287.7098478489087" departLane="free"/>
  <flow id="JF294027" begin="300" fromJunction="J0" toJunction="J3" end="360" vehsPerHour="347.09499934206247" departLane="free"/>
  <flow id="JF294028" begin="300" fromJunction="J3" toJunction="J7" end="360" vehsPerHour="13.687619916534814" departLane="free"/>
  <flow id="JF294029" begin="300" fromJunction="J3" toJunction="J5" end="360" vehsPerHour="103.1304071455151" departLane="free"/>
  <flow id="JF294030" begin="300" fromJunction="J3" toJunction="J4" end="360" vehsPerHour="86.54505703902649" departLane="free"/>
  <flow id="JF294031" begin="300" fromJunction="J3" toJunction="J6" end="360" vehsPerHour="27.232304266853202" departLane="free"/>
  <flow id="JF294032" begin="300" fromJunction="J0" toJunction="J7" end="360" vehsPerHour="94.1026877083546" departLane="free"/>
  <flow id="JF294033" begin="300" fromJunction="J0" toJunction="J5" end="360" vehsPerHour="16.568354572063477" departLane="free"/>
  <flow id="JF294034" begin="300" fromJunction="J0" toJunction="J4" end="360" vehsPerHour="74.89818597722015" departLane="free"/>
  <flow id="JF294035" begin="300" fromJunction="J0" toJunction="J6" end="360" vehsPerHour="64.09967487733313" departLane="free"/>
  <flow id="JF294036" begin="300" fromJunction="J7" toJunction="J5" end="360" vehsPerHour="50.92445659605902" departLane="free"/>
  <flow id="JF294037" begin="300" fromJunction="J7" toJunction="J4" end="360" vehsPerHour="5.804451924789073" departLane="free"/>
  <flow id="JF294038" begin="300" fromJunction="J7" toJunction="J6" end="360" vehsPerHour="4.607167325724952" departLane="free"/>
  <flow id="JF294039" begin="300" fromJunction="J5" toJunction="J7" end="360" vehsPerHour="52.53580920923866" departLane="free"/>
  <flow id="JF294040" begin="300" fromJunction="J5" toJunction="J4" end="360" vehsPerHour="11.452632908123663" departLane="free"/>
  <flow id="JF294041" begin="300" fromJunction="J5" toJunction="J6" end="360" vehsPerHour="24.971785663650092" departLane="free"/>
  <flow id="JF294042" begin="300" fromJunction="J4" toJunction="J7" end="360" vehsPerHour="24.878750272192182" departLane="free"/>
  <flow id="JF294043" begin="300" fromJunction="J4" toJunction="J5" end="360" vehsPerHour="56.15875468546651" departLane="free"/>
  <flow id="JF294044" begin="300" fromJunction="J4" toJunction="J6" end="360" vehsPerHour="8.929650627249448" departLane="free"/>
  <flow id="JF294045" begin="300" fromJunction="J6" toJunction="J7" end="360" vehsPerHour="68.42107211553994" departLane="free"/>
  <flow id="JF294046" begin="300" fromJunction="J6" toJunction="J5" end="360" vehsPerHour="31.694091996692805" departLane="free"/>
  <flow id="JF294047" begin="300" fromJunction="J6" toJunction="J4" end="360" vehsPerHour="10.17529586973647" departLane="free"/>
  <flow id="JF294048" begin="300" fromJunction="J7" toJunction="J3" end="360" vehsPerHour="35.65801584098482" departLane="free"/>
  <flow id="JF294049" begin="300" fromJunction="J7" toJunction="J0" end="360" vehsPerHour="56.691525075031834" departLane="free"/>
  <flow id="JF294050" begin="300" fromJunction="J5" toJunction="J3" end="360" vehsPerHour="59.997927321847285" departLane="free"/>
  <flow id="JF294051" begin="300" fromJunction="J5" toJunction="J0" end="360" vehsPerHour="20.07098551991473" departLane="free"/>
  <flow id="JF294052" begin="300" fromJunction="J4" toJunction="J3" end="360" vehsPerHour="54.414138963930945" departLane="free"/>
  <flow id="JF294053" begin="300" fromJunction="J4" toJunction="J0" end="360" vehsPerHour="53.073309277749736" departLane="free"/>
  <flow id="JF294054" begin="300" fromJunction="J6" toJunction="J3" end="360" vehsPerHour="37.768244558967424" departLane="free"/>
  <flow id="JF294055" begin="300" fromJunction="J6" toJunction="J0" end="360" vehsPerHour="63.52611867414052" departLane="free"/>
  <flow id="JF294056" begin="360" fromJunction="J3" toJunction="J0" end="420" vehsPerHour="73.87804973332953" departLane="free"/>
  <flow id="JF294057" begin="360" fromJunction="J0" toJunction="J3" end="420" vehsPerHour="144.55739189586458" departLane="free"/>
  <flow id="JF294058" begin="360" fromJunction="J3" toJunction="J7" end="420" vehsPerHour="68.67464727398153" departLane="free"/>
  <flow id="JF294059" begin="360" fromJunction="J3" toJunction="J5" end="420" vehsPerHour="88.92413658164345" departLane="free"/>
  <flow id="JF294060" begin="360" fromJunction="J3" toJunction="J4" end="420" vehsPerHour="65.02584662701447" departLane="free"/>
  <flow id="JF294061" begin="360" fromJunction="J3" toJunction="J6" end="420" vehsPerHour="130.58294386201254" departLane="free"/>
  <flow id="JF294062" begin="360" fromJunction="J0" toJunction="J7" end="420" vehsPerHour="22.429907016868384" departLane="free"/>
  <flow id="JF294063" begin="360" fromJunction="J0" toJunction="J5" end="420" vehsPerHour="26.870033633826804" departLane="free"/>
  <flow id="JF294064" begin="360" fromJunction="J0" toJunction="J4" end="420" vehsPerHour="108.25033462447894" departLane="free"/>
  <flow id="JF294065" begin="360" fromJunction="J0" toJunction="J6" end="420" vehsPerHour="80.98763769725916" departLane="free"/>
  <flow id="JF294066" begin="420" fromJunction="J3" toJunction="J0" end="480" vehsPerHour="435.8752592147356" departLane="free"/>
  <flow id="JF294067" begin="420" fromJunction="J0" toJunction="J3" end="480" vehsPerHour="387.3196456129637" departLane="free"/>
  <flow id="JF294068" begin="420" fromJunction="J3" toJunction="J7" end="480" vehsPerHour="99.5697928546473" departLane="free"/>
  <flow id="JF294069" begin="420" fromJunction="J3" toJunction="J5" end="480" vehsPerHour="8.35247981630344" departLane="free"/>
  <flow id="JF294070" begin="420" fromJunction="J3" toJunction="J4" end="480" vehsPerHour="133.75467088702527" departLane="free"/>
  <flow id="JF294071" begin="420" fromJunction="J3" toJunction="J6" end="480" vehsPerHour="62.95603878660328" departLane="free"/>
  <flow id="JF294072" begin="420" fromJunction="J0" toJunction="J7" end="480" vehsPerHour="45.53606846936981" departLane="free"/>
  <flow id="JF294073" begin="420" fromJunction="J0" toJunction="J5" end="480" vehsPerHour="23.646975402715317" departLane="free"/>
  <flow id="JF294074" begin="420" fromJunction="J0" toJunction="J4" end="480" vehsPerHour="91.90965722962035" departLane="free"/>
  <flow id="JF294075" begin="420" fromJunction="J0" toJunction="J6" end="480" vehsPerHour="122.99623654425979" departLane="free"/>
  <flow id="JF294076" begin="420" fromJunction="J7" toJunction="J5" end="480" vehsPerHour="10.840303815305779" departLane="free"/>
  <flow id="JF294077" begin="420" fromJunction="J7" toJunction="J4" end="480" vehsPerHour="43.1500621257598" departLane="free"/>
  <flow id="JF294078" begin="420" fromJunction="J7" toJunction="J6" end="480" vehsPerHour="59.49736991965151" departLane="free"/>
  <flow id="JF294079" begin="420" fromJunction="J5" toJunction="J7" end="480" vehsPerHour="54.724680645602646" departLane="free"/>
  <flow id="JF294080" begin="420" fromJunction="J5" toJunction="J4" end="480" vehsPerHour="2.338120790465883" departLane="free"/>
  <flow id="JF294081" begin="420" fromJunction="J5" toJunction="J6" end="480" vehsPerHour="1.1812154145005098" departLane="free"/>
  <flow id="JF294082" begin="420" fromJunction="J4" toJunction="J7" end="480" vehsPerHour="45.10451881261912" departLane="free"/>
  <flow id="JF294083" begin="420" fromJunction="J4" toJunction="J5" end="480" vehsPerHour="38.564069699789975" departLane="free"/>
  <flow id="JF294084" begin="420" fromJunction="J4" toJunction="J6" end="480" vehsPerHour="33.84391938082002" departLane="free"/>
  <flow id="JF294085" begin="420" fromJunction="J6" toJunction="J7" end="480" vehsPerHour="33.89887813571247" departLane="free"/>
  <flow id="JF294086" begin="420" fromJunction="J6" toJunction="J5" end="480" vehsPerHour="6.032242068571587" departLane="free"/>
  <flow id="JF294087" begin="420" fromJunction="J6" toJunction="J4" end="480" vehsPerHour="61.079084794509164" departLane="free"/>
  <flow id="JF294088" begin="420" fromJunction="J7" toJunction="J3" end="480" vehsPerHour="59.20423062833881" departLane="free"/>
  <flow id="JF294089" begin="420" fromJunction="J7" toJunction="J0" end="480" vehsPerHour="66.04902122423029" departLane="free"/>
  <flow id="JF294090" begin="420" fromJunction="J5" toJunction="J3" end="480" vehsPerHour="48.1966619785779" departLane="free"/>
  <flow id="JF294091" begin="420" fromJunction="J5" toJunction="J0" end="480" vehsPerHour="56.29296003090831" departLane="free"/>
  <flow id="JF294092" begin="420" fromJunction="J4" toJunction="J3" end="480" vehsPerHour="22.65529091170425" departLane="free"/>
  <flow id="JF294093" begin="420" fromJunction="J4" toJunction="J0" end="480" vehsPerHour="10.720835042868414" departLane="free"/>
  <flow id="JF294094" begin="420" fromJunction="J6" toJunction="J3" end="480" vehsPerHour="11.087704119864842" departLane="free"/>
  <flow id="JF294095" begin="420" fromJunction="J6" toJunction="J0" end="480" vehsPerHour="28.685138107475094" departLane="free"/>
  <flow id="JF294096" begin="480" fromJunction="J3" toJunction="J0" end="540" vehsPerHour="339.66835383513046" departLane="free"/>
  <flow id="JF294097" begin="480" fromJunction="J0" toJunction="J3" end="540" vehsPerHour="547.4824397651615" departLane="free"/>
  <flow id="JF294098" begin="480" fromJunction="J3" toJunction="J7" end="540" vehsPerHour="21.095028623256855" departLane="free"/>
  <flow id="JF294099" begin="480" fromJunction="J3" toJunction="J5" end="540" vehsPerHour="73.89273172099165" departLane="free"/>
  <flow id="JF294100" begin="480" fromJunction="J3" toJunction="J4" end="540" vehsPerHour="129.54536906700528" departLane="free"/>
  <flow id="JF294101" begin="480" fromJunction="J3" toJunction="J6" end="540" vehsPerHour="36.39699080610661" departLane="free"/>
  <flow id="JF294102" begin="480" fromJunction="J0" toJunction="J7" end="540" vehsPerHour="34.62275663863755" departLane="free"/>
  <flow id="JF294103" begin="480" fromJunction="J0" toJunction="J5" end="540" vehsPerHour="39.44460565519257" departLane="free"/>
  <flow id="JF294104" begin="480" fromJunction="J0" toJunction="J4" end="540" vehsPerHour="68.47362090944497" departLane="free"/>
  <flow id="JF294105" begin="480" fromJunction="J0" toJunction="J6" end="540" vehsPerHour="104.12360192185757" departLane="free"/>
  <flow id="JF294106" begin="480" fromJunction="J7" toJunction="J5" end="540" vehsPerHour="9.987583220847439" departLane="free"/>
  <flow id="JF294107" begin="480" fromJunction="J7" toJunction="J4" end="540" vehsPerHour="15.64465071693723" departLane="free"/>
  <flow id="JF294108" begin="480" fromJunction="J7" toJunction="J6" end="540" vehsPerHour="27.67894057279379" departLane="free"/>
  <flow id="JF294109" begin="480" fromJunction="J5" toJunction="J7" end="540" vehsPerHour="41.47011472306502" departLane="free"/>
  <flow id="JF294110" begin="480" fromJunction="J5" toJunction="J4" end="540" vehsPerHour="54.90002714155984" departLane="free"/>
  <flow id="JF294111" begin="480" fromJunction="J5" toJunction="J6" end="540" vehsPerHour="49.08694053270859" departLane="free"/>
  <flow id="JF294112" begin="480" fromJunction="J4" toJunction="J7" end="540" vehsPerHour="1.0036209528904345" departLane="free"/>
  <flow id="JF294113" begin="480" fromJunction="J4" toJunction="J5" end="540" vehsPerHour="61.800226343435064" departLane="free"/>
  <flow id="JF294114" begin="480" fromJunction="J4" toJunction="J6" end="540" vehsPerHour="43.77592145134246" departLane="free"/>
  <flow id="JF294115" begin="480" fromJunction="J6" toJunction="J7" end="540" vehsPerHour="60.616912821060914" departLane="free"/>
  <flow id="JF294116" begin="480" fromJunction="J6" toJunction="J5" end="540" vehsPerHour="61.16599769377227" departLane="free"/>
  <flow id="JF294117" begin="480" fromJunction="J6" toJunction="J4" end="540" vehsPerHour="31.288107163513313" departLane="free"/>
  <flow id="JF294118" begin="480" fromJunction="J7" toJunction="J3" end="540" vehsPerHour="6.650784212756214" departLane="free"/>
  <flow id="JF294119" begin="480" fromJunction="J7" toJunction="J0" end="540" vehsPerHour="35.12044989468575" departLane="free"/>
  <flow id="JF294120" begin="480" fromJunction="J5" toJunction="J3" end="540" vehsPerHour="48.51846707907779" departLane="free"/>
  <flow id="JF294121" begin="480" fromJunction="J5" toJunction="J0" end="540" vehsPerHour="27.56168635973264" departLane="free"/>
  <flow id="JF294122" begin="480" fromJunction="J4" toJunction="J3" end="540" vehsPerHour="12.461226367938426" departLane="free"/>
  <flow id="JF294123" begin="480" fromJunction="J4" toJunction="J0" end="540" vehsPerHour="19.1926943588577" departLane="free"/>
  <flow id="JF294124" begin="480" fromJunction="J6" toJunction="J3" end="540" vehsPerHour="27.446938967241373" departLane="free"/>
  <flow id="JF294125" begin="480" fromJunction="J6" toJunction="J0" end="540" vehsPerHour="41.6353349232795" departLane="free"/>
  <flow id="JF294126" begin="540" fromJunction="J3" toJunction="J0" end="600" vehsPerHour="179.67843537572864" departLane="free"/>
  <flow id="JF294127" begin="540" fromJunction="J0" toJunction="J3" end="600" vehsPerHour="264.2734728374234" departLane="free"/>
  <flow id="JF294128" begin="540" fromJunction="J3" toJunction="J7" end="600" vehsPerHour="66.60602808715836" departLane="free"/>
  <flow id="JF294129" begin="540" fromJunction="J3" toJunction="J5" end="600" vehsPerHour="44.586057382062144" departLane="free"/>
  <flow id="JF294130" begin="540" fromJunction="J3" toJunction="J4" end="600" vehsPerHour="53.57847814270883" departLane="free"/>
  <flow id="JF294131" begin="540" fromJunction="J3" toJunction="J6" end="600" vehsPerHour="38.8899237043921" departLane="free"/>
  <flow id="JF294132" begin="540" fromJunction="J0" toJunction="J7" end="600" vehsPerHour="82.28050347377395" departLane="free"/>
  <flow id="JF294133" begin="540" fromJunction="J0" toJunction="J5" end="600" vehsPerHour="105.25148023391061" departLane="free"/>
  <flow id="JF294134" begin="540" fromJunction="J0" toJunction="J4" end="600" vehsPerHour="69.82661439490472" departLane="free"/>
  <flow id="JF294135" begin="540" fromJunction="J0" toJunction="J6" end="600" vehsPerHour="70.01676153818322" departLane="free"/>
  <flow id="JF294136" begin="540" fromJunction="J7" toJunction="J5" end="600" vehsPerHour="50.67072505140102" departLane="free"/>
  <flow id="JF294137" begin="540" fromJunction="J7" toJunction="J4" end="600" vehsPerHour="9.089562640628927" departLane="free"/>
  <flow id="JF294138" begin="540" fromJunction="J7" toJunction="J6" end="600" vehsPerHour="37.77543339372576" departLane="free"/>
  <flow id="JF294139" begin="540" fromJunction="J5" toJunction="J7" end="600" vehsPerHour="9.080996936239771" departLane="free"/>
  <flow id="JF294140" begin="540" fromJunction="J5" toJunction="J4" end="600" vehsPerHour="66.02060460149268" departLane="free"/>
  <flow id="JF294141" begin="540" fromJunction="J5" toJunction="J6" end="600" vehsPerHour="42.61824838879284" departLane="free"/>
  <flow id="JF294142" begin="540" fromJunction="J4" toJunction="J7" end="600" vehsPerHour="67.4755750004874" departLane="free"/>
  <flow id="JF294143" begin="540" fromJunction="J4" toJunction="J5" end="600" vehsPerHour="14.673922628214319" departLane="free"/>
  <flow id="JF294144" begin="540" fromJunction="J4" toJunction="J6" end="600" vehsPerHour="18.536088895064342" departLane="free"/>
  <flow id="JF294145" begin="540" fromJunction="J6" toJunction="J7" end="600" vehsPerHour="0.9961795820225732" departLane="free"/>
  <flow id="JF294146" begin="540" fromJunction="J6" toJunction="J5" end="600" vehsPerHour="26.906385271348622" departLane="free"/>
  <flow id="JF294147" begin="540" fromJunction="J6" toJunction="J4" end="600" vehsPerHour="19.582780282890617" departLane="free"/>
  <flow id="JF294148" begin="540" fromJunction="J7" toJunction="J3" end="600" vehsPerHour="18.305167761796866" departLane="free"/>
  <flow id="JF294149" begin="540" fromJunction="J7" toJunction="J0" end="600" vehsPerHour="21.31028545062085" departLane="free"/>
  <flow id="JF294150" begin="540" fromJunction="J5" toJunction="J3" end="600" vehsPerHour="33.560271243292114" departLane="free"/>
  <flow id="JF294151" begin="540" fromJunction="J5" toJunction="J0" end="600" vehsPerHour="32.49582296420038" departLane="free"/>
  <flow id="JF294152" begin="540" fromJunction="J4" toJunction="J3" end="600" vehsPerHour="45.96801816284293" departLane="free"/>
  <flow id="JF294153" begin="540" fromJunction="J4" toJunction="J0" end="600" vehsPerHour="4.389967487573248" departLane="free"/>
  <flow id="JF294154" begin="540" fromJunction="J6" toJunction="J3" end="600" vehsPerHour="26.962004826623236" departLane="free"/>
  <flow id="JF294155" begin="540" fromJunction="J6" toJunction="J0" end="600" vehsPerHour="63.96964737837542" departLane="free"/>
  <flow id="JF294156" begin="600" fromJunction="J3" toJunction="J0" end="660" vehsPerHour="501.99400367942445" departLane="free"/>
  <flow id="JF294157" begin="600" fromJunction="J0" toJunction="J3" end="660" vehsPerHour="467.87479974884116" departLane="free"/>
  <flow id="JF294158" begin="600" fromJunction="J3" toJunction="J7" end="660" vehsPerHour="123.77290764711675" departLane="free"/>
  <flow id="JF294159" begin="600" fromJunction="J3" toJunction="J5" end="660" vehsPerHour="5.940657998192027" departLane="free"/>
  <flow id="JF294160" begin="600" fromJunction="J3" toJunction="J4" end="660" vehsPerHour="65.48750313089108" departLane="free"/>
  <flow id="JF294161" begin="600" fromJunction="J3" toJunction="J6" end="660" vehsPerHour="122.5747426734097" departLane="free"/>
  <flow id="JF294162" begin="600" fromJunction="J0" toJunction="J7" end="660" vehsPerHour="59.590031469733624" departLane="free"/>
  <flow id="JF294163" begin="600" fromJunction="J0" toJunction="J5" end="660" vehsPerHour="88.35204760220725" departLane="free"/>
  <flow id="JF294164" begin="600" fromJunction="J0" toJunction="J4" end="660" vehsPerHour="17.658147016418134" departLane="free"/>