<?xml version="1.0" encoding="UTF-8"?>
<routes xmlns:xsi="http://www.w3.org/2001/XMLSchema-instance" xsi:noNamespaceSchemaLocation="http://sumo.dlr.de/xsd/routes_file.xsd">
  <flow id="JF316867" begin="0" fromJunction="J0" toJunction="J3" end="60" vehsPerHour="148.72028580617467" departLane="free"/>
  <flow id="JF316868" begin="0" fromJunction="J3" toJunction="J0" end="60" vehsPerHour="295.1952899571335" departLane="free"/>
  <flow id="JF316869" begin="0" fromJunction="J0" toJunction="J5" end="60" vehsPerHour="37.11298854275872" departLane="free"/>
  <flow id="JF316870" begin="0" fromJunction="J0" toJunction="J4" end="60" vehsPerHour="13.33889496941444" departLane="free"/>
  <flow id="JF316871" begin="0" fromJunction="J0" toJunction="J6" end="60" vehsPerHour="65.99272287054289" departLane="free"/>
  <flow id="JF316872" begin="0" fromJunction="J0" toJunction="J7" end="60" vehsPerHour="39.63567424351931" departLane="free"/>
  <flow id="JF316873" begin="0" fromJunction="J3" toJunction="J5" end="60" vehsPerHour="6.038198133286136" departLane="free"/>
  <flow id="JF316874" begin="0" fromJunction="J3" toJunction="J4" end="60" vehsPerHour="60.860567097287785" departLane="free"/>
  <flow id="JF316875" begin="0" fromJunction="J3" toJunction="J6" end="60" vehsPerHour="9.382250755298829" departLane="free"/>
  <flow id="JF316876" begin="0" fromJunction="J3" toJunction="J7" end="60" vehsPerHour="22.79618324169154" departLane="free"/>
  <flow id="JF316877" begin="0" fromJunction="J5" toJunction="J4" end="60" vehsPerHour="33.611156085906124" departLane="free"/>
  <flow id="JF316878" begin="0" fromJunction="J5" toJunction="J6" end="60" vehsPerHour="25.234500776839393" departLane="free"/>
  <flow id="JF316879" begin="0" fromJunction="J5" toJunction="J7" end="60" vehsPerHour="0.853672115551752" departLane="free"/>
  <flow id="JF316880" begin="0" fromJunction="J4" toJunction="J5" end="60" vehsPerHour="7.010094836248226" departLane="free"/>
  <flow id="JF316881" begin="0" fromJunction="J4" toJunction="J6" end="60" vehsPerHour="11.204765400437596" departLane="free"/>
  <flow id="JF316882" begin="0" fromJunction="J4" toJunction="J7" end="60" vehsPerHour="14.872993454131995" departLane="free"/>
  <flow id="JF316883" begin="0" fromJunction="J6" toJunction="J5" end="60" vehsPerHour="68.00841223301398" departLane="free"/>
  <flow id="JF316884" begin="0" fromJunction="J6" toJunction="J4" end="60" vehsPerHour="31.817372702782343" departLane="free"/>
  <flow id="JF316885" begin="0" fromJunction="J6" toJunction="J7" end="60" vehsPerHour="13.0076229420441" departLane="free"/>
  <flow id="JF316886" begin="0" fromJunction="J7" toJunction="J5" end="60" vehsPerHour="48.50109647859462" departLane="free"/>
  <flow id="JF316887" begin="0" fromJunction="J7" toJunction="J4" end="60" vehsPerHour="17.6845284237691" departLane="free"/>
  <flow id="JF316888" begin="0" fromJunction="J7" toJunction="J6" end="60" vehsPerHour="30.205508707857106" departLane="free"/>
  <flow id="JF316889" begin="0" fromJunction="J5" toJunction="J0" end="60" vehsPerHour="21.87130210225794" departLane="free"/>
  <flow id="JF316890" begin="0" fromJunction="J5" toJunction="J3" end="60" vehsPerHour="31.884782988627723" departLane="free"/>
  <flow id="JF316891" begin="0" fromJunction="J4" toJunction="J0" end="60" vehsPerHour="7.05277412443561" departLane="free"/>
  <flow id="JF316892" begin="0" fromJunction="J4" toJunction="J3" end="60" vehsPerHour="54.05989027971633" departLane="free"/>
  <flow id="JF316893" begin="0" fromJunction="J6" toJunction="J0" end="60" vehsPerHour="46.09135776450928" departLane="free"/>
  <flow id="JF316894" begin="0" fromJunction="J6" toJunction="J3" end="60" vehsPerHour="67.42033243054793" departLane="free"/>
  <flow id="JF316895" begin="0" fromJunction="J7" toJunction="J0" end="60" vehsPerHour="16.53082701433144" departLane="free"/>
  <flow id="JF316896" begin="0" fromJunction="J7" toJunction="J3" end="60" vehsPerHour="17.85655118734514" departLane="free"/>
  <flow id="JF316897" begin="60" fromJunction="J0" toJunction="J3" end="120" vehsPerHour="35.98343143359168" departLane="free"/>
  <flow id="JF316898" begin="60" fromJunction="J3" toJunction="J0" end="120" vehsPerHour="247.99100803690996" departLane="free"/>
  <flow id="JF316899" begin="60" fromJunction="J0" toJunction="J5" end="120" vehsPerHour="10.507141669153624" departLane="free"/>
  <flow id="JF316900" begin="60" fromJunction="J0" toJunction="J4" end="120" vehsPerHour="12.772879752730894" departLane="free"/>
  <flow id="JF316901" begin="60" fromJunction="J0" toJunction="J6" end="120" vehsPerHour="3.0826502320504363" departLane="free"/>
  <flow id="JF316902" begin="60" fromJunction="J0" toJunction="J7" end="120" vehsPerHour="9.314916494172007" departLane="free"/>
  <flow id="JF316903" begin="60" fromJunction="J3" toJunction="J5" end="120" vehsPerHour="67.7077212180298" departLane="free"/>
  <flow id="JF316904" begin="60" fromJunction="J3" toJunction="J4" end="120" vehsPerHour="52.163134444407504" departLane="free"/>
  <flow id="JF316905" begin="60" fromJunction="J3" toJunction="J6" end="120" vehsPerHour="66.49112796103262" departLane="free"/>
  <flow id="JF316906" begin="60" fromJunction="J3" toJunction="J7" end="120" vehsPerHour="28.19250103017593" departLane="free"/>
  <flow id="JF316907" begin="60" fromJunction="J5" toJunction="J4" end="120" vehsPerHour="2.260021940042294" departLane="free"/>
  <flow id="JF316908" begin="60" fromJunction="J5" toJunction="J6" end="120" vehsPerHour="29.711234653343364" departLane="free"/>
  <flow id="JF316909" begin="60" fromJunction="J5" toJunction="J7" end="120" vehsPerHour="4.223296079316897" departLane="free"/>
  <flow id="JF316910" begin="60" fromJunction="J4" toJunction="J5" end="120" vehsPerHour="10.39838077093161" departLane="free"/>
  <flow id="JF316911" begin="60" fromJunction="J4" toJunction="J6" end="120" vehsPerHour="22.052064143039416" departLane="free"/>
  <flow id="JF316912" begin="60" fromJunction="J4" toJunction="J7" end="120" vehsPerHour="28.519835467991385" departLane="free"/>
  <flow id="JF316913" begin="60" fromJunction="J6" toJunction="J5" end="120" vehsPerHour="55.12335418099845" departLane="free"/>
  <flow id="JF316914" begin="60" fromJunction="J6" toJunction="J4" end="120" vehsPerHour="20.89729439858611" departLane="free"/>
  <flow id="JF316915" begin="60" fromJunction="J6" toJunction="J7" end="120" vehsPerHour="2.7215554245518945" departLane="free"/>
  <flow id="JF316916" begin="60" fromJunction="J7" toJunction="J5" end="120" vehsPerHour="19.03416733947948" departLane="free"/>
  <flow id="JF316917" begin="60" fromJunction="J7" toJunction="J4" end="120" vehsPerHour="66.42779877255167" departLane="free"/>
  <flow id="JF316918" begin="60" fromJunction="J7" toJunction="J6" end="120" vehsPerHour="43.63452155278148" departLane="free"/>
  <flow id="JF316919" begin="60" fromJunction="J5" toJunction="J0" end="120" vehsPerHour="58.6969885740319" departLane="free"/>
  <flow id="JF316920" begin="60" fromJunction="J5" toJunction="J3" end="120" vehsPerHour="50.37427749906894" departLane="free"/>
  <flow id="JF316921" begin="60" fromJunction="J4" toJunction="J0" end="120" vehsPerHour="62.57745151119508" departLane="free"/>
  <flow id="JF316922" begin="60" fromJunction="J4" toJunction="J3" end="120" vehsPerHour="47.812426916835214" departLane="free"/>
  <flow id="JF316923" begin="60" fromJunction="J6" toJunction="J0" end="120" vehsPerHour="55.72996956471169" departLane="free"/>
  <flow id="JF316924" begin="60" fromJunction="J6" toJunction="J3" end="120" vehsPerHour="11.351835927822039" departLane="free"/>
  <flow id="JF316925" begin="60" fromJunction="J7" toJunction="J0" end="120" vehsPerHour="2.152743971772087" departLane="free"/>
  <flow id="JF316926" begin="60" fromJunction="J7" toJunction="J3" end="120" vehsPerHour="40.15441973417802" departLane="free"/>
  <flow id="JF316927" begin="120" fromJunction="J0" toJunction="J3" end="180" vehsPerHour="7.694109144402811" departLane="free"/>
  <flow id="JF316928" begin="120" fromJunction="J3" toJunction="J0" end="180" vehsPerHour="165.4081618228747" departLane="free"/>
  <flow id="JF316929" begin="120" fromJunction="J0" toJunction="J5" end="180" vehsPerHour="57.986425908253054" departLane="free"/>
  <flow id="JF316930" begin="120" fromJunction="J0" toJunction="J4" end="180" vehsPerHour="31.07411365661908" departLane="free"/>
  <flow id="JF316931" begin="120" fromJunction="J0" toJunction="J6" end="180" vehsPerHour="9.060239769777546" departLane="free"/>
  <flow id="JF316932" begin="120" fromJunction="J0" toJunction="J7" end="180" vehsPerHour="21.67811512223089" departLane="free"/>
  <flow id="JF316933" begin="120" fromJunction="J3" toJunction="J5" end="180" vehsPerHour="66.00548715419181" departLane="free"/>
  <flow id="JF316934" begin="120" fromJunction="J3" toJunction="J4" end="180" vehsPerHour="9.512488795428053" departLane="free"/>
  <flow id="JF316935" begin="120" fromJunction="J3" toJunction="J6" end="180" vehsPerHour="60.43040180656806" departLane="free"/>
  <flow id="JF316936" begin="120" fromJunction="J3" toJunction="J7" end="180" vehsPerHour="34.337667668906654" departLane="free"/>
  <flow id="JF316937" begin="120" fromJunction="J5" toJunction="J4" end="180" vehsPerHour="33.83790032053081" departLane="free"/>
  <flow id="JF316938" begin="120" fromJunction="J5" toJunction="J6" end="180" vehsPerHour="29.45104461200716" departLane="free"/>
  <flow id="JF316939" begin="120" fromJunction="J5" toJunction="J7" end="180" vehsPerHour="13.953724483203239" departLane="free"/>
  <flow id="JF316940" begin="120" fromJunction="J4" toJunction="J5" end="180" vehsPerHour="5.645438785479164" departLane="free"/>
  <flow id="JF316941" begin="120" fromJunction="J4" toJunction="J6" end="180" vehsPerHour="16.16281318467383" departLane="free"/>
  <flow id="JF316942" begin="120" fromJunction="J4" toJunction="J7" end="180" vehsPerHour="11.933609075403668" departLane="free"/>
  <flow id="JF316943" begin="120" fromJunction="J6" toJunction="J5" end="180" vehsPerHour="2.7956243780784282" departLane="free"/>
  <flow id="JF316944" begin="120" fromJunction="J6" toJunction="J4" end="180" vehsPerHour="66.07165950871418" departLane="free"/>
  <flow id="JF316945" begin="120" fromJunction="J6" toJunction="J7" end="180" vehsPerHour="11.219822902368001" departLane="free"/>
  <flow id="JF316946" begin="120" fromJunction="J7" toJunction="J5" end="180" vehsPerHour="28.93206133701615" departLane="free"/>
  <flow id="JF316947" begin="120" fromJunction="J7" toJunction="J4" end="180" vehsPerHour="54.31482125429746" departLane="free"/>
  <flow id="JF316948" begin="120" fromJunction="J7" toJunction="J6" end="180" vehsPerHour="9.590455504851946" departLane="free"/>
  <flow id="JF316949" begin="120" fromJunction="J5" toJunction="J0" end="180" vehsPerHour="66.48131585137718" departLane="free"/>
  <flow id="JF316950" begin="120" fromJunction="J5" toJunction="J3" end="180" vehsPerHour="6.759089762884976" departLane="free"/>
  <flow id="JF316951" begin="120" fromJunction="J4" toJunction="J0" end="180" vehsPerHour="21.881154459467965" departLane="free"/>
  <flow id="JF316952" begin="120" fromJunction="J4" toJunction="J3" end="180" vehsPerHour="59.04436359697805" departLane="free"/>
  <flow id="JF316953" begin="120" fromJunction="J6" toJunction="J0" end="180" vehsPerHour="5.530949791055533" departLane="free"/>
  <flow id="JF316954" begin="120" fromJunction="J6" toJunction="J3" end="180" vehsPerHour="56.11645236157817" departLane="free"/>
  <flow id="JF316955" begin="120" fromJunction="J7" toJunction="J0" end="180" vehsPerHour="11.250611160589683" departLane="free"/>
  <flow id="JF316956" begin="120" fromJunction="J7" toJunction="J3" end="180" vehsPerHour="64.69993266104471" departLane="free"/>
  <flow id="JF316957" begin="180" fromJunction="J0" toJunction="J3" end="240" vehsPerHour="43.508716330035796" departLane="free"/>
  <flow id="JF316958" begin="180" fromJunction="J3" toJunction="J0" end="240" vehsPerHour="407.5221642245116" departLane="free"/>
  <flow id="JF316959" begin="180" fromJunction="J0" toJunction="J5" end="240" vehsPerHour="91.42639734936205" departLane="free"/>
  <flow id="JF316960" begin="180" fromJunction="J0" toJunction="J4" end="240" vehsPerHour="137.22666000621237" departLane="free"/>
  <flow id="JF316961" begin="180" fromJunction="J0" toJunction="J6" end="240" vehsPerHour="15.44743695080456" departLane="free"/>
  <flow id="JF316962" begin="180" fromJunction="J0" toJunction="J7" end="240" vehsPerHour="67.72722469684942" departLane="free"/>
  <flow id="JF316963" begin="180" fromJunction="J3" toJunction="J5" end="240" vehsPerHour="13.318784469465811" departLane="free"/>
  <flow id="JF316964" begin="180" fromJunction="J3" toJunction="J4" end="240" vehsPerHour="126.12872657750226" departLane="free"/>
  <flow id="JF316965" begin="180" fromJunction="J3" toJunction="J6" end="240" vehsPerHour="107.14286085928542" departLane="free"/>
  <flow id="JF316966" begin="180" fromJunction="J3" toJunction="J7" end="240" vehsPerHour="5.328248135096979" departLane="free"/>
  <flow id="JF316967" begin="240" fromJunction="J0" toJunction="J3" end="300" vehsPerHour="193.04383401866767" departLane="free"/>
  <flow id="JF316968" begin="240" fromJunction="J3" toJunction="J0" end="300" vehsPerHour="150.90371688478956" departLane="free"/>
  <flow id="JF316969" begin="240" fromJunction="J0" toJunction="J5" end="300" vehsPerHour="30.590832795869137" departLane="free"/>
  <flow id="JF316970" begin="240" fromJunction="J0" toJunction="J4" end="300" vehsPerHour="36.526397417047946" departLane="free"/>
  <flow id="JF316971" begin="240" fromJunction="J0" toJunction="J6" end="300" vehsPerHour="66.96107986814664" departLane="free"/>
  <flow id="JF316972" begin="240" fromJunction="J0" toJunction="J7" end="300" vehsPerHour="5.540316027396569" departLane="free"/>
  <flow id="JF316973" begin="240" fromJunction="J3" toJunction="J5" end="300" vehsPerHour="66.30804972523315" departLane="free"/>
  <flow id="JF316974" begin="240" fromJunction="J3" toJunction="J4" end="300" vehsPerHour="68.20535413255789" departLane="free"/>
  <flow id="JF316975" begin="240" fromJunction="J3" toJunction="J6" end="300" vehsPerHour="49.37409579596279" departLane="free"/>
  <flow id="JF316976" begin="240" fromJunction="J3" toJunction="J7" end="300" vehsPerHour="18.6507521286981" departLane="free"/>
  <flow id="JF316977" begin="240" fromJunction="J5" toJunction="J4" end="300" vehsPerHour="0.5511265629305075" departLane="free"/>
  <flow id="JF316978" begin="240" fromJunction="J5" toJunction="J6" end="300" vehsPerHour="32.27502317006516" departLane="free"/>
  <flow id="JF316979" begin="240" fromJunction="J5" toJunction="J7" end="300" vehsPerHour="1.7250931839912622" departLane="free"/>
  <flow id="JF316980" begin="240" fromJunction="J4" toJunction="J5" end="300" vehsPerHour="31.96042803922512" departLane="free"/>
  <flow id="JF316981" begin="240" fromJunction="J4" toJunction="J6" end="300" vehsPerHour="0.6656507557225442" departLane="free"/>
  <flow id="JF316982" begin="240" fromJunction="J4" toJunction="J7" end="300" vehsPerHour="2.474626073280042" departLane="free"/>
  <flow id="JF316983" begin="240" fromJunction="J6" toJunction="J5" end="300" vehsPerHour="60.64611606980915" departLane="free"/>
  <flow id="JF316984" begin="240" fromJunction="J6" toJunction="J4" end="300" vehsPerHour="32.24603733702482" departLane="free"/>
  <flow id="JF316985" begin="240" fromJunction="J6" toJunction="J7" end="300" vehsPerHour="4.8261890799253" departLane="free"/>
  <flow id="JF316986" begin="240" fromJunction="J7" toJunction="J5" end="300" vehsPerHour="18.72015798858428" departLane="free"/>
  <flow id="JF316987" begin="240" fromJunction="J7" toJunction="J4" end="300" vehsPerHour="17.789380141034215" departLane="free"/>
  <flow id="JF316988" begin="240" fromJunction="J7" toJunction="J6" end="300" vehsPerHour="68.50637951661437" departLane="free"/>
  <flow id="JF316989" begin="240" fromJunction="J5" toJunction="J0" end="300" vehsPerHour="41.29308829255511" departLane="free"/>
  <flow id="JF316990" begin="240" fromJunction="J5" toJunction="J3" end="300" vehsPerHour="40.0647941826138" departLane="free"/>
  <flow id="JF316991" begin="240" fromJunction="J4" toJunction="J0" end="300" vehsPerHour="1.529526074615006" departLane="free"/>
  <flow id="JF316992" begin="240" fromJunction="J4" toJunction="J3" end="300" vehsPerHour="21.83883321111185" departLane="free"/>
  <flow id="JF316993" begin="240" fromJunction="J6" toJunction="J0" end="300" vehsPerHour="67.62765333881323" departLane="free"/>
  <flow id="JF316994" begin="240" fromJunction="J6" toJunction="J3" end="300" vehsPerHour="26.601280012364292" departLane="free"/>
  <flow id="JF316995" begin="240" fromJunction="J7" toJunction="J0" end="300" vehsPerHour="67.81137646638261" departLane="free"/>
  <flow id="JF316996" begin="240" fromJunction="J7" toJunction="J3" end="300" vehsPerHour="66.37639145614186" departLane="free"/>
  <flow id="JF316997" begin="300" fromJunction="J0" toJunction="J3" end="360" vehsPerHour="134.35446624079222" departLane="free"/>
  <flow id="JF316998" begin="300" fromJunction="J3" toJunction="J0" end="360" vehsPerHour="74.35391417322394" departLane="free"/>
  <flow id="JF316999" begin="300" fromJunction="J0" toJunction="J5" end="360" vehsPerHour="128.97182269296277" departLane="free"/>
  <flow id="JF317000" begin="300" fromJunction="J0" toJunction="J4" end="360" vehsPerHour="73.14035411433258" departLane="free"/>
  <flow id="JF317001" begin="300" fromJunction="J0" toJunction="J6" end="360" vehsPerHour="97.82773460270244" departLane="free"/>
  <flow id="JF317002" begin="300" fromJunction="J0" toJunction="J7" end="360" vehsPerHour="33.59485902721906" departLane="free"/>
  <flow id="JF317003" begin="300" fromJunction="J3" toJunction="J5" end="360" vehsPerHour="128.51451484040155" departLane="free"/>
  <flow id="JF317004" begin="300" fromJunction="J3" toJunction="J4" end="360" vehsPerHour="44.831712666280026" departLane="free"/>
  <flow id="JF317005" begin="300" fromJunction="J3" toJunction="J6" end="360" vehsPerHour="40.17214567016396" departLane="free"/>
  <flow id="JF317006" begin="300" fromJunction="J3" toJunction="J7" end="360" vehsPerHour="126.53001245589866" departLane="free"/>
  <flow id="JF317007" begin="360" fromJunction="J0" toJunction="J3" end="420" vehsPerHour="233.74610340301024" departLane="free"/>
  <flow id="JF317008" begin="360" fromJunction="J3" toJunction="J0" end="420" vehsPerHour="119.98360572228023" departLane="free"/>
  <flow id="JF317009" begin="360" fromJunction="J0" toJunction="J5" end="420" vehsPerHour="2.7179573368665233" departLane="free"/>
  <flow id="JF317010" begin="360" fromJunction="J0" toJunction="J4" end="420" vehsPerHour="53.40393721639274" departLane="free"/>
  <flow id="JF317011" begin="360" fromJunction="J0" toJunction="J6" end="420" vehsPerHour="14.67602597190247" departLane="free"/>
  <flow id="JF317012" begin="360" fromJunction="J0" toJunction="J7" end="420" vehsPerHour="63.197849361352716" departLane="free"/>
  <flow id="JF317013" begin="360" fromJunction="J3" toJunction="J5" end="420" vehsPerHour="68.3091919086348" departLane="free"/>
  <flow id="JF317014" begin="360" fromJunction="J3" toJunction="J4" end="420" vehsPerHour="38.36107157018521" departLane="free"/>
  <flow id="JF317015" begin="360" fromJunction="J3" toJunction="J6" end="420" vehsPerHour="33.92998481355381" departLane="free"/>
  <flow id="JF317016" begin="360" fromJunction="J3" toJunction="J7" end="420" vehsPerHour="40.91654675325076" departLane="free"/>
  <flow id="JF317017" begin="360" fromJunction="J5" toJunction="J4" end="420" vehsPerHour="38.21586689219274" departLane="free"/>
  <flow id="JF317018" begin="360" fromJunction="J5" toJunction="J6" end="420" vehsPerHour="27.878749344800962" departLane="free"/>
  <flow id="JF317019" begin="360" fromJunction="J5" toJunction="J7" end="420" vehsPerHour="10.391428505034611" departLane="free"/>
  <flow id="JF317020" begin="360" fromJunction="J4" toJunction="J5" end="420" vehsPerHour="21.513786897275253" departLane="free"/>
  <flow id="JF317021" begin="360" fromJunction="J4" toJunction="J6" end="420" vehsPerHour="13.049093780561488" departLane="free"/>
  <flow id="JF317022" begin="360" fromJunction="J4" toJunction="J7" end="420" vehsPerHour="11.958565232009631" departLane="free"/>
  <flow id="JF317023" begin="360" fromJunction="J6" toJunction="J5" end="420" vehsPerHour="52.32283155748721" departLane="free"/>
  <flow id="JF317024" begin="360" fromJunction="J6" toJunction="J4" end="420" vehsPerHour="6.319372666277426" departLane="free"/>
  <flow id="JF317025" begin="360" fromJunction="J6" toJunction="J7" end="420" vehsPerHour="25.989973136486576" departLane="free"/>
  <flow id="JF317026" begin="360" fromJunction="J7" toJunction="J5" end="420" vehsPerHour="24.068788575029092" departLane="free"/>
  <flow id="JF317027" begin="360" fromJunction="J7" toJunction="J4" end="420" vehsPerHour="1.1346323602562753" departLane="free"/>
  <flow id="JF317028" begin="360" fromJunction="J7" toJunction="J6" end="420" vehsPerHour="6.829207570869589" departLane="free"/>
  <flow id="JF317029" begin="360" fromJunction="J5" toJunction="J0" end="420" vehsPerHour="21.98513733378512" departLane="free"/>
  <flow id="JF317030" begin="360" fromJunction="J5" toJunction="J3" end="420" vehsPerHour="20.433178900061122" departLane="free"/>
  <flow id="JF317031" begin="360" fromJunction="J4" toJunction="J0" end="420" vehsPerHour="29.33893741079966" departLane="free"/>
  <flow id="JF317032" begin="360" fromJunction="J4" toJunction="J3" end="420" vehsPerHour="37.01736482957919" departLane="free"/>
  <flow id="JF317033" begin="360" fromJunction="J6" toJunction="J0" end="420" vehsPerHour="53.615900799992374" departLane="free"/>
  <flow id="JF317034" begin="360" fromJunction="J6" toJunction="J3" end="420" vehsPerHour="58.839831513686484" departLane="free"/>
  <flow id="JF317035" begin="360" fromJunction="J7" toJunction="J0" end="420" vehsPerHour="31.078660085859767" departLane="free"/>
  <flow id="JF317036" begin="360" fromJunction="J7" toJunction="J3" end="420" vehsPerHour="49.07087098601243" departLane="free"/>
  <flow id="JF317037" begin="420" fromJunction="J0" toJunction="J3" end="480" vehsPerHour="177.11413179774448" departLane="free"/>
  <flow id="JF317038" begin="420" fromJunction="J3" toJunction="J0" end="480" vehsPerHour="5.425213036072795" departLane="free"/>
  <flow id="JF317039" begin="420" fromJunction="J0" toJunction="J5" end="480" vehsPerHour="6.590900251489719" departLane="free"/>
  <flow id="JF317040" begin="420" fromJunction="J0" toJunction="J4" end="480" vehsPerHour="35.314364720816265" departLane="free"/>
  <flow id="JF317041" begin="420" fromJunction="J0" toJunction="J6" end="480" vehsPerHour="10.937051907700443" departLane="free"/>
  <flow id="JF317042" begin="420" fromJunction="J0" toJunction="J7" end="480" vehsPerHour="24.973233418393477" departLane="free"/>
  <flow id="JF317043" begin="420" fromJunction="J3" toJunction="J5" end="480" vehsPerHour="24.1948196273779" departLane="free"/>
  <flow id="JF317044" begin="420" fromJunction="J3" toJunction="J4" end="480" vehsPerHour="45.18937773640103" departLane="free"/>
  <flow id="JF317045" begin="420" fromJunction="J3" toJunction="J6" end="480" vehsPerHour="48.04846284286387" departLane="free"/>
  <flow id="JF317046" begin="420" fromJunction="J3" toJunction="J7" end="480" vehsPerHour="17.87432014924189" departLane="free"/>
  <flow id="JF317047" begin="420" fromJunction="J5" toJunction="J4" end="480" vehsPerHour="15.89655826592082" departLane="free"/>
  <flow id="JF317048" begin="420" fromJunction="J5" toJunction="J6" end="480" vehsPerHour="25.65912249858474" departLane="free"/>
  <flow id="JF317049" begin="420" fromJunction="J5" toJunction="J7" end="480" vehsPerHour="8.444331315620067" departLane="free"/>
  <flow id="JF317050" begin="420" fromJunction="J4" toJunction="J5" end="480" vehsPerHour="23.41770733476648" departLane="free"/>
  <flow id="JF317051" begin="420" fromJunction="J4" toJunction="J6" end="480" vehsPerHour="10.12217911221907" departLane="free"/>
  <flow id="JF317052" begin="420" fromJunction="J4" toJunction="J7" end="480" vehsPerHour="32.880729713510355" departLane="free"/>
  <flow id="JF317053" begin="420" fromJunction="J6" toJunction="J5" end="480" vehsPerHour="45.45010366794178" departLane="free"/>
  <flow id="JF317054" begin="420" fromJunction="J6" toJunction="J4" end="480" vehsPerHour="63.41588766580027" departLane="free"/>
  <flow id="JF317055" begin="420" fromJunction="J6" toJunction="J7" end="480" vehsPerHour="8.05995087482319" departLane="free"/>
  <flow id="JF317056" begin="420" fromJunction="J7" toJunction="J5" end="480" vehsPerHour="11.47048917668452" departLane="free"/>
  <flow id="JF317057" begin="420" fromJunction="J7" toJunction="J4" end="480" vehsPerHour="17.377470965067687" departLane="free"/>
  <flow id="JF317058" begin="420" fromJunction="J7" toJunction="J6" end="480" vehsPerHour="51.39333004414776" departLane="free"/>
  <flow id="JF317059" begin="420" fromJunction="J5" toJunction="J0" end="480" vehsPerHour="31.174850685320166" departLane="free"/>
  <flow id="JF317060" begin="420" fromJunction="J5" toJunction="J3" end="480" vehsPerHour="39.37270748203783" departLane="free"/>
  <flow id="JF317061" begin="420" fromJunction="J4" toJunction="J0" end="480" vehsPerHour="18.14169743410402" departLane="free"/>
  <flow id="JF317062" begin="420" fromJunction="J4" toJunction="J3" end="480" vehsPerHour="10.753719216848749" departLane="free"/>
  <flow id="JF317063" begin="420" fromJunction="J6" toJunction="J0" end="480" vehsPerHour="8.430066660535557" departLane="free"/>
  <flow id="JF317064" begin="420" fromJunction="J6" toJunction="J3" end="480" vehsPerHour="17.447796617814703" departLane="free"/>
  <flow id="JF317065" begin="420" fromJunction="J7" toJunction="J0" end="480" vehsPerHour="22.60754149414572" departLane="free"/>
  <flow id="JF317066" begin="420" fromJunction="J7" toJunction="J3" end="480" vehsPerHour="50.22952659183013" departLane="free"/>
  <flow id="JF317067" begin="480" fromJunction="J0" toJunction="J3" end="540" vehsPerHour="246.50836079969898" departLane="free"/>
  <flow id="JF317068" begin="480" fromJunction="J3" toJunction="J0" end="540" vehsPerHour="347.80869037547075" departLane="free"/>
  <flow id="JF317069" begin="480" fromJunction="J0" toJunction="J5" end="540" vehsPerHour="10.347127561849408" departLane="free"/>
  <flow id="JF317070" begin="480" fromJunction="J0" toJunction="J4" end="540" vehsPerHour="31.841966162899176" departLane="free"/>
  <flow id="JF317071" begin="480" fromJunction="J0" toJunction="J6" end="540" vehsPerHour="60.90148735486328" departLane="free"/>
  <flow id="JF317072" begin="480" fromJunction="J0" toJunction="J7" end="540" vehsPerHour="12.539959378068476" departLane="free"/>
  <flow id="JF317073" begin="480" fromJunction="J3" toJunction="J5" end="540" vehsPerHour="20.8746139078268" departLane="free"/>
  <flow id="JF317074" begin="480" fromJunction="J3" toJunction="J4" end="540" vehsPerHour="31.06105317904973" departLane="free"/>
  <flow id="JF317075" begin="480" fromJunction="J3" toJunction="J6" end="540" vehsPerHour="19.29495246551315" departLane="free"/>
  <flow id="JF317076" begin="480" fromJunction="J3" toJunction="J7" end="540" vehsPerHour="7.3754344215729315" departLane="free"/>
  <flow id="JF317077" begin="480" fromJunction="J5" toJunction="J4" end="540" vehsPerHour="54.7382647230891" departLane="free"/>
  <flow id="JF317078" begin="480" fromJunction="J5" toJunction="J6" end="540" vehsPerHour="32.71239904089354" departLane="free"/>
  <flow id="JF317079" begin="480" fromJunction="J5" toJunction="J7" end="540" vehsPerHour="23.949244382099042" departLane="free"/>
  <flow id="JF317080" begin="480" fromJunction="J4" toJunction="J5" end="540" vehsPerHour="10.751168191362996" departLane="free"/>
  <flow id="JF317081" begin="480" fromJunction="J4" toJunction="J6" end="540" vehsPerHour="6.913898999482368" departLane="free"/>
  <flow id="JF317082" begin="480" fromJunction="J4" toJunction="J7" end="540" vehsPerHour="21.012947490403835" departLane="free"/>
  <flow id="JF317083" begin="480" fromJunction="J6" toJunction="J5" end="540" vehsPerHour="12.781679343041818" departLane="free"/>
  <flow id="JF317084" begin="480" fromJunction="J6" toJunction="J4" end="540" vehsPerHour="32.669659576257786" departLane="free"/>
  <flow id="JF317085" begin="480" fromJunction="J6" toJunction="J7" end="540" vehsPerHour="24.933645126461666" departLane="free"/>
  <flow id="JF317086" begin="480" fromJunction="J7" toJunction="J5" end="540" vehsPerHour="29.87038039928744" departLane="free"/>
  <flow id="JF317087" begin="480" fromJunction="J7" toJunction="J4" end="540" vehsPerHour="8.983558277422032" departLane="free"/>
  <flow id="JF317088" begin="480" fromJunction="J7" toJunction="J6" end="540" vehsPerHour="34.60279269107002" departLane="free"/>
  <flow id="JF317089" begin="480" fromJunction="J5" toJunction="J0" end="540" vehsPerHour="7.762993772586106" departLane="free"/>
  <flow id="JF317090" begin="480" fromJunction="J5" toJunction="J3" end="540" vehsPerHour="29.736426139084987" departLane="free"/>
  <flow id="JF317091" begin="480" fromJunction="J4" toJunction="J0" end="540" vehsPerHour="60.29262807544775" departLane="free"/>
  <flow id="JF317092" begin="480" fromJunction="J4" toJunction="J3" end="540" vehsPerHour="29.780659726510844" departLane="free"/>
  <flow id="JF317093" begin="480" fromJunction="J6" toJunction="J0" end="540" vehsPerHour="24.58933912744467" departLane="free"/>
  <flow id="JF317094" begin="480" fromJunction="J6" toJunction="J3" end="540" vehsPerHour="50.33002080082892" departLane="free"/>
  <flow id="JF317095" begin="480" fromJunction="J7" toJunction="J0" end="540" vehsPerHour="0.8709414482808032" departLane="free"/>