<?xml version="1.0" encoding="UTF-8"?>
<routes xmlns:xsi="http://www.w3.org/2001/XMLSchema-instance" xsi:noNamespaceSchemaLocation="http://sumo.dlr.de/xsd/routes_file.xsd">
  <flow id="JF320767" begin="0" fromJunction="J0" toJunction="J3" end="60" vehsPerHour="102.9467708775118" departLane="free"/>
  <flow id="JF320768" begin="0" fromJunction="J3" toJunction="J0" end="60" vehsPerHour="95.51979422886012" departLane="free"/>
  <flow id="JF320769" begin="0" fromJunction="J0" toJunction="J5" end="60" vehsPerHour="55.849438314598814" departLane="free"/>
  <flow id="JF320770" begin="0" fromJunction="J0" toJunction="J4" end="60" vehsPerHour="54.00421850926279" departLane="free"/>
  <flow id="JF320771" begin="0" fromJunction="J0" toJunction="J6" end="60" vehsPerHour="65.9693531736531" departLane="free"/>
  <flow id="JF320772" begin="0" fromJunction="J0" toJunction="J7" end="60" vehsPerHour="45.24746229829853" departLane="free"/>
  <flow id="JF320773" begin="0" fromJunction="J3" toJunction="J5" end="60" vehsPerHour="36.83229998449039" departLane="free"/>
  <flow id="JF320774" begin="0" fromJunction="J3" toJunction="J4" end="60" vehsPerHour="10.042103183482114" departLane="free"/>
  <flow id="JF320775" begin="0" fromJunction="J3" toJunction="J6" end="60" vehsPerHour="20.487148751184126" departLane="free"/>
  <flow id="JF320776" begin="0" fromJunction="J3" toJunction="J7" end="60" vehsPerHour="21.7881422668764" departLane="free"/>
  <flow id="JF320777" begin="0" fromJunction="J5" toJunction="J4" end="60" vehsPerHour="61.82448264146034" departLane="free"/>
  <flow id="JF320778" begin="0" fromJunction="J5" toJunction="J6" end="60" vehsPerHour="15.545824248452512" departLane="free"/>
  <flow id="JF320779" begin="0" fromJunction="J5" toJunction="J7" end="60" vehsPerHour="2.487020502074483" departLane="free"/>
  <flow id="JF320780" begin="0" fromJunction="J4" toJunction="J5" end="60" vehsPerHour="14.168142739973524" departLane="free"/>
  <flow id="JF320781" begin="0" fromJunction="J4" toJunction="J6" end="60" vehsPerHour="1.053257948694563" departLane="free"/>
  <flow id="JF320782" begin="0" fromJunction="J4" toJunction="J7" end="60" vehsPerHour="21.84409606241079" departLane="free"/>
  <flow id="JF320783" begin="0" fromJunction="J6" toJunction="J5" end="60" vehsPerHour="51.20986445735273" departLane="free"/>
  <flow id="JF320784" begin="0" fromJunction="J6" toJunction="J4" end="60" vehsPerHour="60.731984297090925" departLane="free"/>
  <flow id="JF320785" begin="0" fromJunction="J6" toJunction="J7" end="60" vehsPerHour="31.908670550223587" departLane="free"/>
  <flow id="JF320786" begin="0" fromJunction="J7" toJunction="J5" end="60" vehsPerHour="38.90498740224332" departLane="free"/>
  <flow id="JF320787" begin="0" fromJunction="J7" toJunction="J4" end="60" vehsPerHour="53.264149695944106" departLane="free"/>
  <flow id="JF320788" begin="0" fromJunction="J7" toJunction="J6" end="60" vehsPerHour="39.356143618696485" departLane="free"/>
  <flow id="JF320789" begin="0" fromJunction="J5" toJunction="J0" end="60" vehsPerHour="18.168933877427982" departLane="free"/>
  <flow id="JF320790" begin="0" fromJunction="J5" toJunction="J3" end="60" vehsPerHour="6.207054593393624" departLane="free"/>
  <flow id="JF320791" begin="0" fromJunction="J4" toJunction="J0" end="60" vehsPerHour="13.504962166715403" departLane="free"/>
  <flow id="JF320792" begin="0" fromJunction="J4" toJunction="J3" end="60" vehsPerHour="30.347944868984076" departLane="free"/>
  <flow id="JF320793" begin="0" fromJunction="J6" toJunction="J0" end="60" vehsPerHour="61.70184154545262" departLane="free"/>
  <flow id="JF320794" begin="0" fromJunction="J6" toJunction="J3" end="60" vehsPerHour="26.307854789285745" departLane="free"/>
  <flow id="JF320795" begin="0" fromJunction="J7" toJunction="J0" end="60" vehsPerHour="63.27395626095721" departLane="free"/>
  <flow id="JF320796" begin="0" fromJunction="J7" toJunction="J3" end="60" vehsPerHour="63.268623733266224" departLane="free"/>
  <flow id="JF320797" begin="60" fromJunction="J0" toJunction="J3" end="120" vehsPerHour="211.34470244971195" departLane="free"/>
  <flow id="JF320798" begin="60" fromJunction="J3" toJunction="J0" end="120" vehsPerHour="418.0158053763341" departLane="free"/>
  <flow id="JF320799" begin="60" fromJunction="J0" toJunction="J5" end="120" vehsPerHour="123.31135661908371" departLane="free"/>
  <flow id="JF320800" begin="60" fromJunction="J0" toJunction="J4" end="120" vehsPerHour="115.13839531822836" departLane="free"/>
  <flow id="JF320801" begin="60" fromJunction="J0" toJunction="J6" end="120" vehsPerHour="58.11580738904151" departLane="free"/>
  <flow id="JF320802" begin="60" fromJunction="J0" toJunction="J7" end="120" vehsPerHour="94.04211089315235" departLane="free"/>
  <flow id="JF320803" begin="60" fromJunction="J3" toJunction="J5" end="120" vehsPerHour="29.69068107575587" departLane="free"/>
  <flow id="JF320804" begin="60" fromJunction="J3" toJunction="J4" end="120" vehsPerHour="23.504097427322638" departLane="free"/>
  <flow id="JF320805" begin="60" fromJunction="J3" toJunction="J6" end="120" vehsPerHour="125.1680265858589" departLane="free"/>
  <flow id="JF320806" begin="60" fromJunction="J3" toJunction="J7" end="120" vehsPerHour="72.65455345490325" departLane="free"/>
  <flow id="JF320807" begin="120" fromJunction="J0" toJunction="J3" end="180" vehsPerHour="262.2912614703696" departLane="free"/>
  <flow id="JF320808" begin="120" fromJunction="J3" toJunction="J0" end="180" vehsPerHour="383.065673494706" departLane="free"/>
  <flow id="JF320809" begin="120" fromJunction="J0" toJunction="J5" end="180" vehsPerHour="40.81116711695795" departLane="free"/>
  <flow id="JF320810" begin="120" fromJunction="J0" toJunction="J4" end="180" vehsPerHour="51.16494144622147" departLane="free"/>
  <flow id="JF320811" begin="120" fromJunction="J0" toJunction="J6" end="180" vehsPerHour="27.26898860254759" departLane="free"/>
  <flow id="JF320812" begin="120" fromJunction="J0" toJunction="J7" end="180" vehsPerHour="33.573653694532986" departLane="free"/>
  <flow id="JF320813" begin="120" fromJunction="J3" toJunction="J5" end="180" vehsPerHour="51.59625696402979" departLane="free"/>
  <flow id="JF320814" begin="120" fromJunction="J3" toJunction="J4" end="180" vehsPerHour="42.50328983521965" departLane="free"/>
  <flow id="JF320815" begin="120" fromJunction="J3" toJunction="J6" end="180" vehsPerHour="11.957303579687602" departLane="free"/>
  <flow id="JF320816" begin="120" fromJunction="J3" toJunction="J7" end="180" vehsPerHour="62.70149320698857" departLane="free"/>
  <flow id="JF320817" begin="120" fromJunction="J5" toJunction="J4" end="180" vehsPerHour="49.456490333004865" departLane="free"/>
  <flow id="JF320818" begin="120" fromJunction="J5" toJunction="J6" end="180" vehsPerHour="5.069564023310048" departLane="free"/>
  <flow id="JF320819" begin="120" fromJunction="J5" toJunction="J7" end="180" vehsPerHour="25.43482481886426" departLane="free"/>
  <flow id="JF320820" begin="120" fromJunction="J4" toJunction="J5" end="180" vehsPerHour="23.892500257409328" departLane="free"/>
  <flow id="JF320821" begin="120" fromJunction="J4" toJunction="J6" end="180" vehsPerHour="22.58448510196088" departLane="free"/>
  <flow id="JF320822" begin="120" fromJunction="J4" toJunction="J7" end="180" vehsPerHour="3.8030003232876792" departLane="free"/>
  <flow id="JF320823" begin="120" fromJunction="J6" toJunction="J5" end="180" vehsPerHour="21.89494288655416" departLane="free"/>
  <flow id="JF320824" begin="120" fromJunction="J6" toJunction="J4" end="180" vehsPerHour="54.455170120986935" departLane="free"/>
  <flow id="JF320825" begin="120" fromJunction="J6" toJunction="J7" end="180" vehsPerHour="4.6338203186053475" departLane="free"/>
  <flow id="JF320826" begin="120" fromJunction="J7" toJunction="J5" end="180" vehsPerHour="4.766039042851399" departLane="free"/>
  <flow id="JF320827" begin="120" fromJunction="J7" toJunction="J4" end="180" vehsPerHour="52.47958126310678" departLane="free"/>
  <flow id="JF320828" begin="120" fromJunction="J7" toJunction="J6" end="180" vehsPerHour="32.424192565834424" departLane="free"/>
  <flow id="JF320829" begin="120" fromJunction="J5" toJunction="J0" end="180" vehsPerHour="11.54043985883525" departLane="free"/>
  <flow id="JF320830" begin="120" fromJunction="J5" toJunction="J3" end="180" vehsPerHour="64.6724334066273" departLane="free"/>
  <flow id="JF320831" begin="120" fromJunction="J4" toJunction="J0" end="180" vehsPerHour="33.838605251542816" departLane="free"/>
  <flow id="JF320832" begin="120" fromJunction="J4" toJunction="J3" end="180" vehsPerHour="35.91392008179101" departLane="free"/>
  <flow id="JF320833" begin="120" fromJunction="J6" toJunction="J0" end="180" vehsPerHour="25.292503397021676" departLane="free"/>
  <flow id="JF320834" begin="120" fromJunction="J6" toJunction="J3" end="180" vehsPerHour="54.63952885168571" departLane="free"/>
  <flow id="JF320835" begin="120" fromJunction="J7" toJunction="J0" end="180" vehsPerHour="5.433194474952387" departLane="free"/>
  <flow id="JF320836" begin="120" fromJunction="J7" toJunction="J3" end="180" vehsPerHour="25.064266805073014" departLane="free"/>
  <flow id="JF320837" begin="180" fromJunction="J0" toJunction="J3" end="240" vehsPerHour="84.37452281597815" departLane="free"/>
  <flow id="JF320838" begin="180" fromJunction="J3" toJunction="J0" end="240" vehsPerHour="343.99960310814225" departLane="free"/>
  <flow id="JF320839" begin="180" fromJunction="J0" toJunction="J5" end="240" vehsPerHour="40.366240170407366" departLane="free"/>
  <flow id="JF320840" begin="180" fromJunction="J0" toJunction="J4" end="240" vehsPerHour="58.80798777502686" departLane="free"/>
  <flow id="JF320841" begin="180" fromJunction="J0" toJunction="J6" end="240" vehsPerHour="4.580350415331369" departLane="free"/>
  <flow id="JF320842" begin="180" fromJunction="J0" toJunction="J7" end="240" vehsPerHour="37.15314376775685" departLane="free"/>
  <flow id="JF320843" begin="180" fromJunction="J3" toJunction="J5" end="240" vehsPerHour="11.314985438355455" departLane="free"/>
  <flow id="JF320844" begin="180" fromJunction="J3" toJunction="J4" end="240" vehsPerHour="17.362257152191678" departLane="free"/>
  <flow id="JF320845" begin="180" fromJunction="J3" toJunction="J6" end="240" vehsPerHour="56.431314529300934" departLane="free"/>
  <flow id="JF320846" begin="180" fromJunction="J3" toJunction="J7" end="240" vehsPerHour="5.544776717122453" departLane="free"/>
  <flow id="JF320847" begin="180" fromJunction="J5" toJunction="J4" end="240" vehsPerHour="11.552081997124207" departLane="free"/>
  <flow id="JF320848" begin="180" fromJunction="J5" toJunction="J6" end="240" vehsPerHour="12.514657967197568" departLane="free"/>
  <flow id="JF320849" begin="180" fromJunction="J5" toJunction="J7" end="240" vehsPerHour="28.958318208173292" departLane="free"/>
  <flow id="JF320850" begin="180" fromJunction="J4" toJunction="J5" end="240" vehsPerHour="7.7356300570927825" departLane="free"/>
  <flow id="JF320851" begin="180" fromJunction="J4" toJunction="J6" end="240" vehsPerHour="10.69438704549539" departLane="free"/>
  <flow id="JF320852" begin="180" fromJunction="J4" toJunction="J7" end="240" vehsPerHour="20.388659638367315" departLane="free"/>
  <flow id="JF320853" begin="180" fromJunction="J6" toJunction="J5" end="240" vehsPerHour="4.41791632924109" departLane="free"/>
  <flow id="JF320854" begin="180" fromJunction="J6" toJunction="J4" end="240" vehsPerHour="12.441578834841335" departLane="free"/>
  <flow id="JF320855" begin="180" fromJunction="J6" toJunction="J7" end="240" vehsPerHour="22.593375962399723" departLane="free"/>
  <flow id="JF320856" begin="180" fromJunction="J7" toJunction="J5" end="240" vehsPerHour="59.63170840843899" departLane="free"/>
  <flow id="JF320857" begin="180" fromJunction="J7" toJunction="J4" end="240" vehsPerHour="5.444120137486839" departLane="free"/>
  <flow id="JF320858" begin="180" fromJunction="J7" toJunction="J6" end="240" vehsPerHour="11.204273436905366" departLane="free"/>
  <flow id="JF320859" begin="180" fromJunction="J5" toJunction="J0" end="240" vehsPerHour="37.959795823932836" departLane="free"/>
  <flow id="JF320860" begin="180" fromJunction="J5" toJunction="J3" end="240" vehsPerHour="25.727552295967783" departLane="free"/>
  <flow id="JF320861" begin="180" fromJunction="J4" toJunction="J0" end="240" vehsPerHour="6.569685594136079" departLane="free"/>
  <flow id="JF320862" begin="180" fromJunction="J4" toJunction="J3" end="240" vehsPerHour="66.16314603663275" departLane="free"/>
  <flow id="JF320863" begin="180" fromJunction="J6" toJunction="J0" end="240" vehsPerHour="35.82569474162652" departLane="free"/>
  <flow id="JF320864" begin="180" fromJunction="J6" toJunction="J3" end="240" vehsPerHour="42.82672266269558" departLane="free"/>
  <flow id="JF320865" begin="180" fromJunction="J7" toJunction="J0" end="240" vehsPerHour="13.471418243791632" departLane="free"/>
  <flow id="JF320866" begin="180" fromJunction="J7" toJunction="J3" end="240" vehsPerHour="24.80041905191785" departLane="free"/>
  <flow id="JF320867" begin="240" fromJunction="J0" toJunction="J3" end="300" vehsPerHour="122.14052732764111" departLane="free"/>
  <flow id="JF320868" begin="240" fromJunction="J3" toJunction="J0" end="300" vehsPerHour="291.08817845339746" departLane="free"/>
  <flow id="JF320869" begin="240" fromJunction="J0" toJunction="J5" end="300" vehsPerHour="21.16691863714015" departLane="free"/>
  <flow id="JF320870" begin="240" fromJunction="J0" toJunction="J4" end="300" vehsPerHour="50.713066714019185" departLane="free"/>
  <flow id="JF320871" begin="240" fromJunction="J0" toJunction="J6" end="300" vehsPerHour="61.557883384212" departLane="free"/>
  <flow id="JF320872" begin="240" fromJunction="J0" toJunction="J7" end="300" vehsPerHour="16.345602486509787" departLane="free"/>
  <flow id="JF320873" begin="240" fromJunction="J3" toJunction="J5" end="300" vehsPerHour="18.060883200382637" departLane="free"/>
  <flow id="JF320874" begin="240" fromJunction="J3" toJunction="J4" end="300" vehsPerHour="17.24307199666742" departLane="free"/>
  <flow id="JF320875" begin="240" fromJunction="J3" toJunction="J6" end="300" vehsPerHour="16.6946880226854" departLane="free"/>
  <flow id="JF320876" begin="240" fromJunction="J3" toJunction="J7" end="300" vehsPerHour="36.697269054893155" departLane="free"/>
  <flow id="JF320877" begin="240" fromJunction="J5" toJunction="J4" end="300" vehsPerHour="7.072802729866835" departLane="free"/>
  <flow id="JF320878" begin="240" fromJunction="J5" toJunction="J6" end="300" vehsPerHour="31.021521798739787" departLane="free"/>
  <flow id="JF320879" begin="240" fromJunction="J5" toJunction="J7" end="300" vehsPerHour="6.929636920976582" departLane="free"/>
  <flow id="JF320880" begin="240" fromJunction="J4" toJunction="J5" end="300" vehsPerHour="23.965478604186703" departLane="free"/>
  <flow id="JF320881" begin="240" fromJunction="J4" toJunction="J6" end="300" vehsPerHour="6.3410099867412" departLane="free"/>
  <flow id="JF320882" begin="240" fromJunction="J4" toJunction="J7" end="300" vehsPerHour="33.48889718151788" departLane="free"/>
  <flow id="JF320883" begin="240" fromJunction="J6" toJunction="J5" end="300" vehsPerHour="21.94138250798511" departLane="free"/>
  <flow id="JF320884" begin="240" fromJunction="J6" toJunction="J4" end="300" vehsPerHour="17.049207940684262" departLane="free"/>
  <flow id="JF320885" begin="240" fromJunction="J6" toJunction="J7" end="300" vehsPerHour="13.725474603491648" departLane="free"/>
  <flow id="JF320886" begin="240" fromJunction="J7" toJunction="J5" end="300" vehsPerHour="24.902584346294717" departLane="free"/>
  <flow id="JF320887" begin="240" fromJunction="J7" toJunction="J4" end="300" vehsPerHour="49.27238446594951" departLane="free"/>
  <flow id="JF320888" begin="240" fromJunction="J7" toJunction="J6" end="300" vehsPerHour="15.331287996260816" departLane="free"/>
  <flow id="JF320889" begin="240" fromJunction="J5" toJunction="J0" end="300" vehsPerHour="19.95560062058223" departLane="free"/>
  <flow id="JF320890" begin="240" fromJunction="J5" toJunction="J3" end="300" vehsPerHour="20.45410172944059" departLane="free"/>
  <flow id="JF320891" begin="240" fromJunction="J4" toJunction="J0" end="300" vehsPerHour="49.67925697911059" departLane="free"/>
  <flow id="JF320892" begin="240" fromJunction="J4" toJunction="J3" end="300" vehsPerHour="15.27428959226388" departLane="free"/>
  <flow id="JF320893" begin="240" fromJunction="J6" toJunction="J0" end="300" vehsPerHour="35.927203534627814" departLane="free"/>
  <flow id="JF320894" begin="240" fromJunction="J6" toJunction="J3" end="300" vehsPerHour="66.53365050753824" departLane="free"/>
  <flow id="JF320895" begin="240" fromJunction="J7" toJunction="J0" end="300" vehsPerHour="35.80618463553245" departLane="free"/>
  <flow id="JF320896" begin="240" fromJunction="J7" toJunction="J3" end="300" vehsPerHour="15.923673450303594" departLane="free"/>
  <flow id="JF320897" begin="300" fromJunction="J0" toJunction="J3" end="360" vehsPerHour="167.3481072230466" departLane="free"/>
  <flow id="JF320898" begin="300" fromJunction="J3" toJunction="J0" end="360" vehsPerHour="424.95271060483685" departLane="free"/>
  <flow id="JF320899" begin="300" fromJunction="J0" toJunction="J5" end="360" vehsPerHour="58.11760295113628" departLane="free"/>
  <flow id="JF320900" begin="300" fromJunction="J0" toJunction="J4" end="360" vehsPerHour="14.209431345841944" departLane="free"/>
  <flow id="JF320901" begin="300" fromJunction="J0" toJunction="J6" end="360" vehsPerHour="54.1698554133881" departLane="free"/>
  <flow id="JF320902" begin="300" fromJunction="J0" toJunction="J7" end="360" vehsPerHour="33.47827749212821" departLane="free"/>
  <flow id="JF320903" begin="300" fromJunction="J3" toJunction="J5" end="360" vehsPerHour="53.18997249033157" departLane="free"/>
  <flow id="JF320904" begin="300" fromJunction="J3" toJunction="J4" end="360" vehsPerHour="18.92513041486697" departLane="free"/>
  <flow id="JF320905" begin="300" fromJunction="J3" toJunction="J6" end="360" vehsPerHour="10.801771883346559" departLane="free"/>
  <flow id="JF320906" begin="300" fromJunction="J3" toJunction="J7" end="360" vehsPerHour="47.24302454420885" departLane="free"/>
  <flow id="JF320907" begin="300" fromJunction="J5" toJunction="J4" end="360" vehsPerHour="64.6705221192173" departLane="free"/>
  <flow id="JF320908" begin="300" fromJunction="J5" toJunction="J6" end="360" vehsPerHour="3.921289017999186" departLane="free"/>
  <flow id="JF320909" begin="300" fromJunction="J5" toJunction="J7" end="360" vehsPerHour="7.4146638034537276" departLane="free"/>
  <flow id="JF320910" begin="300" fromJunction="J4" toJunction="J5" end="360" vehsPerHour="12.192030167331005" departLane="free"/>
  <flow id="JF320911" begin="300" fromJunction="J4" toJunction="J6" end="360" vehsPerHour="6.943122624055256" departLane="free"/>
  <flow id="JF320912" begin="300" fromJunction="J4" toJunction="J7" end="360" vehsPerHour="11.540889588148426" departLane="free"/>
  <flow id="JF320913" begin="300" fromJunction="J6" toJunction="J5" end="360" vehsPerHour="3.267931278451969" departLane="free"/>
  <flow id="JF320914" begin="300" fromJunction="J6" toJunction="J4" end="360" vehsPerHour="55.033883750278996" departLane="free"/>
  <flow id="JF320915" begin="300" fromJunction="J6" toJunction="J7" end="360" vehsPerHour="6.799068105780895" departLane="free"/>
  <flow id="JF320916" begin="300" fromJunction="J7" toJunction="J5" end="360" vehsPerHour="24.02882547313764" departLane="free"/>
  <flow id="JF320917" begin="300" fromJunction="J7" toJunction="J4" end="360" vehsPerHour="29.76527227395034" departLane="free"/>
  <flow id="JF320918" begin="300" fromJunction="J7" toJunction="J6" end="360" vehsPerHour="13.630434606662758" departLane="free"/>
  <flow id="JF320919" begin="300" fromJunction="J5" toJunction="J0" end="360" vehsPerHour="26.341706749179266" departLane="free"/>
  <flow id="JF320920" begin="300" fromJunction="J5" toJunction="J3" end="360" vehsPerHour="14.914480856130135" departLane="free"/>
  <flow id="JF320921" begin="300" fromJunction="J4" toJunction="J0" end="360" vehsPerHour="62.07423465126833" departLane="free"/>
  <flow id="JF320922" begin="300" fromJunction="J4" toJunction="J3" end="360" vehsPerHour="45.34251051362999" departLane="free"/>
  <flow id="JF320923" begin="300" fromJunction="J6" toJunction="J0" end="360" vehsPerHour="58.009598659411154" departLane="free"/>
  <flow id="JF320924" begin="300" fromJunction="J6" toJunction="J3" end="360" vehsPerHour="65.9122879087815" departLane="free"/>
  <flow id="JF320925" begin="300" fromJunction="J7" toJunction="J0" end="360" vehsPerHour="4.29773754396723" departLane="free"/>
  <flow id="JF320926" begin="300" fromJunction="J7" toJunction="J3" end="360" vehsPerHour="49.09080918513064" departLane="free"/>
  <flow id="JF320927" begin="360" fromJunction="J0" toJunction="J3" end="420" vehsPerHour="207.64154587916008" departLane="free"/>
  <flow id="JF320928" begin="360" fromJunction="J3" toJunction="J0" end="420" vehsPerHour="382.21544853493947" departLane="free"/>
  <flow id="JF320929" begin="360" fromJunction="J0" toJunction="J5" end="420" vehsPerHour="13.018686909564824" departLane="free"/>
  <flow id="JF320930" begin="360" fromJunction="J0" toJunction="J4" end="420" vehsPerHour="45.982118095890705" departLane="free"/>
  <flow id="JF320931" begin="360" fromJunction="J0" toJunction="J6" end="420" vehsPerHour="59.33802183372116" departLane="free"/>
  <flow id="JF320932" begin="360" fromJunction="J0" toJunction="J7" end="420" vehsPerHour="65.02856931217984" departLane="free"/>
  <flow id="JF320933" begin="360" fromJunction="J3" toJunction="J5" end="420" vehsPerHour="46.67932664367982" departLane="free"/>
  <flow id="JF320934" begin="360" fromJunction="J3" toJunction="J4" end="420" vehsPerHour="55.340776822530394" departLane="free"/>
  <flow id="JF320935" begin="360" fromJunction="J3" toJunction="J6" end="420" vehsPerHour="22.203074572188445" departLane="free"/>
  <flow id="JF320936" begin="360" fromJunction="J3" toJunction="J7" end="420" vehsPerHour="67.6680234463931" departLane="free"/>
  <flow id="JF320937" begin="360" fromJunction="J5" toJunction="J4" end="420" vehsPerHour="25.08570994038104" departLane="free"/>
  <flow id="JF320938" begin="360" fromJunction="J5" toJunction="J6" end="420" vehsPerHour="12.576132883507535" departLane="free"/>
  <flow id="JF320939" begin="360" fromJunction="J5" toJunction="J7" end="420" vehsPerHour="25.21255821362548" departLane="free"/>
  <flow id="JF320940" begin="360" fromJunction="J4" toJunction="J5" end="420" vehsPerHour="3.0985945888412685" departLane="free"/>
  <flow id="JF320941" begin="360" fromJunction="J4" toJunction="J6" end="420" vehsPerHour="8.11164740196353" departLane="free"/>
  <flow id="JF320942" begin="360" fromJunction="J4" toJunction="J7" end="420" vehsPerHour="2.7089065260809178" departLane="free"/>
  <flow id="JF320943" begin="360" fromJunction="J6" toJunction="J5" end="420" vehsPerHour="64.1277454867559" departLane="free"/>
  <flow id="JF320944" begin="360" fromJunction="J6" toJunction="J4" end="420" vehsPerHour="55.573420117173995" departLane="free"/>
  <flow id="JF320945" begin="360" fromJunction="J6" toJunction="J7" end="420" vehsPerHour="10.977302290455489" departLane="free"/>
  <flow id="JF320946" begin="360" fromJunction="J7" toJunction="J5" end="420" vehsPerHour="16.78659746733283" departLane="free"/>
  <flow id="JF320947" begin="360" fromJunction="J7" toJunction="J4" end="420" vehsPerHour="51.57884457731131" departLane="free"/>
  <flow id="JF320948" begin="360" fromJunction="J7" toJunction="J6" end="420" vehsPerHour="7.520662936412527" departLane="free"/>
  <flow id="JF320949" begin="360" fromJunction="J5" toJunction="J0" end="420" vehsPerHour="64.14272472662306" departLane="free"/>
  <flow id="JF320950" begin="360" fromJunction="J5" toJunction="J3" end="420" vehsPerHour="7.739412985500589" departLane="free"/>
  <flow id="JF320951" begin="360" fromJunction="J4" toJunction="J0" end="420" vehsPerHour="53.11830122195339" departLane="free"/>
  <flow id="JF320952" begin="360" fromJunction="J4" toJunction="J3" end="420" vehsPerHour="55.37568691439833" departLane="free"/>
  <flow id="JF320953" begin="360" fromJunction="J6" toJunction="J0" end="420" vehsPerHour="17.293827520006644" departLane="free"/>
  <flow id="JF320954" begin="360" fromJunction="J6" toJunction="J3" end="420" vehsPerHour="23.17431842057816" departLane="free"/>
  <flow id="JF320955" begin="360" fromJunction="J7" toJunction="J0" end="420" vehsPerHour="64.88322461154063" departLane="free"/>
  <flow id="JF320956" begin="360" fromJunction="J7" toJunction="J3" end="420" vehsPerHour="26.57747691027301" departLane="free"/>
  <flow id="JF320957" begin="420" fromJunction="J0" toJunction="J3" end="480" vehsPerHour="273.81433037555684" departLane="free"/>
  <flow id="JF320958" begin="420" fromJunction="J3" toJunction="J0" end="480" vehsPerHour="543.1411935843153" departLane="free"/>
  <flow id="JF320959" begin="420" fromJunction="J0" toJunction="J5" end="480" vehsPerHour="33.02434641388706" departLane="free"/>
  <flow id="JF320960" begin="420" fromJunction="J0" toJunction="J4" end="480" vehsPerHour="64.95411886003338" departLane="free"/>
  <flow id="JF320961" begin="420" fromJunction="J0" toJunction="J6" end="480" vehsPerHour="33.78333378683553" departLane="free"/>
  <flow id="JF320962" begin="420" fromJunction="J0" toJunction="J7" end="480" vehsPerHour="27.90616626594176" departLane="free"/>
  <flow id="JF320963" begin="420" fromJunction="J3" toJunction="J5" end="480" vehsPerHour="49.44599197044681" departLane="free"/>
  <flow id="JF320964" begin="420" fromJunction="J3" toJunction="J4" end="480" vehsPerHour="16.12719946363942" departLane="free"/>
  <flow id="JF320965" begin="420" fromJunction="J3" toJunction="J6" end="480" vehsPerHour="28.410810460600903" departLane="free"/>
  <flow id="JF320966" begin="420" fromJunction="J3" toJunction="J7" end="480" vehsPerHour="35.34235153116504" departLane="free"/>
  <flow id="JF320967" begin="420" fromJunction="J5" toJunction="J4" end="480" vehsPerHour="49.73208970424976" departLane="free"/>
  <flow id="JF320968" begin="420" fromJunction="J5" toJunction="J6" end="480" vehsPerHour="21.80344670162419" departLane="free"/>
  <flow id="JF320969" begin="420" fromJunction="J5" toJunction="J7" end="480" vehsPerHour="3.6853384965575815" departLane="free"/>
  <flow id="JF320970" begin="420" fromJunction="J4" toJunction="J5" end="480" vehsPerHour="6.626835276869415" departLane="free"/>
  <flow id="JF320971" begin="420" fromJunction="J4" toJunction="J6" end="480" vehsPerHour="33.33793418527421" departLane="free"/>
  <flow id="JF320972" begin="420" fromJunction="J4" toJunction="J7" end="480" vehsPerHour="16.74833273044202" departLane="free"/>
  <flow id="JF320973" begin="420" fromJunction="J6" toJunction="J5" end="480" vehsPerHour="0.4832161659995855" departLane="free"/>
  <flow id="JF320974" begin="420" fromJunction="J6" toJunction="J4" end="480" vehsPerHour="47.43677351120562" departLane="free"/>
  <flow id="JF320975" begin="420" fromJunction="J6" toJunction="J7" end="480" vehsPerHour="16.10137728281137" departLane="free"/>
  <flow id="JF320976" begin="420" fromJunction="J7" toJunction="J5" end="480" vehsPerHour="59.95554310330617" departLane="free"/>
  <flow id="JF320977" begin="420" fromJunction="J7" toJunction="J4" end="480" vehsPerHour="14.401415134781612" departLane="free"/>
  <flow id="JF320978" begin="420" fromJunction="J7" toJunction="J6" end="480" vehsPerHour="67.70785718323782" departLane="free"/>
  <flow id="JF320979" begin="420" fromJunction="J5" toJunction="J0" end="480" vehsPerHour="26.096359279458838" departLane="free"/>
  <flow id="JF320980" begin="420" fromJunction="J5" toJunction="J3" end="480" vehsPerHour="17.848112142452038" departLane="free"/>
  <flow id="JF320981" begin="420" fromJunction="J4" toJunction="J0" end="480" vehsPerHour="68.08622575399909" departLane="free"/>
  <flow id="JF320982" begin="420" fromJunction="J4" toJunction="J3" end="480" vehsPerHour="12.669783903132457" departLane="free"/>
  <flow id="JF320983" begin="420" fromJunction="J6" toJunction="J0" end="480" vehsPerHour="13.57374566535621" departLane="free"/>
  <flow id="JF320984" begin="420" fromJunction="J6" toJunction="J3" end="480" vehsPerHour="25.730705607724605" departLane="free"/>
  <flow id="JF320985" begin="420" fromJunction="J7" toJunction="J0" end="480" vehsPerHour="38.463185639357" departLane="free"/>
  <flow id="JF320986" begin="420" fromJunction="J7" toJunction="J3" end="480" vehsPerHour="20.435298571824625" departLane="free"/>
  <flow id="JF320987" begin="480" fromJunction="J0" toJunction="J3" end="540" vehsPerHour="123.0331181996364" departLane="free"/>
  <flow id="JF320988" begin="480" fromJunction="J3" toJunction="J0" end="540" vehsPerHour="282.66101849821854" departLane="free"/>
  <flow id="JF320989" begin="480" fromJunction="J0" toJunction="J5" end="540" vehsPerHour="32.522370528910464" departLane="free"/>
  <flow id="JF320990" begin="480" fromJunction="J0" toJunction="J4" end="540" vehsPerHour="51.63812398340883" departLane="free"/>
  <flow id="JF320991" begin="480" fromJunction="J0" toJunction="J6" end="540" vehsPerHour="52.61281692991016" departLane="free"/>
  <flow id="JF320992" begin="480" fromJunction="J0" toJunction="J7" end="540" vehsPerHour="27.152527550111262" departLane="free"/>
  <flow id="JF320993" begin="480" fromJunction="J3" toJunction="J5" end="540" vehsPerHour="4.711321929847209" departLane="free"/>
  <flow id="JF320994" begin="480" fromJunction="J3" toJunction="J4" end="540" vehsPerHour="37.55555031877266" departLane="free"/>
  <flow id="JF320995" begin="480" fromJunction="J3" toJunction="J6" end="540" vehsPerHour="63.97585262292951" departLane="free"/>