<?xml version="1.0" encoding="UTF-8"?>
<routes xmlns:xsi="http://www.w3.org/2001/XMLSchema-instance" xsi:noNamespaceSchemaLocation="http://sumo.dlr.de/xsd/routes_file.xsd">
  <flow id="JF312927" begin="0" fromJunction="J0" toJunction="J3" end="60" vehsPerHour="187.9456913579551" departLane="free"/>
  <flow id="JF312928" begin="0" fromJunction="J3" toJunction="J0" end="60" vehsPerHour="196.99042522627565" departLane="free"/>
  <flow id="JF312929" begin="0" fromJunction="J0" toJunction="J5" end="60" vehsPerHour="50.37490601087843" departLane="free"/>
  <flow id="JF312930" begin="0" fromJunction="J0" toJunction="J4" end="60" vehsPerHour="7.583744362499802" departLane="free"/>
  <flow id="JF312931" begin="0" fromJunction="J0" toJunction="J6" end="60" vehsPerHour="0.6075396792557078" departLane="free"/>
  <flow id="JF312932" begin="0" fromJunction="J0" toJunction="J7" end="60" vehsPerHour="6.7963112092172215" departLane="free"/>
  <flow id="JF312933" begin="0" fromJunction="J3" toJunction="J5" end="60" vehsPerHour="7.3539406842301025" departLane="free"/>
  <flow id="JF312934" begin="0" fromJunction="J3" toJunction="J4" end="60" vehsPerHour="44.523058579821765" departLane="free"/>
  <flow id="JF312935" begin="0" fromJunction="J3" toJunction="J6" end="60" vehsPerHour="43.69278981837707" departLane="free"/>
  <flow id="JF312936" begin="0" fromJunction="J3" toJunction="J7" end="60" vehsPerHour="46.07351254627979" departLane="free"/>
  <flow id="JF312937" begin="0" fromJunction="J5" toJunction="J4" end="60" vehsPerHour="21.11811014573842" departLane="free"/>
  <flow id="JF312938" begin="0" fromJunction="J5" toJunction="J6" end="60" vehsPerHour="12.56942432030014" departLane="free"/>
  <flow id="JF312939" begin="0" fromJunction="J5" toJunction="J7" end="60" vehsPerHour="31.68090194267676" departLane="free"/>
  <flow id="JF312940" begin="0" fromJunction="J4" toJunction="J5" end="60" vehsPerHour="26.14700902236227" departLane="free"/>
  <flow id="JF312941" begin="0" fromJunction="J4" toJunction="J6" end="60" vehsPerHour="9.889976019945628" departLane="free"/>
  <flow id="JF312942" begin="0" fromJunction="J4" toJunction="J7" end="60" vehsPerHour="19.43176700201264" departLane="free"/>
  <flow id="JF312943" begin="0" fromJunction="J6" toJunction="J5" end="60" vehsPerHour="68.05641705694009" departLane="free"/>
  <flow id="JF312944" begin="0" fromJunction="J6" toJunction="J4" end="60" vehsPerHour="16.563658704277877" departLane="free"/>
  <flow id="JF312945" begin="0" fromJunction="J6" toJunction="J7" end="60" vehsPerHour="20.02524502543183" departLane="free"/>
  <flow id="JF312946" begin="0" fromJunction="J7" toJunction="J5" end="60" vehsPerHour="60.20272747247044" departLane="free"/>
  <flow id="JF312947" begin="0" fromJunction="J7" toJunction="J4" end="60" vehsPerHour="17.96342799643648" departLane="free"/>
  <flow id="JF312948" begin="0" fromJunction="J7" toJunction="J6" end="60" vehsPerHour="18.255839291648094" departLane="free"/>
  <flow id="JF312949" begin="0" fromJunction="J5" toJunction="J0" end="60" vehsPerHour="57.93311886429882" departLane="free"/>
  <flow id="JF312950" begin="0" fromJunction="J5" toJunction="J3" end="60" vehsPerHour="2.2414311963945615" departLane="free"/>
  <flow id="JF312951" begin="0" fromJunction="J4" toJunction="J0" end="60" vehsPerHour="47.127634986793886" departLane="free"/>
  <flow id="JF312952" begin="0" fromJunction="J4" toJunction="J3" end="60" vehsPerHour="20.276149241562685" departLane="free"/>
  <flow id="JF312953" begin="0" fromJunction="J6" toJunction="J0" end="60" vehsPerHour="15.894873455072023" departLane="free"/>
  <flow id="JF312954" begin="0" fromJunction="J6" toJunction="J3" end="60" vehsPerHour="16.937278922573682" departLane="free"/>
  <flow id="JF312955" begin="0" fromJunction="J7" toJunction="J0" end="60" vehsPerHour="21.853576868258454" departLane="free"/>
  <flow id="JF312956" begin="0" fromJunction="J7" toJunction="J3" end="60" vehsPerHour="42.867548961690424" departLane="free"/>
  <flow id="JF312957" begin="60" fromJunction="J0" toJunction="J3" end="120" vehsPerHour="136.47786544759126" departLane="free"/>
  <flow id="JF312958" begin="60" fromJunction="J3" toJunction="J0" end="120" vehsPerHour="248.51554576301075" departLane="free"/>
  <flow id="JF312959" begin="60" fromJunction="J0" toJunction="J5" end="120" vehsPerHour="34.48346149308598" departLane="free"/>
  <flow id="JF312960" begin="60" fromJunction="J0" toJunction="J4" end="120" vehsPerHour="49.42239559813164" departLane="free"/>
  <flow id="JF312961" begin="60" fromJunction="J0" toJunction="J6" end="120" vehsPerHour="54.793287966920445" departLane="free"/>
  <flow id="JF312962" begin="60" fromJunction="J0" toJunction="J7" end="120" vehsPerHour="38.950956049240254" departLane="free"/>
  <flow id="JF312963" begin="60" fromJunction="J3" toJunction="J5" end="120" vehsPerHour="55.06087207422028" departLane="free"/>
  <flow id="JF312964" begin="60" fromJunction="J3" toJunction="J4" end="120" vehsPerHour="44.19829132754404" departLane="free"/>
  <flow id="JF312965" begin="60" fromJunction="J3" toJunction="J6" end="120" vehsPerHour="56.547189374741436" departLane="free"/>
  <flow id="JF312966" begin="60" fromJunction="J3" toJunction="J7" end="120" vehsPerHour="65.15108030690809" departLane="free"/>
  <flow id="JF312967" begin="60" fromJunction="J5" toJunction="J4" end="120" vehsPerHour="67.8407868996532" departLane="free"/>
  <flow id="JF312968" begin="60" fromJunction="J5" toJunction="J6" end="120" vehsPerHour="27.074087142173905" departLane="free"/>
  <flow id="JF312969" begin="60" fromJunction="J5" toJunction="J7" end="120" vehsPerHour="4.15594493458815" departLane="free"/>
  <flow id="JF312970" begin="60" fromJunction="J4" toJunction="J5" end="120" vehsPerHour="23.822603108654754" departLane="free"/>
  <flow id="JF312971" begin="60" fromJunction="J4" toJunction="J6" end="120" vehsPerHour="25.49769667257567" departLane="free"/>
  <flow id="JF312972" begin="60" fromJunction="J4" toJunction="J7" end="120" vehsPerHour="31.843328211447847" departLane="free"/>
  <flow id="JF312973" begin="60" fromJunction="J6" toJunction="J5" end="120" vehsPerHour="23.0553737671043" departLane="free"/>
  <flow id="JF312974" begin="60" fromJunction="J6" toJunction="J4" end="120" vehsPerHour="65.1954146426605" departLane="free"/>
  <flow id="JF312975" begin="60" fromJunction="J6" toJunction="J7" end="120" vehsPerHour="6.795922175110978" departLane="free"/>
  <flow id="JF312976" begin="60" fromJunction="J7" toJunction="J5" end="120" vehsPerHour="9.638771099645977" departLane="free"/>
  <flow id="JF312977" begin="60" fromJunction="J7" toJunction="J4" end="120" vehsPerHour="57.20054396098785" departLane="free"/>
  <flow id="JF312978" begin="60" fromJunction="J7" toJunction="J6" end="120" vehsPerHour="50.576499973005525" departLane="free"/>
  <flow id="JF312979" begin="60" fromJunction="J5" toJunction="J0" end="120" vehsPerHour="19.26930573998534" departLane="free"/>
  <flow id="JF312980" begin="60" fromJunction="J5" toJunction="J3" end="120" vehsPerHour="38.546919728919846" departLane="free"/>
  <flow id="JF312981" begin="60" fromJunction="J4" toJunction="J0" end="120" vehsPerHour="44.41035895758467" departLane="free"/>
  <flow id="JF312982" begin="60" fromJunction="J4" toJunction="J3" end="120" vehsPerHour="7.534479752962884" departLane="free"/>
  <flow id="JF312983" begin="60" fromJunction="J6" toJunction="J0" end="120" vehsPerHour="6.936781174694988" departLane="free"/>
  <flow id="JF312984" begin="60" fromJunction="J6" toJunction="J3" end="120" vehsPerHour="17.060900533334834" departLane="free"/>
  <flow id="JF312985" begin="60" fromJunction="J7" toJunction="J0" end="120" vehsPerHour="46.37610301410746" departLane="free"/>
  <flow id="JF312986" begin="60" fromJunction="J7" toJunction="J3" end="120" vehsPerHour="33.992660919538494" departLane="free"/>
  <flow id="JF312987" begin="120" fromJunction="J0" toJunction="J3" end="180" vehsPerHour="171.57372685521227" departLane="free"/>
  <flow id="JF312988" begin="120" fromJunction="J3" toJunction="J0" end="180" vehsPerHour="149.76784493495464" departLane="free"/>
  <flow id="JF312989" begin="120" fromJunction="J0" toJunction="J5" end="180" vehsPerHour="54.55065132862165" departLane="free"/>
  <flow id="JF312990" begin="120" fromJunction="J0" toJunction="J4" end="180" vehsPerHour="33.06518952421935" departLane="free"/>
  <flow id="JF312991" begin="120" fromJunction="J0" toJunction="J6" end="180" vehsPerHour="39.19190948503341" departLane="free"/>
  <flow id="JF312992" begin="120" fromJunction="J0" toJunction="J7" end="180" vehsPerHour="59.877284926422355" departLane="free"/>
  <flow id="JF312993" begin="120" fromJunction="J3" toJunction="J5" end="180" vehsPerHour="42.838429442100946" departLane="free"/>
  <flow id="JF312994" begin="120" fromJunction="J3" toJunction="J4" end="180" vehsPerHour="21.308191900382447" departLane="free"/>
  <flow id="JF312995" begin="120" fromJunction="J3" toJunction="J6" end="180" vehsPerHour="65.16673732211774" departLane="free"/>
  <flow id="JF312996" begin="120" fromJunction="J3" toJunction="J7" end="180" vehsPerHour="63.18941515083173" departLane="free"/>
  <flow id="JF312997" begin="120" fromJunction="J5" toJunction="J4" end="180" vehsPerHour="14.905160556618517" departLane="free"/>
  <flow id="JF312998" begin="120" fromJunction="J5" toJunction="J6" end="180" vehsPerHour="20.484835151967715" departLane="free"/>
  <flow id="JF312999" begin="120" fromJunction="J5" toJunction="J7" end="180" vehsPerHour="33.3272156210023" departLane="free"/>
  <flow id="JF313000" begin="120" fromJunction="J4" toJunction="J5" end="180" vehsPerHour="3.61514694549316" departLane="free"/>
  <flow id="JF313001" begin="120" fromJunction="J4" toJunction="J6" end="180" vehsPerHour="2.9589507639002237" departLane="free"/>
  <flow id="JF313002" begin="120" fromJunction="J4" toJunction="J7" end="180" vehsPerHour="0.8619222378633388" departLane="free"/>
  <flow id="JF313003" begin="120" fromJunction="J6" toJunction="J5" end="180" vehsPerHour="12.32246724563838" departLane="free"/>
  <flow id="JF313004" begin="120" fromJunction="J6" toJunction="J4" end="180" vehsPerHour="13.015047518744513" departLane="free"/>
  <flow id="JF313005" begin="120" fromJunction="J6" toJunction="J7" end="180" vehsPerHour="29.2278675735192" departLane="free"/>
  <flow id="JF313006" begin="120" fromJunction="J7" toJunction="J5" end="180" vehsPerHour="22.44270264759303" departLane="free"/>
  <flow id="JF313007" begin="120" fromJunction="J7" toJunction="J4" end="180" vehsPerHour="35.3577843035046" departLane="free"/>
  <flow id="JF313008" begin="120" fromJunction="J7" toJunction="J6" end="180" vehsPerHour="24.955766575554822" departLane="free"/>
  <flow id="JF313009" begin="120" fromJunction="J5" toJunction="J0" end="180" vehsPerHour="25.823699461504326" departLane="free"/>
  <flow id="JF313010" begin="120" fromJunction="J5" toJunction="J3" end="180" vehsPerHour="35.33486952191355" departLane="free"/>
  <flow id="JF313011" begin="120" fromJunction="J4" toJunction="J0" end="180" vehsPerHour="1.5571414537448396" departLane="free"/>
  <flow id="JF313012" begin="120" fromJunction="J4" toJunction="J3" end="180" vehsPerHour="44.8323003113438" departLane="free"/>
  <flow id="JF313013" begin="120" fromJunction="J6" toJunction="J0" end="180" vehsPerHour="31.041494371327513" departLane="free"/>
  <flow id="JF313014" begin="120" fromJunction="J6" toJunction="J3" end="180" vehsPerHour="27.932737037624253" departLane="free"/>
  <flow id="JF313015" begin="120" fromJunction="J7" toJunction="J0" end="180" vehsPerHour="56.95734616048913" departLane="free"/>
  <flow id="JF313016" begin="120" fromJunction="J7" toJunction="J3" end="180" vehsPerHour="0.032386474574778744" departLane="free"/>
  <flow id="JF313017" begin="180" fromJunction="J0" toJunction="J3" end="240" vehsPerHour="3.298957272983951" departLane="free"/>
  <flow id="JF313018" begin="180" fromJunction="J3" toJunction="J0" end="240" vehsPerHour="289.8663545453248" departLane="free"/>
  <flow id="JF313019" begin="180" fromJunction="J0" toJunction="J5" end="240" vehsPerHour="50.39994877047529" departLane="free"/>
  <flow id="JF313020" begin="180" fromJunction="J0" toJunction="J4" end="240" vehsPerHour="43.853196372684586" departLane="free"/>
  <flow id="JF313021" begin="180" fromJunction="J0" toJunction="J6" end="240" vehsPerHour="30.147791215047597" departLane="free"/>
  <flow id="JF313022" begin="180" fromJunction="J0" toJunction="J7" end="240" vehsPerHour="39.72526725387973" departLane="free"/>
  <flow id="JF313023" begin="180" fromJunction="J3" toJunction="J5" end="240" vehsPerHour="57.221838551281195" departLane="free"/>
  <flow id="JF313024" begin="180" fromJunction="J3" toJunction="J4" end="240" vehsPerHour="39.28141056417161" departLane="free"/>
  <flow id="JF313025" begin="180" fromJunction="J3" toJunction="J6" end="240" vehsPerHour="62.89275897910474" departLane="free"/>
  <flow id="JF313026" begin="180" fromJunction="J3" toJunction="J7" end="240" vehsPerHour="52.04775161308433" departLane="free"/>
  <flow id="JF313027" begin="180" fromJunction="J5" toJunction="J4" end="240" vehsPerHour="4.737185182191521" departLane="free"/>
  <flow id="JF313028" begin="180" fromJunction="J5" toJunction="J6" end="240" vehsPerHour="27.172128608448183" departLane="free"/>
  <flow id="JF313029" begin="180" fromJunction="J5" toJunction="J7" end="240" vehsPerHour="10.79513104106479" departLane="free"/>
  <flow id="JF313030" begin="180" fromJunction="J4" toJunction="J5" end="240" vehsPerHour="1.8136512121116115" departLane="free"/>
  <flow id="JF313031" begin="180" fromJunction="J4" toJunction="J6" end="240" vehsPerHour="23.355438525431822" departLane="free"/>
  <flow id="JF313032" begin="180" fromJunction="J4" toJunction="J7" end="240" vehsPerHour="21.51743275125456" departLane="free"/>
  <flow id="JF313033" begin="180" fromJunction="J6" toJunction="J5" end="240" vehsPerHour="33.470729754461225" departLane="free"/>
  <flow id="JF313034" begin="180" fromJunction="J6" toJunction="J4" end="240" vehsPerHour="12.325501862523188" departLane="free"/>
  <flow id="JF313035" begin="180" fromJunction="J6" toJunction="J7" end="240" vehsPerHour="33.608554218916474" departLane="free"/>
  <flow id="JF313036" begin="180" fromJunction="J7" toJunction="J5" end="240" vehsPerHour="21.782313981152626" departLane="free"/>
  <flow id="JF313037" begin="180" fromJunction="J7" toJunction="J4" end="240" vehsPerHour="56.80490468864673" departLane="free"/>
  <flow id="JF313038" begin="180" fromJunction="J7" toJunction="J6" end="240" vehsPerHour="20.182163165839555" departLane="free"/>
  <flow id="JF313039" begin="180" fromJunction="J5" toJunction="J0" end="240" vehsPerHour="10.199882915817268" departLane="free"/>
  <flow id="JF313040" begin="180" fromJunction="J5" toJunction="J3" end="240" vehsPerHour="52.20281122370746" departLane="free"/>
  <flow id="JF313041" begin="180" fromJunction="J4" toJunction="J0" end="240" vehsPerHour="47.19006227815019" departLane="free"/>
  <flow id="JF313042" begin="180" fromJunction="J4" toJunction="J3" end="240" vehsPerHour="60.507183837958195" departLane="free"/>
  <flow id="JF313043" begin="180" fromJunction="J6" toJunction="J0" end="240" vehsPerHour="13.54114136075002" departLane="free"/>
  <flow id="JF313044" begin="180" fromJunction="J6" toJunction="J3" end="240" vehsPerHour="46.76906565573571" departLane="free"/>
  <flow id="JF313045" begin="180" fromJunction="J7" toJunction="J0" end="240" vehsPerHour="66.87114794906377" departLane="free"/>
  <flow id="JF313046" begin="180" fromJunction="J7" toJunction="J3" end="240" vehsPerHour="4.155549378182072" departLane="free"/>
  <flow id="JF313047" begin="240" fromJunction="J0" toJunction="J3" end="300" vehsPerHour="232.86162656502543" departLane="free"/>
  <flow id="JF313048" begin="240" fromJunction="J3" toJunction="J0" end="300" vehsPerHour="201.61639067051829" departLane="free"/>
  <flow id="JF313049" begin="240" fromJunction="J0" toJunction="J5" end="300" vehsPerHour="23.893318709314325" departLane="free"/>
  <flow id="JF313050" begin="240" fromJunction="J0" toJunction="J4" end="300" vehsPerHour="4.887749216320475" departLane="free"/>
  <flow id="JF313051" begin="240" fromJunction="J0" toJunction="J6" end="300" vehsPerHour="81.434772688464" departLane="free"/>
  <flow id="JF313052" begin="240" fromJunction="J0" toJunction="J7" end="300" vehsPerHour="53.48212695496443" departLane="free"/>
  <flow id="JF313053" begin="240" fromJunction="J3" toJunction="J5" end="300" vehsPerHour="124.46563520228688" departLane="free"/>
  <flow id="JF313054" begin="240" fromJunction="J3" toJunction="J4" end="300" vehsPerHour="64.06905019940253" departLane="free"/>
  <flow id="JF313055" begin="240" fromJunction="J3" toJunction="J6" end="300" vehsPerHour="79.78828939831857" departLane="free"/>
  <flow id="JF313056" begin="240" fromJunction="J3" toJunction="J7" end="300" vehsPerHour="93.20386497901276" departLane="free"/>
  <flow id="JF313057" begin="300" fromJunction="J0" toJunction="J3" end="360" vehsPerHour="173.19416408559053" departLane="free"/>
  <flow id="JF313058" begin="300" fromJunction="J3" toJunction="J0" end="360" vehsPerHour="309.7974344264738" departLane="free"/>
  <flow id="JF313059" begin="300" fromJunction="J0" toJunction="J5" end="360" vehsPerHour="116.60500349404164" departLane="free"/>
  <flow id="JF313060" begin="300" fromJunction="J0" toJunction="J4" end="360" vehsPerHour="0.9946656723303284" departLane="free"/>
  <flow id="JF313061" begin="300" fromJunction="J0" toJunction="J6" end="360" vehsPerHour="56.600310302876004" departLane="free"/>
  <flow id="JF313062" begin="300" fromJunction="J0" toJunction="J7" end="360" vehsPerHour="126.21868898051136" departLane="free"/>
  <flow id="JF313063" begin="300" fromJunction="J3" toJunction="J5" end="360" vehsPerHour="40.134982594176904" departLane="free"/>
  <flow id="JF313064" begin="300" fromJunction="J3" toJunction="J4" end="360" vehsPerHour="105.8711079977879" departLane="free"/>
  <flow id="JF313065" begin="300" fromJunction="J3" toJunction="J6" end="360" vehsPerHour="104.56559577867591" departLane="free"/>
  <flow id="JF313066" begin="300" fromJunction="J3" toJunction="J7" end="360" vehsPerHour="119.33224512515828" departLane="free"/>
  <flow id="JF313067" begin="360" fromJunction="J0" toJunction="J3" end="420" vehsPerHour="223.36702629388824" departLane="free"/>
  <flow id="JF313068" begin="360" fromJunction="J3" toJunction="J0" end="420" vehsPerHour="87.27024275313961" departLane="free"/>
  <flow id="JF313069" begin="360" fromJunction="J0" toJunction="J5" end="420" vehsPerHour="47.24241136336394" departLane="free"/>
  <flow id="JF313070" begin="360" fromJunction="J0" toJunction="J4" end="420" vehsPerHour="34.82830053229992" departLane="free"/>
  <flow id="JF313071" begin="360" fromJunction="J0" toJunction="J6" end="420" vehsPerHour="48.22355519279875" departLane="free"/>
  <flow id="JF313072" begin="360" fromJunction="J0" toJunction="J7" end="420" vehsPerHour="24.36954442883413" departLane="free"/>
  <flow id="JF313073" begin="360" fromJunction="J3" toJunction="J5" end="420" vehsPerHour="62.17665098694758" departLane="free"/>
  <flow id="JF313074" begin="360" fromJunction="J3" toJunction="J4" end="420" vehsPerHour="51.96926500774216" departLane="free"/>
  <flow id="JF313075" begin="360" fromJunction="J3" toJunction="J6" end="420" vehsPerHour="33.26409147372077" departLane="free"/>
  <flow id="JF313076" begin="360" fromJunction="J3" toJunction="J7" end="420" vehsPerHour="2.1951089469020655" departLane="free"/>
  <flow id="JF313077" begin="360" fromJunction="J5" toJunction="J4" end="420" vehsPerHour="33.4719777314183" departLane="free"/>
  <flow id="JF313078" begin="360" fromJunction="J5" toJunction="J6" end="420" vehsPerHour="31.604705454631002" departLane="free"/>
  <flow id="JF313079" begin="360" fromJunction="J5" toJunction="J7" end="420" vehsPerHour="16.91238337781761" departLane="free"/>
  <flow id="JF313080" begin="360" fromJunction="J4" toJunction="J5" end="420" vehsPerHour="4.542515063008676" departLane="free"/>
  <flow id="JF313081" begin="360" fromJunction="J4" toJunction="J6" end="420" vehsPerHour="32.859879669916594" departLane="free"/>
  <flow id="JF313082" begin="360" fromJunction="J4" toJunction="J7" end="420" vehsPerHour="23.726976965878514" departLane="free"/>
  <flow id="JF313083" begin="360" fromJunction="J6" toJunction="J5" end="420" vehsPerHour="50.13075976836545" departLane="free"/>
  <flow id="JF313084" begin="360" fromJunction="J6" toJunction="J4" end="420" vehsPerHour="63.93990731655449" departLane="free"/>
  <flow id="JF313085" begin="360" fromJunction="J6" toJunction="J7" end="420" vehsPerHour="24.45016613549328" departLane="free"/>
  <flow id="JF313086" begin="360" fromJunction="J7" toJunction="J5" end="420" vehsPerHour="43.3500170262243" departLane="free"/>
  <flow id="JF313087" begin="360" fromJunction="J7" toJunction="J4" end="420" vehsPerHour="32.977638639786896" departLane="free"/>
  <flow id="JF313088" begin="360" fromJunction="J7" toJunction="J6" end="420" vehsPerHour="57.799891093662104" departLane="free"/>
  <flow id="JF313089" begin="360" fromJunction="J5" toJunction="J0" end="420" vehsPerHour="28.643852142240856" departLane="free"/>
  <flow id="JF313090" begin="360" fromJunction="J5" toJunction="J3" end="420" vehsPerHour="20.014707728354857" departLane="free"/>
  <flow id="JF313091" begin="360" fromJunction="J4" toJunction="J0" end="420" vehsPerHour="18.795957074650154" departLane="free"/>
  <flow id="JF313092" begin="360" fromJunction="J4" toJunction="J3" end="420" vehsPerHour="44.86758159419695" departLane="free"/>
  <flow id="JF313093" begin="360" fromJunction="J6" toJunction="J0" end="420" vehsPerHour="54.9671333229312" departLane="free"/>
  <flow id="JF313094" begin="360" fromJunction="J6" toJunction="J3" end="420" vehsPerHour="30.784639941584203" departLane="free"/>
  <flow id="JF313095" begin="360" fromJunction="J7" toJunction="J0" end="420" vehsPerHour="28.08302812262394" departLane="free"/>
  <flow id="JF313096" begin="360" fromJunction="J7" toJunction="J3" end="420" vehsPerHour="62.165518359209386" departLane="free"/>
  <flow id="JF313097" begin="420" fromJunction="J0" toJunction="J3" end="480" vehsPerHour="42.509709690914704" departLane="free"/>
  <flow id="JF313098" begin="420" fromJunction="J3" toJunction="J0" end="480" vehsPerHour="264.8461825937527" departLane="free"/>
  <flow id="JF313099" begin="420" fromJunction="J0" toJunction="J5" end="480" vehsPerHour="37.93198861529901" departLane="free"/>
  <flow id="JF313100" begin="420" fromJunction="J0" toJunction="J4" end="480" vehsPerHour="42.85946937002695" departLane="free"/>
  <flow id="JF313101" begin="420" fromJunction="J0" toJunction="J6" end="480" vehsPerHour="3.172150885796697" departLane="free"/>
  <flow id="JF313102" begin="420" fromJunction="J0" toJunction="J7" end="480" vehsPerHour="42.160832252091744" departLane="free"/>
  <flow id="JF313103" begin="420" fromJunction="J3" toJunction="J5" end="480" vehsPerHour="3.0895093732788523" departLane="free"/>
  <flow id="JF313104" begin="420" fromJunction="J3" toJunction="J4" end="480" vehsPerHour="26.038454932497253" departLane="free"/>
  <flow id="JF313105" begin="420" fromJunction="J3" toJunction="J6" end="480" vehsPerHour="0.6749727669391459" departLane="free"/>
  <flow id="JF313106" begin="420" fromJunction="J3" toJunction="J7" end="480" vehsPerHour="67.36139466422078" departLane="free"/>
  <flow id="JF313107" begin="420" fromJunction="J5" toJunction="J4" end="480" vehsPerHour="49.9994390708709" departLane="free"/>
  <flow id="JF313108" begin="420" fromJunction="J5" toJunction="J6" end="480" vehsPerHour="2.3072937916066936" departLane="free"/>
  <flow id="JF313109" begin="420" fromJunction="J5" toJunction="J7" end="480" vehsPerHour="12.514923722485046" departLane="free"/>
  <flow id="JF313110" begin="420" fromJunction="J4" toJunction="J5" end="480" vehsPerHour="6.9914278510053185" departLane="free"/>
  <flow id="JF313111" begin="420" fromJunction="J4" toJunction="J6" end="480" vehsPerHour="32.64040307919746" departLane="free"/>
  <flow id="JF313112" begin="420" fromJunction="J4" toJunction="J7" end="480" vehsPerHour="12.153504739492005" departLane="free"/>
  <flow id="JF313113" begin="420" fromJunction="J6" toJunction="J5" end="480" vehsPerHour="11.859016745734229" departLane="free"/>
  <flow id="JF313114" begin="420" fromJunction="J6" toJunction="J4" end="480" vehsPerHour="24.408854849014684" departLane="free"/>
  <flow id="JF313115" begin="420" fromJunction="J6" toJunction="J7" end="480" vehsPerHour="21.873748765993206" departLane="free"/>
  <flow id="JF313116" begin="420" fromJunction="J7" toJunction="J5" end="480" vehsPerHour="62.89247603944557" departLane="free"/>
  <flow id="JF313117" begin="420" fromJunction="J7" toJunction="J4" end="480" vehsPerHour="18.34648640246194" departLane="free"/>
  <flow id="JF313118" begin="420" fromJunction="J7" toJunction="J6" end="480" vehsPerHour="61.796302814927415" departLane="free"/>
  <flow id="JF313119" begin="420" fromJunction="J5" toJunction="J0" end="480" vehsPerHour="39.41792467426254" departLane="free"/>
  <flow id="JF313120" begin="420" fromJunction="J5" toJunction="J3" end="480" vehsPerHour="40.334481302238046" departLane="free"/>
  <flow id="JF313121" begin="420" fromJunction="J4" toJunction="J0" end="480" vehsPerHour="37.24115572072299" departLane="free"/>
  <flow id="JF313122" begin="420" fromJunction="J4" toJunction="J3" end="480" vehsPerHour="39.49264667955361" departLane="free"/>
  <flow id="JF313123" begin="420" fromJunction="J6" toJunction="J0" end="480" vehsPerHour="65.20828190128391" departLane="free"/>
  <flow id="JF313124" begin="420" fromJunction="J6" toJunction="J3" end="480" vehsPerHour="34.372011278229174" departLane="free"/>
  <flow id="JF313125" begin="420" fromJunction="J7" toJunction="J0" end="480" vehsPerHour="49.8217380059799" departLane="free"/>
  <flow id="JF313126" begin="420" fromJunction="J7" toJunction="J3" end="480" vehsPerHour="42.48395807247289" departLane="free"/>
  <flow id="JF313127" begin="480" fromJunction="J0" toJunction="J3" end="540" vehsPerHour="216.70680966764982" departLane="free"/>
  <flow id="JF313128" begin="480" fromJunction="J3" toJunction="J0" end="540" vehsPerHour="338.67181790906403" departLane="free"/>
  <flow id="JF313129" begin="480" fromJunction="J0" toJunction="J5" end="540" vehsPerHour="52.58708087271799" departLane="free"/>
  <flow id="JF313130" begin="480" fromJunction="J0" toJunction="J4" end="540" vehsPerHour="35.84093749034308" departLane="free"/>
  <flow id="JF313131" begin="480" fromJunction="J0" toJunction="J6" end="540" vehsPerHour="8.233548437483106" departLane="free"/>
  <flow id="JF313132" begin="480" fromJunction="J0" toJunction="J7" end="540" vehsPerHour="21.044213434013944" departLane="free"/>
  <flow id="JF313133" begin="480" fromJunction="J3" toJunction="J5" end="540" vehsPerHour="48.19383727787585" departLane="free"/>
  <flow id="JF313134" begin="480" fromJunction="J3" toJunction="J4" end="540" vehsPerHour="20.067430681715866" departLane="free"/>
  <flow id="JF313135" begin="480" fromJunction="J3" toJunction="J6" end="540" vehsPerHour="21.004575210350808" departLane="free"/>
  <flow id="JF313136" begin="480" fromJunction="J3" toJunction="J7" end="540" vehsPerHour="29.206892342858296" departLane="free"/>
  <flow id="JF313137" begin="480" fromJunction="J5" toJunction="J4" end="540" vehsPerHour="53.18538760135932" departLane="free"/>
  <flow id="JF313138" begin="480" fromJunction="J5" toJunction="J6" end="540" vehsPerHour="10.900241464013385" departLane="free"/>
  <flow id="JF313139" begin="480" fromJunction="J5" toJunction="J7" end="540" vehsPerHour="10.74325036819378" departLane="free"/>
  <flow id="JF313140" begin="480" fromJunction="J4" toJunction="J5" end="540" vehsPerHour="0.8622203476917419" departLane="free"/>
  <flow id="JF313141" begin="480" fromJunction="J4" toJunction="J6" end="540" vehsPerHour="19.679297473478947" departLane="free"/>
  <flow id="JF313142" begin="480" fromJunction="J4" toJunction="J7" end="540" vehsPerHour="6.026606562314954" departLane="free"/>
  <flow id="JF313143" begin="480" fromJunction="J6" toJunction="J5" end="540" vehsPerHour="65.61352851761494" departLane="free"/>
  <flow id="JF313144" begin="480" fromJunction="J6" toJunction="J4" end="540" vehsPerHour="59.992674496911185" departLane="free"/>
  <flow id="JF313145" begin="480" fromJunction="J6" toJunction="J7" end="540" vehsPerHour="8.223813591262179" departLane="free"/>
  <flow id="JF313146" begin="480" fromJunction="J7" toJunction="J5" end="540" vehsPerHour="28.636014245182153" departLane="free"/>
  <flow id="JF313147" begin="480" fromJunction="J7" toJunction="J4" end="540" vehsPerHour="22.69093998031416" departLane="free"/>
  <flow id="JF313148" begin="480" fromJunction="J7" toJunction="J6" end="540" vehsPerHour="46.80592464726049" departLane="free"/>
  <flow id="JF313149" begin="480" fromJunction="J5" toJunction="J0" end="540" vehsPerHour="13.037992693557433" departLane="free"/>
  <flow id="JF313150" begin="480" fromJunction="J5" toJunction="J3" end="540" vehsPerHour="65.53271398223326" departLane="free"/>
  <flow id="JF313151" begin="480" fromJunction="J4" toJunction="J0" end="540" vehsPerHour="45.059346266567964" departLane="free"/>
  <flow id="JF313152" begin="480" fromJunction="J4" toJunction="J3" end="540" vehsPerHour="54.99890656752704" departLane="free"/>
  <flow id="JF313153" begin="480" fromJunction="J6" toJunction="J0" end="540" vehsPerHour="20.44503313944853" departLane="free"/>
  <flow id="JF313154" begin="480" fromJunction="J6" toJunction="J3" end="540" vehsPerHour="44.444192504290264" departLane="free"/>
  <flow id="JF313155" begin="480" fromJunction="J7" toJunction="J0" end="540" vehsPerHour="68.05949944888118" departLane="free"/>