<?xml version="1.0" encoding="UTF-8"?>
<routes xmlns:xsi="http://www.w3.org/2001/XMLSchema-instance" xsi:noNamespaceSchemaLocation="http://sumo.dlr.de/xsd/routes_file.xsd">
  <flow id="JF308947" begin="0" fromJunction="J0" toJunction="J3" end="60" vehsPerHour="163.43666486004537" departLane="free"/>
  <flow id="JF308948" begin="0" fromJunction="J3" toJunction="J0" end="60" vehsPerHour="363.5045351096419" departLane="free"/>
  <flow id="JF308949" begin="0" fromJunction="J0" toJunction="J5" end="60" vehsPerHour="20.792588141696385" departLane="free"/>
  <flow id="JF308950" begin="0" fromJunction="J0" toJunction="J4" end="60" vehsPerHour="62.55588228618991" departLane="free"/>
  <flow id="JF308951" begin="0" fromJunction="J0" toJunction="J6" end="60" vehsPerHour="26.274951014794876" departLane="free"/>
  <flow id="JF308952" begin="0" fromJunction="J0" toJunction="J7" end="60" vehsPerHour="59.834303329128964" departLane="free"/>
  <flow id="JF308953" begin="0" fromJunction="J3" toJunction="J5" end="60" vehsPerHour="57.56789604246019" departLane="free"/>
  <flow id="JF308954" begin="0" fromJunction="J3" toJunction="J4" end="60" vehsPerHour="58.98484285635298" departLane="free"/>
  <flow id="JF308955" begin="0" fromJunction="J3" toJunction="J6" end="60" vehsPerHour="27.79342902586828" departLane="free"/>
  <flow id="JF308956" begin="0" fromJunction="J3" toJunction="J7" end="60" vehsPerHour="64.04921403047659" departLane="free"/>
  <flow id="JF308957" begin="0" fromJunction="J5" toJunction="J4" end="60" vehsPerHour="44.14820910365365" departLane="free"/>
  <flow id="JF308958" begin="0" fromJunction="J5" toJunction="J6" end="60" vehsPerHour="26.469955991775112" departLane="free"/>
  <flow id="JF308959" begin="0" fromJunction="J5" toJunction="J7" end="60" vehsPerHour="5.5068743738431" departLane="free"/>
  <flow id="JF308960" begin="0" fromJunction="J4" toJunction="J5" end="60" vehsPerHour="10.395554757197049" departLane="free"/>
  <flow id="JF308961" begin="0" fromJunction="J4" toJunction="J6" end="60" vehsPerHour="12.144187651468513" departLane="free"/>
  <flow id="JF308962" begin="0" fromJunction="J4" toJunction="J7" end="60" vehsPerHour="15.047895615969747" departLane="free"/>
  <flow id="JF308963" begin="0" fromJunction="J6" toJunction="J5" end="60" vehsPerHour="13.441328754885282" departLane="free"/>
  <flow id="JF308964" begin="0" fromJunction="J6" toJunction="J4" end="60" vehsPerHour="41.73739210272206" departLane="free"/>
  <flow id="JF308965" begin="0" fromJunction="J6" toJunction="J7" end="60" vehsPerHour="23.299451385780568" departLane="free"/>
  <flow id="JF308966" begin="0" fromJunction="J7" toJunction="J5" end="60" vehsPerHour="3.120164073107334" departLane="free"/>
  <flow id="JF308967" begin="0" fromJunction="J7" toJunction="J4" end="60" vehsPerHour="19.895161515227176" departLane="free"/>
  <flow id="JF308968" begin="0" fromJunction="J7" toJunction="J6" end="60" vehsPerHour="66.23355136493855" departLane="free"/>
  <flow id="JF308969" begin="0" fromJunction="J5" toJunction="J0" end="60" vehsPerHour="56.330574278484384" departLane="free"/>
  <flow id="JF308970" begin="0" fromJunction="J5" toJunction="J3" end="60" vehsPerHour="57.357730406764595" departLane="free"/>
  <flow id="JF308971" begin="0" fromJunction="J4" toJunction="J0" end="60" vehsPerHour="13.28702496395205" departLane="free"/>
  <flow id="JF308972" begin="0" fromJunction="J4" toJunction="J3" end="60" vehsPerHour="1.1389502522580073" departLane="free"/>
  <flow id="JF308973" begin="0" fromJunction="J6" toJunction="J0" end="60" vehsPerHour="63.04795138325466" departLane="free"/>
  <flow id="JF308974" begin="0" fromJunction="J6" toJunction="J3" end="60" vehsPerHour="41.834916377571965" departLane="free"/>
  <flow id="JF308975" begin="0" fromJunction="J7" toJunction="J0" end="60" vehsPerHour="0.2831241173133713" departLane="free"/>
  <flow id="JF308976" begin="0" fromJunction="J7" toJunction="J3" end="60" vehsPerHour="66.5247659337213" departLane="free"/>
  <flow id="JF308977" begin="60" fromJunction="J0" toJunction="J3" end="120" vehsPerHour="1.000085686122664" departLane="free"/>
  <flow id="JF308978" begin="60" fromJunction="J3" toJunction="J0" end="120" vehsPerHour="87.59777055234193" departLane="free"/>
  <flow id="JF308979" begin="60" fromJunction="J0" toJunction="J5" end="120" vehsPerHour="38.48262220051711" departLane="free"/>
  <flow id="JF308980" begin="60" fromJunction="J0" toJunction="J4" end="120" vehsPerHour="27.545136461716204" departLane="free"/>
  <flow id="JF308981" begin="60" fromJunction="J0" toJunction="J6" end="120" vehsPerHour="14.10097854677983" departLane="free"/>
  <flow id="JF308982" begin="60" fromJunction="J0" toJunction="J7" end="120" vehsPerHour="51.753838659939" departLane="free"/>
  <flow id="JF308983" begin="60" fromJunction="J3" toJunction="J5" end="120" vehsPerHour="29.332423537269122" departLane="free"/>
  <flow id="JF308984" begin="60" fromJunction="J3" toJunction="J4" end="120" vehsPerHour="33.051483269269745" departLane="free"/>
  <flow id="JF308985" begin="60" fromJunction="J3" toJunction="J6" end="120" vehsPerHour="33.977460241596276" departLane="free"/>
  <flow id="JF308986" begin="60" fromJunction="J3" toJunction="J7" end="120" vehsPerHour="7.976387362548749" departLane="free"/>
  <flow id="JF308987" begin="60" fromJunction="J5" toJunction="J4" end="120" vehsPerHour="15.661679594440537" departLane="free"/>
  <flow id="JF308988" begin="60" fromJunction="J5" toJunction="J6" end="120" vehsPerHour="1.4902253797920546" departLane="free"/>
  <flow id="JF308989" begin="60" fromJunction="J5" toJunction="J7" end="120" vehsPerHour="31.939095295820522" departLane="free"/>
  <flow id="JF308990" begin="60" fromJunction="J4" toJunction="J5" end="120" vehsPerHour="10.784359550057573" departLane="free"/>
  <flow id="JF308991" begin="60" fromJunction="J4" toJunction="J6" end="120" vehsPerHour="29.058859095187856" departLane="free"/>
  <flow id="JF308992" begin="60" fromJunction="J4" toJunction="J7" end="120" vehsPerHour="31.242482107483532" departLane="free"/>
  <flow id="JF308993" begin="60" fromJunction="J6" toJunction="J5" end="120" vehsPerHour="41.573686782213535" departLane="free"/>
  <flow id="JF308994" begin="60" fromJunction="J6" toJunction="J4" end="120" vehsPerHour="2.0058017859538406" departLane="free"/>
  <flow id="JF308995" begin="60" fromJunction="J6" toJunction="J7" end="120" vehsPerHour="26.24614515207659" departLane="free"/>
  <flow id="JF308996" begin="60" fromJunction="J7" toJunction="J5" end="120" vehsPerHour="58.24190097010802" departLane="free"/>
  <flow id="JF308997" begin="60" fromJunction="J7" toJunction="J4" end="120" vehsPerHour="9.468836317746062" departLane="free"/>
  <flow id="JF308998" begin="60" fromJunction="J7" toJunction="J6" end="120" vehsPerHour="6.470584136921968" departLane="free"/>
  <flow id="JF308999" begin="60" fromJunction="J5" toJunction="J0" end="120" vehsPerHour="36.556291797016556" departLane="free"/>
  <flow id="JF309000" begin="60" fromJunction="J5" toJunction="J3" end="120" vehsPerHour="17.359928404780664" departLane="free"/>
  <flow id="JF309001" begin="60" fromJunction="J4" toJunction="J0" end="120" vehsPerHour="22.49382547854237" departLane="free"/>
  <flow id="JF309002" begin="60" fromJunction="J4" toJunction="J3" end="120" vehsPerHour="47.851285482524325" departLane="free"/>
  <flow id="JF309003" begin="60" fromJunction="J6" toJunction="J0" end="120" vehsPerHour="16.780802039192572" departLane="free"/>
  <flow id="JF309004" begin="60" fromJunction="J6" toJunction="J3" end="120" vehsPerHour="51.9908479983367" departLane="free"/>
  <flow id="JF309005" begin="60" fromJunction="J7" toJunction="J0" end="120" vehsPerHour="18.283893341610742" departLane="free"/>
  <flow id="JF309006" begin="60" fromJunction="J7" toJunction="J3" end="120" vehsPerHour="56.24732497862329" departLane="free"/>
  <flow id="JF309007" begin="120" fromJunction="J0" toJunction="J3" end="180" vehsPerHour="265.96204195285804" departLane="free"/>
  <flow id="JF309008" begin="120" fromJunction="J3" toJunction="J0" end="180" vehsPerHour="337.44311921278097" departLane="free"/>
  <flow id="JF309009" begin="120" fromJunction="J0" toJunction="J5" end="180" vehsPerHour="72.57373983239285" departLane="free"/>
  <flow id="JF309010" begin="120" fromJunction="J0" toJunction="J4" end="180" vehsPerHour="74.4483798260883" departLane="free"/>
  <flow id="JF309011" begin="120" fromJunction="J0" toJunction="J6" end="180" vehsPerHour="18.87192656973761" departLane="free"/>
  <flow id="JF309012" begin="120" fromJunction="J0" toJunction="J7" end="180" vehsPerHour="91.19009076696197" departLane="free"/>
  <flow id="JF309013" begin="120" fromJunction="J3" toJunction="J5" end="180" vehsPerHour="110.67178370679392" departLane="free"/>
  <flow id="JF309014" begin="120" fromJunction="J3" toJunction="J4" end="180" vehsPerHour="12.609812893964769" departLane="free"/>
  <flow id="JF309015" begin="120" fromJunction="J3" toJunction="J6" end="180" vehsPerHour="119.2886354196192" departLane="free"/>
  <flow id="JF309016" begin="120" fromJunction="J3" toJunction="J7" end="180" vehsPerHour="117.33874572838334" departLane="free"/>
  <flow id="JF309017" begin="180" fromJunction="J0" toJunction="J3" end="240" vehsPerHour="268.0455468300664" departLane="free"/>
  <flow id="JF309018" begin="180" fromJunction="J3" toJunction="J0" end="240" vehsPerHour="114.79602061631121" departLane="free"/>
  <flow id="JF309019" begin="180" fromJunction="J0" toJunction="J5" end="240" vehsPerHour="12.844528229807333" departLane="free"/>
  <flow id="JF309020" begin="180" fromJunction="J0" toJunction="J4" end="240" vehsPerHour="48.08637815994198" departLane="free"/>
  <flow id="JF309021" begin="180" fromJunction="J0" toJunction="J6" end="240" vehsPerHour="12.809019088246092" departLane="free"/>
  <flow id="JF309022" begin="180" fromJunction="J0" toJunction="J7" end="240" vehsPerHour="3.246928354019307" departLane="free"/>
  <flow id="JF309023" begin="180" fromJunction="J3" toJunction="J5" end="240" vehsPerHour="39.58835710490388" departLane="free"/>
  <flow id="JF309024" begin="180" fromJunction="J3" toJunction="J4" end="240" vehsPerHour="62.619328132674426" departLane="free"/>
  <flow id="JF309025" begin="180" fromJunction="J3" toJunction="J6" end="240" vehsPerHour="4.09360887831776" departLane="free"/>
  <flow id="JF309026" begin="180" fromJunction="J3" toJunction="J7" end="240" vehsPerHour="17.162896164290913" departLane="free"/>
  <flow id="JF309027" begin="180" fromJunction="J5" toJunction="J4" end="240" vehsPerHour="59.89951259068952" departLane="free"/>
  <flow id="JF309028" begin="180" fromJunction="J5" toJunction="J6" end="240" vehsPerHour="23.643373799590762" departLane="free"/>
  <flow id="JF309029" begin="180" fromJunction="J5" toJunction="J7" end="240" vehsPerHour="1.884672208200575" departLane="free"/>
  <flow id="JF309030" begin="180" fromJunction="J4" toJunction="J5" end="240" vehsPerHour="9.629635072497512" departLane="free"/>
  <flow id="JF309031" begin="180" fromJunction="J4" toJunction="J6" end="240" vehsPerHour="19.19912734593437" departLane="free"/>
  <flow id="JF309032" begin="180" fromJunction="J4" toJunction="J7" end="240" vehsPerHour="25.70002740071744" departLane="free"/>
  <flow id="JF309033" begin="180" fromJunction="J6" toJunction="J5" end="240" vehsPerHour="22.237419818789583" departLane="free"/>
  <flow id="JF309034" begin="180" fromJunction="J6" toJunction="J4" end="240" vehsPerHour="1.545032576302263" departLane="free"/>
  <flow id="JF309035" begin="180" fromJunction="J6" toJunction="J7" end="240" vehsPerHour="9.979248140903053" departLane="free"/>
  <flow id="JF309036" begin="180" fromJunction="J7" toJunction="J5" end="240" vehsPerHour="61.34015205586082" departLane="free"/>
  <flow id="JF309037" begin="180" fromJunction="J7" toJunction="J4" end="240" vehsPerHour="1.073125919711369" departLane="free"/>
  <flow id="JF309038" begin="180" fromJunction="J7" toJunction="J6" end="240" vehsPerHour="65.2377030465339" departLane="free"/>
  <flow id="JF309039" begin="180" fromJunction="J5" toJunction="J0" end="240" vehsPerHour="18.32921293894442" departLane="free"/>
  <flow id="JF309040" begin="180" fromJunction="J5" toJunction="J3" end="240" vehsPerHour="32.426951643783795" departLane="free"/>
  <flow id="JF309041" begin="180" fromJunction="J4" toJunction="J0" end="240" vehsPerHour="13.973022888222" departLane="free"/>
  <flow id="JF309042" begin="180" fromJunction="J4" toJunction="J3" end="240" vehsPerHour="65.79633643173011" departLane="free"/>
  <flow id="JF309043" begin="180" fromJunction="J6" toJunction="J0" end="240" vehsPerHour="1.3575839291145333" departLane="free"/>
  <flow id="JF309044" begin="180" fromJunction="J6" toJunction="J3" end="240" vehsPerHour="34.47135543761156" departLane="free"/>
  <flow id="JF309045" begin="180" fromJunction="J7" toJunction="J0" end="240" vehsPerHour="53.52907834993389" departLane="free"/>
  <flow id="JF309046" begin="180" fromJunction="J7" toJunction="J3" end="240" vehsPerHour="68.14396136655479" departLane="free"/>
  <flow id="JF309047" begin="240" fromJunction="J0" toJunction="J3" end="300" vehsPerHour="54.518545504678805" departLane="free"/>
  <flow id="JF309048" begin="240" fromJunction="J3" toJunction="J0" end="300" vehsPerHour="460.8221364998423" departLane="free"/>
  <flow id="JF309049" begin="240" fromJunction="J0" toJunction="J5" end="300" vehsPerHour="121.57286755341111" departLane="free"/>
  <flow id="JF309050" begin="240" fromJunction="J0" toJunction="J4" end="300" vehsPerHour="107.95145532719164" departLane="free"/>
  <flow id="JF309051" begin="240" fromJunction="J0" toJunction="J6" end="300" vehsPerHour="77.26914277661052" departLane="free"/>
  <flow id="JF309052" begin="240" fromJunction="J0" toJunction="J7" end="300" vehsPerHour="62.38216007525431" departLane="free"/>
  <flow id="JF309053" begin="240" fromJunction="J3" toJunction="J5" end="300" vehsPerHour="13.951722385665196" departLane="free"/>
  <flow id="JF309054" begin="240" fromJunction="J3" toJunction="J4" end="300" vehsPerHour="59.599466958615935" departLane="free"/>
  <flow id="JF309055" begin="240" fromJunction="J3" toJunction="J6" end="300" vehsPerHour="76.1077978763341" departLane="free"/>
  <flow id="JF309056" begin="240" fromJunction="J3" toJunction="J7" end="300" vehsPerHour="130.9174516470054" departLane="free"/>
  <flow id="JF309057" begin="300" fromJunction="J0" toJunction="J3" end="360" vehsPerHour="115.0260326967492" departLane="free"/>
  <flow id="JF309058" begin="300" fromJunction="J3" toJunction="J0" end="360" vehsPerHour="355.66860148925815" departLane="free"/>
  <flow id="JF309059" begin="300" fromJunction="J0" toJunction="J5" end="360" vehsPerHour="21.02022811704539" departLane="free"/>
  <flow id="JF309060" begin="300" fromJunction="J0" toJunction="J4" end="360" vehsPerHour="40.90962541374364" departLane="free"/>
  <flow id="JF309061" begin="300" fromJunction="J0" toJunction="J6" end="360" vehsPerHour="34.14837691735828" departLane="free"/>
  <flow id="JF309062" begin="300" fromJunction="J0" toJunction="J7" end="360" vehsPerHour="39.39227590956179" departLane="free"/>
  <flow id="JF309063" begin="300" fromJunction="J3" toJunction="J5" end="360" vehsPerHour="9.758682581502143" departLane="free"/>
  <flow id="JF309064" begin="300" fromJunction="J3" toJunction="J4" end="360" vehsPerHour="49.80742333963671" departLane="free"/>
  <flow id="JF309065" begin="300" fromJunction="J3" toJunction="J6" end="360" vehsPerHour="54.28392416612504" departLane="free"/>
  <flow id="JF309066" begin="300" fromJunction="J3" toJunction="J7" end="360" vehsPerHour="8.66973949738219" departLane="free"/>
  <flow id="JF309067" begin="300" fromJunction="J5" toJunction="J4" end="360" vehsPerHour="58.8702458857904" departLane="free"/>
  <flow id="JF309068" begin="300" fromJunction="J5" toJunction="J6" end="360" vehsPerHour="2.8309573711701854" departLane="free"/>
  <flow id="JF309069" begin="300" fromJunction="J5" toJunction="J7" end="360" vehsPerHour="33.568461646133734" departLane="free"/>
  <flow id="JF309070" begin="300" fromJunction="J4" toJunction="J5" end="360" vehsPerHour="23.035997588794125" departLane="free"/>
  <flow id="JF309071" begin="300" fromJunction="J4" toJunction="J6" end="360" vehsPerHour="2.5158657469126933" departLane="free"/>
  <flow id="JF309072" begin="300" fromJunction="J4" toJunction="J7" end="360" vehsPerHour="17.902090724337505" departLane="free"/>
  <flow id="JF309073" begin="300" fromJunction="J6" toJunction="J5" end="360" vehsPerHour="25.079955720764236" departLane="free"/>
  <flow id="JF309074" begin="300" fromJunction="J6" toJunction="J4" end="360" vehsPerHour="37.8837088681548" departLane="free"/>
  <flow id="JF309075" begin="300" fromJunction="J6" toJunction="J7" end="360" vehsPerHour="32.33533475337418" departLane="free"/>
  <flow id="JF309076" begin="300" fromJunction="J7" toJunction="J5" end="360" vehsPerHour="21.681071903255788" departLane="free"/>
  <flow id="JF309077" begin="300" fromJunction="J7" toJunction="J4" end="360" vehsPerHour="59.13393362685577" departLane="free"/>
  <flow id="JF309078" begin="300" fromJunction="J7" toJunction="J6" end="360" vehsPerHour="65.7643652299723" departLane="free"/>
  <flow id="JF309079" begin="300" fromJunction="J5" toJunction="J0" end="360" vehsPerHour="9.450487009959888" departLane="free"/>
  <flow id="JF309080" begin="300" fromJunction="J5" toJunction="J3" end="360" vehsPerHour="49.79793323729192" departLane="free"/>
  <flow id="JF309081" begin="300" fromJunction="J4" toJunction="J0" end="360" vehsPerHour="63.553431647454424" departLane="free"/>
  <flow id="JF309082" begin="300" fromJunction="J4" toJunction="J3" end="360" vehsPerHour="53.89537452621812" departLane="free"/>
  <flow id="JF309083" begin="300" fromJunction="J6" toJunction="J0" end="360" vehsPerHour="3.286794524587253" departLane="free"/>
  <flow id="JF309084" begin="300" fromJunction="J6" toJunction="J3" end="360" vehsPerHour="45.761126127961546" departLane="free"/>
  <flow id="JF309085" begin="300" fromJunction="J7" toJunction="J0" end="360" vehsPerHour="24.205849319836023" departLane="free"/>
  <flow id="JF309086" begin="300" fromJunction="J7" toJunction="J3" end="360" vehsPerHour="58.942841747206174" departLane="free"/>
  <flow id="JF309087" begin="360" fromJunction="J0" toJunction="J3" end="420" vehsPerHour="234.03635162625295" departLane="free"/>
  <flow id="JF309088" begin="360" fromJunction="J3" toJunction="J0" end="420" vehsPerHour="376.8852832490618" departLane="free"/>
  <flow id="JF309089" begin="360" fromJunction="J0" toJunction="J5" end="420" vehsPerHour="41.30415098589013" departLane="free"/>
  <flow id="JF309090" begin="360" fromJunction="J0" toJunction="J4" end="420" vehsPerHour="9.039329064570802" departLane="free"/>
  <flow id="JF309091" begin="360" fromJunction="J0" toJunction="J6" end="420" vehsPerHour="37.38627854672996" departLane="free"/>
  <flow id="JF309092" begin="360" fromJunction="J0" toJunction="J7" end="420" vehsPerHour="1.9243596019561044" departLane="free"/>
  <flow id="JF309093" begin="360" fromJunction="J3" toJunction="J5" end="420" vehsPerHour="27.090094546284895" departLane="free"/>
  <flow id="JF309094" begin="360" fromJunction="J3" toJunction="J4" end="420" vehsPerHour="59.31787927278496" departLane="free"/>
  <flow id="JF309095" begin="360" fromJunction="J3" toJunction="J6" end="420" vehsPerHour="26.123495803515368" departLane="free"/>
  <flow id="JF309096" begin="360" fromJunction="J3" toJunction="J7" end="420" vehsPerHour="54.97031712475466" departLane="free"/>
  <flow id="JF309097" begin="360" fromJunction="J5" toJunction="J4" end="420" vehsPerHour="46.125896568670974" departLane="free"/>
  <flow id="JF309098" begin="360" fromJunction="J5" toJunction="J6" end="420" vehsPerHour="0.6565081320064937" departLane="free"/>
  <flow id="JF309099" begin="360" fromJunction="J5" toJunction="J7" end="420" vehsPerHour="11.991587057838812" departLane="free"/>
  <flow id="JF309100" begin="360" fromJunction="J4" toJunction="J5" end="420" vehsPerHour="31.007922179000655" departLane="free"/>
  <flow id="JF309101" begin="360" fromJunction="J4" toJunction="J6" end="420" vehsPerHour="32.45213415062627" departLane="free"/>
  <flow id="JF309102" begin="360" fromJunction="J4" toJunction="J7" end="420" vehsPerHour="2.877575339989934" departLane="free"/>
  <flow id="JF309103" begin="360" fromJunction="J6" toJunction="J5" end="420" vehsPerHour="6.852895546992082" departLane="free"/>
  <flow id="JF309104" begin="360" fromJunction="J6" toJunction="J4" end="420" vehsPerHour="23.79159592459491" departLane="free"/>
  <flow id="JF309105" begin="360" fromJunction="J6" toJunction="J7" end="420" vehsPerHour="29.189667490075255" departLane="free"/>
  <flow id="JF309106" begin="360" fromJunction="J7" toJunction="J5" end="420" vehsPerHour="17.432902522790503" departLane="free"/>
  <flow id="JF309107" begin="360" fromJunction="J7" toJunction="J4" end="420" vehsPerHour="44.18629122877405" departLane="free"/>
  <flow id="JF309108" begin="360" fromJunction="J7" toJunction="J6" end="420" vehsPerHour="68.04878739561343" departLane="free"/>
  <flow id="JF309109" begin="360" fromJunction="J5" toJunction="J0" end="420" vehsPerHour="9.22561110681798" departLane="free"/>
  <flow id="JF309110" begin="360" fromJunction="J5" toJunction="J3" end="420" vehsPerHour="9.328120443321732" departLane="free"/>
  <flow id="JF309111" begin="360" fromJunction="J4" toJunction="J0" end="420" vehsPerHour="66.32256611996586" departLane="free"/>
  <flow id="JF309112" begin="360" fromJunction="J4" toJunction="J3" end="420" vehsPerHour="61.17747249878795" departLane="free"/>
  <flow id="JF309113" begin="360" fromJunction="J6" toJunction="J0" end="420" vehsPerHour="65.88669052233503" departLane="free"/>
  <flow id="JF309114" begin="360" fromJunction="J6" toJunction="J3" end="420" vehsPerHour="41.22889591067124" departLane="free"/>
  <flow id="JF309115" begin="360" fromJunction="J7" toJunction="J0" end="420" vehsPerHour="32.97288747671288" departLane="free"/>
  <flow id="JF309116" begin="360" fromJunction="J7" toJunction="J3" end="420" vehsPerHour="21.345665038327557" departLane="free"/>
  <flow id="JF309117" begin="420" fromJunction="J0" toJunction="J3" end="480" vehsPerHour="216.31990875272024" departLane="free"/>
  <flow id="JF309118" begin="420" fromJunction="J3" toJunction="J0" end="480" vehsPerHour="372.69633756324293" departLane="free"/>
  <flow id="JF309119" begin="420" fromJunction="J0" toJunction="J5" end="480" vehsPerHour="1.4513216115271432" departLane="free"/>
  <flow id="JF309120" begin="420" fromJunction="J0" toJunction="J4" end="480" vehsPerHour="0.26859043151764767" departLane="free"/>
  <flow id="JF309121" begin="420" fromJunction="J0" toJunction="J6" end="480" vehsPerHour="55.076457216098795" departLane="free"/>
  <flow id="JF309122" begin="420" fromJunction="J0" toJunction="J7" end="480" vehsPerHour="53.3501436116599" departLane="free"/>
  <flow id="JF309123" begin="420" fromJunction="J3" toJunction="J5" end="480" vehsPerHour="40.04288978684706" departLane="free"/>
  <flow id="JF309124" begin="420" fromJunction="J3" toJunction="J4" end="480" vehsPerHour="27.500053714816513" departLane="free"/>
  <flow id="JF309125" begin="420" fromJunction="J3" toJunction="J6" end="480" vehsPerHour="50.385732231874265" departLane="free"/>
  <flow id="JF309126" begin="420" fromJunction="J3" toJunction="J7" end="480" vehsPerHour="51.630758716357285" departLane="free"/>
  <flow id="JF309127" begin="420" fromJunction="J5" toJunction="J4" end="480" vehsPerHour="17.830458585671845" departLane="free"/>
  <flow id="JF309128" begin="420" fromJunction="J5" toJunction="J6" end="480" vehsPerHour="27.83934328379289" departLane="free"/>
  <flow id="JF309129" begin="420" fromJunction="J5" toJunction="J7" end="480" vehsPerHour="16.784608022244637" departLane="free"/>
  <flow id="JF309130" begin="420" fromJunction="J4" toJunction="J5" end="480" vehsPerHour="28.234998073295436" departLane="free"/>
  <flow id="JF309131" begin="420" fromJunction="J4" toJunction="J6" end="480" vehsPerHour="6.246773150578363" departLane="free"/>
  <flow id="JF309132" begin="420" fromJunction="J4" toJunction="J7" end="480" vehsPerHour="25.794596632584515" departLane="free"/>
  <flow id="JF309133" begin="420" fromJunction="J6" toJunction="J5" end="480" vehsPerHour="27.259024932314468" departLane="free"/>
  <flow id="JF309134" begin="420" fromJunction="J6" toJunction="J4" end="480" vehsPerHour="29.19970383311863" departLane="free"/>
  <flow id="JF309135" begin="420" fromJunction="J6" toJunction="J7" end="480" vehsPerHour="28.29769507076877" departLane="free"/>
  <flow id="JF309136" begin="420" fromJunction="J7" toJunction="J5" end="480" vehsPerHour="25.11317300900728" departLane="free"/>
  <flow id="JF309137" begin="420" fromJunction="J7" toJunction="J4" end="480" vehsPerHour="53.006863070618564" departLane="free"/>
  <flow id="JF309138" begin="420" fromJunction="J7" toJunction="J6" end="480" vehsPerHour="9.417469705354788" departLane="free"/>
  <flow id="JF309139" begin="420" fromJunction="J5" toJunction="J0" end="480" vehsPerHour="20.86942537115391" departLane="free"/>
  <flow id="JF309140" begin="420" fromJunction="J5" toJunction="J3" end="480" vehsPerHour="50.91524325816556" departLane="free"/>
  <flow id="JF309141" begin="420" fromJunction="J4" toJunction="J0" end="480" vehsPerHour="49.033622644847476" departLane="free"/>
  <flow id="JF309142" begin="420" fromJunction="J4" toJunction="J3" end="480" vehsPerHour="59.4870575813105" departLane="free"/>
  <flow id="JF309143" begin="420" fromJunction="J6" toJunction="J0" end="480" vehsPerHour="37.89604373119955" departLane="free"/>
  <flow id="JF309144" begin="420" fromJunction="J6" toJunction="J3" end="480" vehsPerHour="7.634002928219736" departLane="free"/>
  <flow id="JF309145" begin="420" fromJunction="J7" toJunction="J0" end="480" vehsPerHour="58.21920488081292" departLane="free"/>
  <flow id="JF309146" begin="420" fromJunction="J7" toJunction="J3" end="480" vehsPerHour="53.503030903269895" departLane="free"/>
  <flow id="JF309147" begin="480" fromJunction="J0" toJunction="J3" end="540" vehsPerHour="161.34987596677385" departLane="free"/>
  <flow id="JF309148" begin="480" fromJunction="J3" toJunction="J0" end="540" vehsPerHour="118.41786641486543" departLane="free"/>
  <flow id="JF309149" begin="480" fromJunction="J0" toJunction="J5" end="540" vehsPerHour="12.563772639065174" departLane="free"/>
  <flow id="JF309150" begin="480" fromJunction="J0" toJunction="J4" end="540" vehsPerHour="24.06062653372507" departLane="free"/>
  <flow id="JF309151" begin="480" fromJunction="J0" toJunction="J6" end="540" vehsPerHour="53.34906880345483" departLane="free"/>
  <flow id="JF309152" begin="480" fromJunction="J0" toJunction="J7" end="540" vehsPerHour="34.5739384542501" departLane="free"/>
  <flow id="JF309153" begin="480" fromJunction="J3" toJunction="J5" end="540" vehsPerHour="18.537808448619316" departLane="free"/>
  <flow id="JF309154" begin="480" fromJunction="J3" toJunction="J4" end="540" vehsPerHour="48.301673154469285" departLane="free"/>
  <flow id="JF309155" begin="480" fromJunction="J3" toJunction="J6" end="540" vehsPerHour="54.560012479762584" departLane="free"/>
  <flow id="JF309156" begin="480" fromJunction="J3" toJunction="J7" end="540" vehsPerHour="12.035917581341124" departLane="free"/>
  <flow id="JF309157" begin="480" fromJunction="J5" toJunction="J4" end="540" vehsPerHour="17.638395629624412" departLane="free"/>
  <flow id="JF309158" begin="480" fromJunction="J5" toJunction="J6" end="540" vehsPerHour="12.739733515711546" departLane="free"/>
  <flow id="JF309159" begin="480" fromJunction="J5" toJunction="J7" end="540" vehsPerHour="9.569149712993829" departLane="free"/>
  <flow id="JF309160" begin="480" fromJunction="J4" toJunction="J5" end="540" vehsPerHour="17.810451573553536" departLane="free"/>
  <flow id="JF309161" begin="480" fromJunction="J4" toJunction="J6" end="540" vehsPerHour="23.402382046881215" departLane="free"/>
  <flow id="JF309162" begin="480" fromJunction="J4" toJunction="J7" end="540" vehsPerHour="7.787234797796399" departLane="free"/>
  <flow id="JF309163" begin="480" fromJunction="J6" toJunction="J5" end="540" vehsPerHour="37.048714705884635" departLane="free"/>
  <flow id="JF309164" begin="480" fromJunction="J6" toJunction="J4" end="540" vehsPerHour="9.498848577994346" departLane="free"/>
  <flow id="JF309165" begin="480" fromJunction="J6" toJunction="J7" end="540" vehsPerHour="8.967224845701628" departLane="free"/>
  <flow id="JF309166" begin="480" fromJunction="J7" toJunction="J5" end="540" vehsPerHour="68.36618609195962" departLane="free"/>
  <flow id="JF309167" begin="480" fromJunction="J7" toJunction="J4" end="540" vehsPerHour="9.27133702721043" departLane="free"/>
  <flow id="JF309168" begin="480" fromJunction="J7" toJunction="J6" end="540" vehsPerHour="53.66946642054408" departLane="free"/>
  <flow id="JF309169" begin="480" fromJunction="J5" toJunction="J0" end="540" vehsPerHour="54.50589562423587" departLane="free"/>
  <flow id="JF309170" begin="480" fromJunction="J5" toJunction="J3" end="540" vehsPerHour="0.3954120968988836" departLane="free"/>
  <flow id="JF309171" begin="480" fromJunction="J4" toJunction="J0" end="540" vehsPerHour="10.893005103104834" departLane="free"/>
  <flow id="JF309172" begin="480" fromJunction="J4" toJunction="J3" end="540" vehsPerHour="8.100840304492412" departLane="free"/>
  <flow id="JF309173" begin="480" fromJunction="J6" toJunction="J0" end="540" vehsPerHour="13.485037189381659" departLane="free"/>
  <flow id="JF309174" begin="480" fromJunction="J6" toJunction="J3" end="540" vehsPerHour="25.029774622176788" departLane="free"/>
  <flow id="JF309175" begin="480" fromJunction="J7" toJunction="J0" end="540" vehsPerHour="50.95492646097076" departLane="free"/>