<?xml version="1.0" encoding="UTF-8"?>
<routes xmlns:xsi="http://www.w3.org/2001/XMLSchema-instance" xsi:noNamespaceSchemaLocation="http://sumo.dlr.de/xsd/routes_file.xsd">
  <flow id="JF325007" begin="0" fromJunction="J0" toJunction="J3" end="60" vehsPerHour="89.1100882494913" departLane="free"/>
  <flow id="JF325008" begin="0" fromJunction="J3" toJunction="J0" end="60" vehsPerHour="474.83878176147687" departLane="free"/>
  <flow id="JF325009" begin="0" fromJunction="J0" toJunction="J5" end="60" vehsPerHour="2.0098030325846103" departLane="free"/>
  <flow id="JF325010" begin="0" fromJunction="J0" toJunction="J4" end="60" vehsPerHour="27.292450549952292" departLane="free"/>
  <flow id="JF325011" begin="0" fromJunction="J0" toJunction="J6" end="60" vehsPerHour="65.35045595337554" departLane="free"/>
  <flow id="JF325012" begin="0" fromJunction="J0" toJunction="J7" end="60" vehsPerHour="41.644788826519516" departLane="free"/>
  <flow id="JF325013" begin="0" fromJunction="J3" toJunction="J5" end="60" vehsPerHour="13.244317335276577" departLane="free"/>
  <flow id="JF325014" begin="0" fromJunction="J3" toJunction="J4" end="60" vehsPerHour="54.17382179985618" departLane="free"/>
  <flow id="JF325015" begin="0" fromJunction="J3" toJunction="J6" end="60" vehsPerHour="60.66154684714965" departLane="free"/>
  <flow id="JF325016" begin="0" fromJunction="J3" toJunction="J7" end="60" vehsPerHour="1.217046498683688" departLane="free"/>
  <flow id="JF325017" begin="0" fromJunction="J5" toJunction="J4" end="60" vehsPerHour="3.140693801875844" departLane="free"/>
  <flow id="JF325018" begin="0" fromJunction="J5" toJunction="J6" end="60" vehsPerHour="15.99892487219082" departLane="free"/>
  <flow id="JF325019" begin="0" fromJunction="J5" toJunction="J7" end="60" vehsPerHour="1.3501331722379402" departLane="free"/>
  <flow id="JF325020" begin="0" fromJunction="J4" toJunction="J5" end="60" vehsPerHour="7.984390711228987" departLane="free"/>
  <flow id="JF325021" begin="0" fromJunction="J4" toJunction="J6" end="60" vehsPerHour="4.909261113051617" departLane="free"/>
  <flow id="JF325022" begin="0" fromJunction="J4" toJunction="J7" end="60" vehsPerHour="6.83705410153001" departLane="free"/>
  <flow id="JF325023" begin="0" fromJunction="J6" toJunction="J5" end="60" vehsPerHour="48.31706303765541" departLane="free"/>
  <flow id="JF325024" begin="0" fromJunction="J6" toJunction="J4" end="60" vehsPerHour="5.593866906048122" departLane="free"/>
  <flow id="JF325025" begin="0" fromJunction="J6" toJunction="J7" end="60" vehsPerHour="24.582554656621536" departLane="free"/>
  <flow id="JF325026" begin="0" fromJunction="J7" toJunction="J5" end="60" vehsPerHour="31.74353627570192" departLane="free"/>
  <flow id="JF325027" begin="0" fromJunction="J7" toJunction="J4" end="60" vehsPerHour="12.540661818150754" departLane="free"/>
  <flow id="JF325028" begin="0" fromJunction="J7" toJunction="J6" end="60" vehsPerHour="25.924789920801803" departLane="free"/>
  <flow id="JF325029" begin="0" fromJunction="J5" toJunction="J0" end="60" vehsPerHour="15.402500313240274" departLane="free"/>
  <flow id="JF325030" begin="0" fromJunction="J5" toJunction="J3" end="60" vehsPerHour="47.47875343469804" departLane="free"/>
  <flow id="JF325031" begin="0" fromJunction="J4" toJunction="J0" end="60" vehsPerHour="43.760926343605185" departLane="free"/>
  <flow id="JF325032" begin="0" fromJunction="J4" toJunction="J3" end="60" vehsPerHour="20.631555154133416" departLane="free"/>
  <flow id="JF325033" begin="0" fromJunction="J6" toJunction="J0" end="60" vehsPerHour="46.54120677326304" departLane="free"/>
  <flow id="JF325034" begin="0" fromJunction="J6" toJunction="J3" end="60" vehsPerHour="0.6317297956082903" departLane="free"/>
  <flow id="JF325035" begin="0" fromJunction="J7" toJunction="J0" end="60" vehsPerHour="33.35066812055367" departLane="free"/>
  <flow id="JF325036" begin="0" fromJunction="J7" toJunction="J3" end="60" vehsPerHour="4.014331690553622" departLane="free"/>
  <flow id="JF325037" begin="60" fromJunction="J0" toJunction="J3" end="120" vehsPerHour="183.5196542927109" departLane="free"/>
  <flow id="JF325038" begin="60" fromJunction="J3" toJunction="J0" end="120" vehsPerHour="212.2089688951238" departLane="free"/>
  <flow id="JF325039" begin="60" fromJunction="J0" toJunction="J5" end="120" vehsPerHour="35.412691072339506" departLane="free"/>
  <flow id="JF325040" begin="60" fromJunction="J0" toJunction="J4" end="120" vehsPerHour="32.35472687123036" departLane="free"/>
  <flow id="JF325041" begin="60" fromJunction="J0" toJunction="J6" end="120" vehsPerHour="73.24511513037619" departLane="free"/>
  <flow id="JF325042" begin="60" fromJunction="J0" toJunction="J7" end="120" vehsPerHour="127.42123335958233" departLane="free"/>
  <flow id="JF325043" begin="60" fromJunction="J3" toJunction="J5" end="120" vehsPerHour="13.489125557610006" departLane="free"/>
  <flow id="JF325044" begin="60" fromJunction="J3" toJunction="J4" end="120" vehsPerHour="53.85257399092975" departLane="free"/>
  <flow id="JF325045" begin="60" fromJunction="J3" toJunction="J6" end="120" vehsPerHour="100.27495597291644" departLane="free"/>
  <flow id="JF325046" begin="60" fromJunction="J3" toJunction="J7" end="120" vehsPerHour="48.69360903896191" departLane="free"/>
  <flow id="JF325047" begin="120" fromJunction="J0" toJunction="J3" end="180" vehsPerHour="118.8707906741015" departLane="free"/>
  <flow id="JF325048" begin="120" fromJunction="J3" toJunction="J0" end="180" vehsPerHour="451.984276925978" departLane="free"/>
  <flow id="JF325049" begin="120" fromJunction="J0" toJunction="J5" end="180" vehsPerHour="25.476215471932658" departLane="free"/>
  <flow id="JF325050" begin="120" fromJunction="J0" toJunction="J4" end="180" vehsPerHour="12.542658775973367" departLane="free"/>
  <flow id="JF325051" begin="120" fromJunction="J0" toJunction="J6" end="180" vehsPerHour="5.9913518129388335" departLane="free"/>
  <flow id="JF325052" begin="120" fromJunction="J0" toJunction="J7" end="180" vehsPerHour="66.30688395414421" departLane="free"/>
  <flow id="JF325053" begin="120" fromJunction="J3" toJunction="J5" end="180" vehsPerHour="21.69311825405689" departLane="free"/>
  <flow id="JF325054" begin="120" fromJunction="J3" toJunction="J4" end="180" vehsPerHour="36.41580552043424" departLane="free"/>
  <flow id="JF325055" begin="120" fromJunction="J3" toJunction="J6" end="180" vehsPerHour="43.3655429822349" departLane="free"/>
  <flow id="JF325056" begin="120" fromJunction="J3" toJunction="J7" end="180" vehsPerHour="62.94951757546904" departLane="free"/>
  <flow id="JF325057" begin="120" fromJunction="J5" toJunction="J4" end="180" vehsPerHour="15.93899276752154" departLane="free"/>
  <flow id="JF325058" begin="120" fromJunction="J5" toJunction="J6" end="180" vehsPerHour="34.22378475687578" departLane="free"/>
  <flow id="JF325059" begin="120" fromJunction="J5" toJunction="J7" end="180" vehsPerHour="4.146914019940479" departLane="free"/>
  <flow id="JF325060" begin="120" fromJunction="J4" toJunction="J5" end="180" vehsPerHour="6.587504539285514" departLane="free"/>
  <flow id="JF325061" begin="120" fromJunction="J4" toJunction="J6" end="180" vehsPerHour="11.819218951996175" departLane="free"/>
  <flow id="JF325062" begin="120" fromJunction="J4" toJunction="J7" end="180" vehsPerHour="15.944128982084449" departLane="free"/>
  <flow id="JF325063" begin="120" fromJunction="J6" toJunction="J5" end="180" vehsPerHour="27.20713569407184" departLane="free"/>
  <flow id="JF325064" begin="120" fromJunction="J6" toJunction="J4" end="180" vehsPerHour="63.293627282081715" departLane="free"/>
  <flow id="JF325065" begin="120" fromJunction="J6" toJunction="J7" end="180" vehsPerHour="25.71673644400385" departLane="free"/>
  <flow id="JF325066" begin="120" fromJunction="J7" toJunction="J5" end="180" vehsPerHour="48.14909906490109" departLane="free"/>
  <flow id="JF325067" begin="120" fromJunction="J7" toJunction="J4" end="180" vehsPerHour="46.12087222613949" departLane="free"/>
  <flow id="JF325068" begin="120" fromJunction="J7" toJunction="J6" end="180" vehsPerHour="14.545558761725408" departLane="free"/>
  <flow id="JF325069" begin="120" fromJunction="J5" toJunction="J0" end="180" vehsPerHour="67.52774148122042" departLane="free"/>
  <flow id="JF325070" begin="120" fromJunction="J5" toJunction="J3" end="180" vehsPerHour="40.026545617580524" departLane="free"/>
  <flow id="JF325071" begin="120" fromJunction="J4" toJunction="J0" end="180" vehsPerHour="26.016021224068645" departLane="free"/>
  <flow id="JF325072" begin="120" fromJunction="J4" toJunction="J3" end="180" vehsPerHour="27.00032985495418" departLane="free"/>
  <flow id="JF325073" begin="120" fromJunction="J6" toJunction="J0" end="180" vehsPerHour="17.66169515533939" departLane="free"/>
  <flow id="JF325074" begin="120" fromJunction="J6" toJunction="J3" end="180" vehsPerHour="23.992804669251363" departLane="free"/>
  <flow id="JF325075" begin="120" fromJunction="J7" toJunction="J0" end="180" vehsPerHour="46.21048674331933" departLane="free"/>
  <flow id="JF325076" begin="120" fromJunction="J7" toJunction="J3" end="180" vehsPerHour="33.300293633221" departLane="free"/>
  <flow id="JF325077" begin="180" fromJunction="J0" toJunction="J3" end="240" vehsPerHour="203.5428075006207" departLane="free"/>
  <flow id="JF325078" begin="180" fromJunction="J3" toJunction="J0" end="240" vehsPerHour="461.2581860596059" departLane="free"/>
  <flow id="JF325079" begin="180" fromJunction="J0" toJunction="J5" end="240" vehsPerHour="132.90730437581337" departLane="free"/>
  <flow id="JF325080" begin="180" fromJunction="J0" toJunction="J4" end="240" vehsPerHour="130.61440895253145" departLane="free"/>
  <flow id="JF325081" begin="180" fromJunction="J0" toJunction="J6" end="240" vehsPerHour="98.51185462206357" departLane="free"/>
  <flow id="JF325082" begin="180" fromJunction="J0" toJunction="J7" end="240" vehsPerHour="41.23640376079923" departLane="free"/>
  <flow id="JF325083" begin="180" fromJunction="J3" toJunction="J5" end="240" vehsPerHour="41.01170006182819" departLane="free"/>
  <flow id="JF325084" begin="180" fromJunction="J3" toJunction="J4" end="240" vehsPerHour="39.72229973692102" departLane="free"/>
  <flow id="JF325085" begin="180" fromJunction="J3" toJunction="J6" end="240" vehsPerHour="15.09871018579359" departLane="free"/>
  <flow id="JF325086" begin="180" fromJunction="J3" toJunction="J7" end="240" vehsPerHour="14.294616520741513" departLane="free"/>
  <flow id="JF325087" begin="240" fromJunction="J0" toJunction="J3" end="300" vehsPerHour="78.64066778517366" departLane="free"/>
  <flow id="JF325088" begin="240" fromJunction="J3" toJunction="J0" end="300" vehsPerHour="244.57374858593803" departLane="free"/>
  <flow id="JF325089" begin="240" fromJunction="J0" toJunction="J5" end="300" vehsPerHour="56.364941007531016" departLane="free"/>
  <flow id="JF325090" begin="240" fromJunction="J0" toJunction="J4" end="300" vehsPerHour="4.9410139405231295" departLane="free"/>
  <flow id="JF325091" begin="240" fromJunction="J0" toJunction="J6" end="300" vehsPerHour="64.9121954452932" departLane="free"/>
  <flow id="JF325092" begin="240" fromJunction="J0" toJunction="J7" end="300" vehsPerHour="54.695801389658044" departLane="free"/>
  <flow id="JF325093" begin="240" fromJunction="J3" toJunction="J5" end="300" vehsPerHour="46.607881994756994" departLane="free"/>
  <flow id="JF325094" begin="240" fromJunction="J3" toJunction="J4" end="300" vehsPerHour="24.572275606827795" departLane="free"/>
  <flow id="JF325095" begin="240" fromJunction="J3" toJunction="J6" end="300" vehsPerHour="29.82735964587562" departLane="free"/>
  <flow id="JF325096" begin="240" fromJunction="J3" toJunction="J7" end="300" vehsPerHour="38.269523171334725" departLane="free"/>
  <flow id="JF325097" begin="240" fromJunction="J5" toJunction="J4" end="300" vehsPerHour="44.55113939070463" departLane="free"/>
  <flow id="JF325098" begin="240" fromJunction="J5" toJunction="J6" end="300" vehsPerHour="5.851442849775156" departLane="free"/>
  <flow id="JF325099" begin="240" fromJunction="J5" toJunction="J7" end="300" vehsPerHour="11.595927939967835" departLane="free"/>
  <flow id="JF325100" begin="240" fromJunction="J4" toJunction="J5" end="300" vehsPerHour="7.916364110997796" departLane="free"/>
  <flow id="JF325101" begin="240" fromJunction="J4" toJunction="J6" end="300" vehsPerHour="17.30647384353975" departLane="free"/>
  <flow id="JF325102" begin="240" fromJunction="J4" toJunction="J7" end="300" vehsPerHour="4.598669305092879" departLane="free"/>
  <flow id="JF325103" begin="240" fromJunction="J6" toJunction="J5" end="300" vehsPerHour="41.326463527196786" departLane="free"/>
  <flow id="JF325104" begin="240" fromJunction="J6" toJunction="J4" end="300" vehsPerHour="62.37124740404627" departLane="free"/>
  <flow id="JF325105" begin="240" fromJunction="J6" toJunction="J7" end="300" vehsPerHour="30.67983738239755" departLane="free"/>
  <flow id="JF325106" begin="240" fromJunction="J7" toJunction="J5" end="300" vehsPerHour="0.8189639990442005" departLane="free"/>
  <flow id="JF325107" begin="240" fromJunction="J7" toJunction="J4" end="300" vehsPerHour="36.82095842475745" departLane="free"/>
  <flow id="JF325108" begin="240" fromJunction="J7" toJunction="J6" end="300" vehsPerHour="52.66938393638619" departLane="free"/>
  <flow id="JF325109" begin="240" fromJunction="J5" toJunction="J0" end="300" vehsPerHour="18.099212898409554" departLane="free"/>
  <flow id="JF325110" begin="240" fromJunction="J5" toJunction="J3" end="300" vehsPerHour="49.57481731089972" departLane="free"/>
  <flow id="JF325111" begin="240" fromJunction="J4" toJunction="J0" end="300" vehsPerHour="37.143908782576794" departLane="free"/>
  <flow id="JF325112" begin="240" fromJunction="J4" toJunction="J3" end="300" vehsPerHour="65.16705300347182" departLane="free"/>
  <flow id="JF325113" begin="240" fromJunction="J6" toJunction="J0" end="300" vehsPerHour="45.98024587575709" departLane="free"/>
  <flow id="JF325114" begin="240" fromJunction="J6" toJunction="J3" end="300" vehsPerHour="42.53362792586256" departLane="free"/>
  <flow id="JF325115" begin="240" fromJunction="J7" toJunction="J0" end="300" vehsPerHour="25.647746526484063" departLane="free"/>
  <flow id="JF325116" begin="240" fromJunction="J7" toJunction="J3" end="300" vehsPerHour="63.00979720472317" departLane="free"/>
  <flow id="JF325117" begin="300" fromJunction="J0" toJunction="J3" end="360" vehsPerHour="51.711335653080425" departLane="free"/>
  <flow id="JF325118" begin="300" fromJunction="J3" toJunction="J0" end="360" vehsPerHour="278.7288682920918" departLane="free"/>
  <flow id="JF325119" begin="300" fromJunction="J0" toJunction="J5" end="360" vehsPerHour="48.423858811892636" departLane="free"/>
  <flow id="JF325120" begin="300" fromJunction="J0" toJunction="J4" end="360" vehsPerHour="55.29009655258615" departLane="free"/>
  <flow id="JF325121" begin="300" fromJunction="J0" toJunction="J6" end="360" vehsPerHour="46.457512989042975" departLane="free"/>
  <flow id="JF325122" begin="300" fromJunction="J0" toJunction="J7" end="360" vehsPerHour="50.28860167669757" departLane="free"/>
  <flow id="JF325123" begin="300" fromJunction="J3" toJunction="J5" end="360" vehsPerHour="62.17243246350408" departLane="free"/>
  <flow id="JF325124" begin="300" fromJunction="J3" toJunction="J4" end="360" vehsPerHour="47.999514280280984" departLane="free"/>
  <flow id="JF325125" begin="300" fromJunction="J3" toJunction="J6" end="360" vehsPerHour="14.761766137213206" departLane="free"/>
  <flow id="JF325126" begin="300" fromJunction="J3" toJunction="J7" end="360" vehsPerHour="13.977117051398587" departLane="free"/>
  <flow id="JF325127" begin="300" fromJunction="J5" toJunction="J4" end="360" vehsPerHour="5.598524380776981" departLane="free"/>
  <flow id="JF325128" begin="300" fromJunction="J5" toJunction="J6" end="360" vehsPerHour="16.07101136500779" departLane="free"/>
  <flow id="JF325129" begin="300" fromJunction="J5" toJunction="J7" end="360" vehsPerHour="20.096499310760738" departLane="free"/>
  <flow id="JF325130" begin="300" fromJunction="J4" toJunction="J5" end="360" vehsPerHour="22.27971820796339" departLane="free"/>
  <flow id="JF325131" begin="300" fromJunction="J4" toJunction="J6" end="360" vehsPerHour="10.519856338953218" departLane="free"/>
  <flow id="JF325132" begin="300" fromJunction="J4" toJunction="J7" end="360" vehsPerHour="2.5672006480798553" departLane="free"/>
  <flow id="JF325133" begin="300" fromJunction="J6" toJunction="J5" end="360" vehsPerHour="5.576600206006656" departLane="free"/>
  <flow id="JF325134" begin="300" fromJunction="J6" toJunction="J4" end="360" vehsPerHour="21.726401679253378" departLane="free"/>
  <flow id="JF325135" begin="300" fromJunction="J6" toJunction="J7" end="360" vehsPerHour="14.360213671181873" departLane="free"/>
  <flow id="JF325136" begin="300" fromJunction="J7" toJunction="J5" end="360" vehsPerHour="35.28648267467561" departLane="free"/>
  <flow id="JF325137" begin="300" fromJunction="J7" toJunction="J4" end="360" vehsPerHour="66.45173546969596" departLane="free"/>
  <flow id="JF325138" begin="300" fromJunction="J7" toJunction="J6" end="360" vehsPerHour="44.098228596923235" departLane="free"/>
  <flow id="JF325139" begin="300" fromJunction="J5" toJunction="J0" end="360" vehsPerHour="3.166704902463705" departLane="free"/>
  <flow id="JF325140" begin="300" fromJunction="J5" toJunction="J3" end="360" vehsPerHour="28.808182267298537" departLane="free"/>
  <flow id="JF325141" begin="300" fromJunction="J4" toJunction="J0" end="360" vehsPerHour="63.73952083308653" departLane="free"/>
  <flow id="JF325142" begin="300" fromJunction="J4" toJunction="J3" end="360" vehsPerHour="15.5370316001761" departLane="free"/>
  <flow id="JF325143" begin="300" fromJunction="J6" toJunction="J0" end="360" vehsPerHour="16.757200681418563" departLane="free"/>
  <flow id="JF325144" begin="300" fromJunction="J6" toJunction="J3" end="360" vehsPerHour="19.62774544884318" departLane="free"/>
  <flow id="JF325145" begin="300" fromJunction="J7" toJunction="J0" end="360" vehsPerHour="32.959457558999155" departLane="free"/>
  <flow id="JF325146" begin="300" fromJunction="J7" toJunction="J3" end="360" vehsPerHour="29.031611424546774" departLane="free"/>
  <flow id="JF325147" begin="360" fromJunction="J0" toJunction="J3" end="420" vehsPerHour="169.75505672827256" departLane="free"/>
  <flow id="JF325148" begin="360" fromJunction="J3" toJunction="J0" end="420" vehsPerHour="542.1023068538412" departLane="free"/>
  <flow id="JF325149" begin="360" fromJunction="J0" toJunction="J5" end="420" vehsPerHour="34.56319594308421" departLane="free"/>
  <flow id="JF325150" begin="360" fromJunction="J0" toJunction="J4" end="420" vehsPerHour="63.77705838484361" departLane="free"/>
  <flow id="JF325151" begin="360" fromJunction="J0" toJunction="J6" end="420" vehsPerHour="4.206280605157966" departLane="free"/>
  <flow id="JF325152" begin="360" fromJunction="J0" toJunction="J7" end="420" vehsPerHour="18.311863363540425" departLane="free"/>
  <flow id="JF325153" begin="360" fromJunction="J3" toJunction="J5" end="420" vehsPerHour="32.1199821828449" departLane="free"/>
  <flow id="JF325154" begin="360" fromJunction="J3" toJunction="J4" end="420" vehsPerHour="7.609611216470781" departLane="free"/>
  <flow id="JF325155" begin="360" fromJunction="J3" toJunction="J6" end="420" vehsPerHour="65.55868352517126" departLane="free"/>
  <flow id="JF325156" begin="360" fromJunction="J3" toJunction="J7" end="420" vehsPerHour="33.699163067693476" departLane="free"/>
  <flow id="JF325157" begin="360" fromJunction="J5" toJunction="J4" end="420" vehsPerHour="44.803793804622245" departLane="free"/>
  <flow id="JF325158" begin="360" fromJunction="J5" toJunction="J6" end="420" vehsPerHour="22.085581394809722" departLane="free"/>
  <flow id="JF325159" begin="360" fromJunction="J5" toJunction="J7" end="420" vehsPerHour="16.64006876404212" departLane="free"/>
  <flow id="JF325160" begin="360" fromJunction="J4" toJunction="J5" end="420" vehsPerHour="17.729351768007422" departLane="free"/>
  <flow id="JF325161" begin="360" fromJunction="J4" toJunction="J6" end="420" vehsPerHour="20.495373053312306" departLane="free"/>
  <flow id="JF325162" begin="360" fromJunction="J4" toJunction="J7" end="420" vehsPerHour="4.422733690735609" departLane="free"/>
  <flow id="JF325163" begin="360" fromJunction="J6" toJunction="J5" end="420" vehsPerHour="1.826831370310056" departLane="free"/>
  <flow id="JF325164" begin="360" fromJunction="J6" toJunction="J4" end="420" vehsPerHour="65.26749661690974" departLane="free"/>
  <flow id="JF325165" begin="360" fromJunction="J6" toJunction="J7" end="420" vehsPerHour="24.81949189799903" departLane="free"/>
  <flow id="JF325166" begin="360" fromJunction="J7" toJunction="J5" end="420" vehsPerHour="16.8175302268476" departLane="free"/>
  <flow id="JF325167" begin="360" fromJunction="J7" toJunction="J4" end="420" vehsPerHour="3.4886996789272855" departLane="free"/>
  <flow id="JF325168" begin="360" fromJunction="J7" toJunction="J6" end="420" vehsPerHour="31.184622646593464" departLane="free"/>
  <flow id="JF325169" begin="360" fromJunction="J5" toJunction="J0" end="420" vehsPerHour="4.878578721683834" departLane="free"/>
  <flow id="JF325170" begin="360" fromJunction="J5" toJunction="J3" end="420" vehsPerHour="64.2664342202859" departLane="free"/>
  <flow id="JF325171" begin="360" fromJunction="J4" toJunction="J0" end="420" vehsPerHour="1.77876104132213" departLane="free"/>
  <flow id="JF325172" begin="360" fromJunction="J4" toJunction="J3" end="420" vehsPerHour="52.24513096159142" departLane="free"/>
  <flow id="JF325173" begin="360" fromJunction="J6" toJunction="J0" end="420" vehsPerHour="36.1341799840823" departLane="free"/>
  <flow id="JF325174" begin="360" fromJunction="J6" toJunction="J3" end="420" vehsPerHour="8.368719146982595" departLane="free"/>
  <flow id="JF325175" begin="360" fromJunction="J7" toJunction="J0" end="420" vehsPerHour="65.50027292177712" departLane="free"/>
  <flow id="JF325176" begin="360" fromJunction="J7" toJunction="J3" end="420" vehsPerHour="64.40939374527089" departLane="free"/>
  <flow id="JF325177" begin="420" fromJunction="J0" toJunction="J3" end="480" vehsPerHour="246.16350648310973" departLane="free"/>
  <flow id="JF325178" begin="420" fromJunction="J3" toJunction="J0" end="480" vehsPerHour="382.6357565064256" departLane="free"/>
  <flow id="JF325179" begin="420" fromJunction="J0" toJunction="J5" end="480" vehsPerHour="67.42569657154328" departLane="free"/>
  <flow id="JF325180" begin="420" fromJunction="J0" toJunction="J4" end="480" vehsPerHour="0.8319991969404844" departLane="free"/>
  <flow id="JF325181" begin="420" fromJunction="J0" toJunction="J6" end="480" vehsPerHour="72.77943413576858" departLane="free"/>
  <flow id="JF325182" begin="420" fromJunction="J0" toJunction="J7" end="480" vehsPerHour="102.3760587299795" departLane="free"/>
  <flow id="JF325183" begin="420" fromJunction="J3" toJunction="J5" end="480" vehsPerHour="106.3990525252867" departLane="free"/>
  <flow id="JF325184" begin="420" fromJunction="J3" toJunction="J4" end="480" vehsPerHour="109.79674169895858" departLane="free"/>
  <flow id="JF325185" begin="420" fromJunction="J3" toJunction="J6" end="480" vehsPerHour="83.4847984689714" departLane="free"/>
  <flow id="JF325186" begin="420" fromJunction="J3" toJunction="J7" end="480" vehsPerHour="132.15559673358024" departLane="free"/>
  <flow id="JF325187" begin="480" fromJunction="J0" toJunction="J3" end="540" vehsPerHour="127.51696271598337" departLane="free"/>
  <flow id="JF325188" begin="480" fromJunction="J3" toJunction="J0" end="540" vehsPerHour="214.10920359287329" departLane="free"/>
  <flow id="JF325189" begin="480" fromJunction="J0" toJunction="J5" end="540" vehsPerHour="111.3946919946495" departLane="free"/>
  <flow id="JF325190" begin="480" fromJunction="J0" toJunction="J4" end="540" vehsPerHour="79.74356038141275" departLane="free"/>
  <flow id="JF325191" begin="480" fromJunction="J0" toJunction="J6" end="540" vehsPerHour="22.903889336530163" departLane="free"/>
  <flow id="JF325192" begin="480" fromJunction="J0" toJunction="J7" end="540" vehsPerHour="23.599886150177852" departLane="free"/>
  <flow id="JF325193" begin="480" fromJunction="J3" toJunction="J5" end="540" vehsPerHour="79.67406395961889" departLane="free"/>
  <flow id="JF325194" begin="480" fromJunction="J3" toJunction="J4" end="540" vehsPerHour="7.483287147496538" departLane="free"/>
  <flow id="JF325195" begin="480" fromJunction="J3" toJunction="J6" end="540" vehsPerHour="20.158907799866643" departLane="free"/>
  <flow id="JF325196" begin="480" fromJunction="J3" toJunction="J7" end="540" vehsPerHour="82.24721442327288" departLane="free"/>
  <flow id="JF325197" begin="540" fromJunction="J0" toJunction="J3" end="600" vehsPerHour="130.4635816166784" departLane="free"/>
  <flow id="JF325198" begin="540" fromJunction="J3" toJunction="J0" end="600" vehsPerHour="84.42358389510257" departLane="free"/>
  <flow id="JF325199" begin="540" fromJunction="J0" toJunction="J5" end="600" vehsPerHour="18.78821520050028" departLane="free"/>
  <flow id="JF325200" begin="540" fromJunction="J0" toJunction="J4" end="600" vehsPerHour="19.55764173306019" departLane="free"/>
  <flow id="JF325201" begin="540" fromJunction="J0" toJunction="J6" end="600" vehsPerHour="22.373016867780112" departLane="free"/>
  <flow id="JF325202" begin="540" fromJunction="J0" toJunction="J7" end="600" vehsPerHour="2.3426791916844114" departLane="free"/>
  <flow id="JF325203" begin="540" fromJunction="J3" toJunction="J5" end="600" vehsPerHour="37.562449329918316" departLane="free"/>
  <flow id="JF325204" begin="540" fromJunction="J3" toJunction="J4" end="600" vehsPerHour="30.98275291296259" departLane="free"/>
  <flow id="JF325205" begin="540" fromJunction="J3" toJunction="J6" end="600" vehsPerHour="7.423654430727416" departLane="free"/>
  <flow id="JF325206" begin="540" fromJunction="J3" toJunction="J7" end="600" vehsPerHour="3.3478114176327898" departLane="free"/>
  <flow id="JF325207" begin="540" fromJunction="J5" toJunction="J4" end="600" vehsPerHour="2.634020154791474" departLane="free"/>
  <flow id="JF325208" begin="540" fromJunction="J5" toJunction="J6" end="600" vehsPerHour="14.375887764179131" departLane="free"/>
  <flow id="JF325209" begin="540" fromJunction="J5" toJunction="J7" end="600" vehsPerHour="11.585145342022814" departLane="free"/>
  <flow id="JF325210" begin="540" fromJunction="J4" toJunction="J5" end="600" vehsPerHour="5.07858918399621" departLane="free"/>
  <flow id="JF325211" begin="540" fromJunction="J4" toJunction="J6" end="600" vehsPerHour="31.2685639197848" departLane="free"/>
  <flow id="JF325212" begin="540" fromJunction="J4" toJunction="J7" end="600" vehsPerHour="24.648841330556788" departLane="free"/>
  <flow id="JF325213" begin="540" fromJunction="J6" toJunction="J5" end="600" vehsPerHour="56.36504920321379" departLane="free"/>
  <flow id="JF325214" begin="540" fromJunction="J6" toJunction="J4" end="600" vehsPerHour="38.69364768137812" departLane="free"/>
  <flow id="JF325215" begin="540" fromJunction="J6" toJunction="J7" end="600" vehsPerHour="23.602071623136847" departLane="free"/>
  <flow id="JF325216" begin="540" fromJunction="J7" toJunction="J5" end="600" vehsPerHour="29.32495196163008" departLane="free"/>
  <flow id="JF325217" begin="540" fromJunction="J7" toJunction="J4" end="600" vehsPerHour="37.52229838637404" departLane="free"/>
  <flow id="JF325218" begin="540" fromJunction="J7" toJunction="J6" end="600" vehsPerHour="2.03557209374498" departLane="free"/>
  <flow id="JF325219" begin="540" fromJunction="J5" toJunction="J0" end="600" vehsPerHour="47.399653441136806" departLane="free"/>
  <flow id="JF325220" begin="540" fromJunction="J5" toJunction="J3" end="600" vehsPerHour="2.7289261601447583" departLane="free"/>
  <flow id="JF325221" begin="540" fromJunction="J4" toJunction="J0" end="600" vehsPerHour="68.57287990554907" departLane="free"/>
  <flow id="JF325222" begin="540" fromJunction="J4" toJunction="J3" end="600" vehsPerHour="11.277165480125172" departLane="free"/>
  <flow id="JF325223" begin="540" fromJunction="J6" toJunction="J0" end="600" vehsPerHour="54.80973709070341" departLane="free"/>
  <flow id="JF325224" begin="540" fromJunction="J6" toJunction="J3" end="600" vehsPerHour="1.2706936358421914" departLane="free"/>
  <flow id="JF325225" begin="540" fromJunction="J7" toJunction="J0" end="600" vehsPerHour="18.829554447399588" departLane="free"/>
  <flow id="JF325226" begin="540" fromJunction="J7" toJunction="J3" end="600" vehsPerHour="5.450984365887896" departLane="free"/>
  <flow id="JF325227" begin="600" fromJunction="J0" toJunction="J3" end="660" vehsPerHour="213.84893195650716" departLane="free"/>
  <flow id="JF325228" begin="600" fromJunction="J3" toJunction="J0" end="660" vehsPerHour="14.630636030786746" departLane="free"/>
  <flow id="JF325229" begin="600" fromJunction="J0" toJunction="J5" end="660" vehsPerHour="73.49735758729621" departLane="free"/>
  <flow id="JF325230" begin="600" fromJunction="J0" toJunction="J4" end="660" vehsPerHour="42.97420101396846" departLane="free"/>
  <flow id="JF325231" begin="600" fromJunction="J0" toJunction="J6" end="660" vehsPerHour="119.19730410438152" departLane="free"/>
  <flow id="JF325232" begin="600" fromJunction="J0" toJunction="J7" end="660" vehsPerHour="10.98911056466357" departLane="free"/>
  <flow id="JF325233" begin="600" fromJunction="J3" toJunction="J5" end="660" vehsPerHour="53.54244392833706" departLane="free"/>
  <flow id="JF325234" begin="600" fromJunction="J3" toJunction="J4" end="660" vehsPerHour="68.37596680100873" departLane="free"/>
  <flow id="JF325235" begin="600" fromJunction="J3" toJunction="J6" end="660" vehsPerHour="91.1406690063829" departLane="free"/>