<?xml version="1.0" encoding="UTF-8"?>
<routes xmlns:xsi="http://www.w3.org/2001/XMLSchema-instance" xsi:noNamespaceSchemaLocation="http://sumo.dlr.de/xsd/routes_file.xsd">
  <flow id="JF6180" begin="0" fromJunction="J0" toJunction="J3" end="60" vehsPerHour="40.765233101101714" departLane="free"/>
  <flow id="JF6181" begin="0" fromJunction="J3" toJunction="J0" end="60" vehsPerHour="65.35113644632966" departLane="free"/>
  <flow id="JF6182" begin="0" fromJunction="J0" toJunction="J5" end="60" vehsPerHour="77.76871363805773" departLane="free"/>
  <flow id="JF6183" begin="0" fromJunction="J0" toJunction="J4" end="60" vehsPerHour="10.922186915001657" departLane="free"/>
  <flow id="JF6184" begin="0" fromJunction="J0" toJunction="J7" end="60" vehsPerHour="75.91000862400912" departLane="free"/>
  <flow id="JF6185" begin="0" fromJunction="J0" toJunction="J6" end="60" vehsPerHour="72.39088175518323" departLane="free"/>
  <flow id="JF6186" begin="0" fromJunction="J3" toJunction="J5" end="60" vehsPerHour="56.269899954478305" departLane="free"/>
  <flow id="JF6187" begin="0" fromJunction="J3" toJunction="J4" end="60" vehsPerHour="88.81411583299071" departLane="free"/>
  <flow id="JF6188" begin="0" fromJunction="J3" toJunction="J7" end="60" vehsPerHour="55.502886942317396" departLane="free"/>
  <flow id="JF6189" begin="0" fromJunction="J3" toJunction="J6" end="60" vehsPerHour="5.564683759663725" departLane="free"/>
  <flow id="JF6190" begin="0" fromJunction="J5" toJunction="J4" end="60" vehsPerHour="11.68081919074771" departLane="free"/>
  <flow id="JF6191" begin="0" fromJunction="J5" toJunction="J7" end="60" vehsPerHour="59.785686848225346" departLane="free"/>
  <flow id="JF6192" begin="0" fromJunction="J5" toJunction="J6" end="60" vehsPerHour="2.648728625873014" departLane="free"/>
  <flow id="JF6193" begin="0" fromJunction="J4" toJunction="J5" end="60" vehsPerHour="46.7566694374353" departLane="free"/>
  <flow id="JF6194" begin="0" fromJunction="J4" toJunction="J7" end="60" vehsPerHour="61.835632599865924" departLane="free"/>
  <flow id="JF6195" begin="0" fromJunction="J4" toJunction="J6" end="60" vehsPerHour="60.87637148302544" departLane="free"/>
  <flow id="JF6196" begin="0" fromJunction="J7" toJunction="J5" end="60" vehsPerHour="37.12167717922331" departLane="free"/>
  <flow id="JF6197" begin="0" fromJunction="J7" toJunction="J4" end="60" vehsPerHour="8.073657575484207" departLane="free"/>
  <flow id="JF6198" begin="0" fromJunction="J7" toJunction="J6" end="60" vehsPerHour="6.788285227540977" departLane="free"/>
  <flow id="JF6199" begin="0" fromJunction="J6" toJunction="J5" end="60" vehsPerHour="1.949775173906935" departLane="free"/>
  <flow id="JF6200" begin="0" fromJunction="J6" toJunction="J4" end="60" vehsPerHour="47.39150541214803" departLane="free"/>
  <flow id="JF6201" begin="0" fromJunction="J6" toJunction="J7" end="60" vehsPerHour="18.33526058184293" departLane="free"/>
  <flow id="JF6202" begin="0" fromJunction="J5" toJunction="J0" end="60" vehsPerHour="51.48270059270425" departLane="free"/>
  <flow id="JF6203" begin="0" fromJunction="J5" toJunction="J3" end="60" vehsPerHour="7.863366749993471" departLane="free"/>
  <flow id="JF6204" begin="0" fromJunction="J4" toJunction="J0" end="60" vehsPerHour="52.4430809949297" departLane="free"/>
  <flow id="JF6205" begin="0" fromJunction="J4" toJunction="J3" end="60" vehsPerHour="39.86884394129241" departLane="free"/>
  <flow id="JF6206" begin="0" fromJunction="J7" toJunction="J0" end="60" vehsPerHour="31.554656695746615" departLane="free"/>
  <flow id="JF6207" begin="0" fromJunction="J7" toJunction="J3" end="60" vehsPerHour="45.479761272993905" departLane="free"/>
  <flow id="JF6208" begin="0" fromJunction="J6" toJunction="J0" end="60" vehsPerHour="22.064887233069477" departLane="free"/>
  <flow id="JF6209" begin="0" fromJunction="J6" toJunction="J3" end="60" vehsPerHour="5.811826875786477" departLane="free"/>
  <flow id="JF6210" begin="60" fromJunction="J0" toJunction="J3" end="120" vehsPerHour="80.67871153946844" departLane="free"/>
  <flow id="JF6211" begin="60" fromJunction="J3" toJunction="J0" end="120" vehsPerHour="42.4313714699428" departLane="free"/>
  <flow id="JF6212" begin="60" fromJunction="J0" toJunction="J5" end="120" vehsPerHour="7.009478395650114" departLane="free"/>
  <flow id="JF6213" begin="60" fromJunction="J0" toJunction="J4" end="120" vehsPerHour="41.113832235216286" departLane="free"/>
  <flow id="JF6214" begin="60" fromJunction="J0" toJunction="J7" end="120" vehsPerHour="60.549413160822354" departLane="free"/>
  <flow id="JF6215" begin="60" fromJunction="J0" toJunction="J6" end="120" vehsPerHour="131.76026282965324" departLane="free"/>
  <flow id="JF6216" begin="60" fromJunction="J3" toJunction="J5" end="120" vehsPerHour="1.8770987986237773" departLane="free"/>
  <flow id="JF6217" begin="60" fromJunction="J3" toJunction="J4" end="120" vehsPerHour="59.22641208787035" departLane="free"/>
  <flow id="JF6218" begin="60" fromJunction="J3" toJunction="J7" end="120" vehsPerHour="109.79932316119799" departLane="free"/>
  <flow id="JF6219" begin="60" fromJunction="J3" toJunction="J6" end="120" vehsPerHour="3.8472094646021193" departLane="free"/>
  <flow id="JF6220" begin="60" fromJunction="J5" toJunction="J4" end="120" vehsPerHour="65.22126487819634" departLane="free"/>
  <flow id="JF6221" begin="60" fromJunction="J5" toJunction="J7" end="120" vehsPerHour="15.14546369409502" departLane="free"/>
  <flow id="JF6222" begin="60" fromJunction="J5" toJunction="J6" end="120" vehsPerHour="26.331026669180293" departLane="free"/>
  <flow id="JF6223" begin="60" fromJunction="J4" toJunction="J5" end="120" vehsPerHour="12.274112309976136" departLane="free"/>
  <flow id="JF6224" begin="60" fromJunction="J4" toJunction="J7" end="120" vehsPerHour="20.46735599810664" departLane="free"/>
  <flow id="JF6225" begin="60" fromJunction="J4" toJunction="J6" end="120" vehsPerHour="39.86872129633533" departLane="free"/>
  <flow id="JF6226" begin="60" fromJunction="J7" toJunction="J5" end="120" vehsPerHour="55.04554965978799" departLane="free"/>
  <flow id="JF6227" begin="60" fromJunction="J7" toJunction="J4" end="120" vehsPerHour="1.0772077246040228" departLane="free"/>
  <flow id="JF6228" begin="60" fromJunction="J7" toJunction="J6" end="120" vehsPerHour="35.663918205838456" departLane="free"/>
  <flow id="JF6229" begin="60" fromJunction="J6" toJunction="J5" end="120" vehsPerHour="63.75008395516907" departLane="free"/>
  <flow id="JF6230" begin="60" fromJunction="J6" toJunction="J4" end="120" vehsPerHour="6.070244323665726" departLane="free"/>
  <flow id="JF6231" begin="60" fromJunction="J6" toJunction="J7" end="120" vehsPerHour="24.26973902620223" departLane="free"/>
  <flow id="JF6232" begin="60" fromJunction="J5" toJunction="J0" end="120" vehsPerHour="47.03041126105315" departLane="free"/>
  <flow id="JF6233" begin="60" fromJunction="J5" toJunction="J3" end="120" vehsPerHour="19.235635957824663" departLane="free"/>
  <flow id="JF6234" begin="60" fromJunction="J4" toJunction="J0" end="120" vehsPerHour="49.814065715766496" departLane="free"/>
  <flow id="JF6235" begin="60" fromJunction="J4" toJunction="J3" end="120" vehsPerHour="19.929199611981907" departLane="free"/>
  <flow id="JF6236" begin="60" fromJunction="J7" toJunction="J0" end="120" vehsPerHour="36.865040102261496" departLane="free"/>
  <flow id="JF6237" begin="60" fromJunction="J7" toJunction="J3" end="120" vehsPerHour="65.02173463221153" departLane="free"/>
  <flow id="JF6238" begin="60" fromJunction="J6" toJunction="J0" end="120" vehsPerHour="6.3576343477345025" departLane="free"/>
  <flow id="JF6239" begin="60" fromJunction="J6" toJunction="J3" end="120" vehsPerHour="23.766852554134374" departLane="free"/>
  <flow id="JF6240" begin="120" fromJunction="J0" toJunction="J3" end="180" vehsPerHour="84.11914425008109" departLane="free"/>
  <flow id="JF6241" begin="120" fromJunction="J3" toJunction="J0" end="180" vehsPerHour="24.074465819551047" departLane="free"/>
  <flow id="JF6242" begin="120" fromJunction="J0" toJunction="J5" end="180" vehsPerHour="56.23258587048377" departLane="free"/>
  <flow id="JF6243" begin="120" fromJunction="J0" toJunction="J4" end="180" vehsPerHour="53.04298293375499" departLane="free"/>
  <flow id="JF6244" begin="120" fromJunction="J0" toJunction="J7" end="180" vehsPerHour="60.78360784014506" departLane="free"/>
  <flow id="JF6245" begin="120" fromJunction="J0" toJunction="J6" end="180" vehsPerHour="118.51933760193126" departLane="free"/>
  <flow id="JF6246" begin="120" fromJunction="J3" toJunction="J5" end="180" vehsPerHour="23.806758040327615" departLane="free"/>
  <flow id="JF6247" begin="120" fromJunction="J3" toJunction="J4" end="180" vehsPerHour="56.434210530519024" departLane="free"/>
  <flow id="JF6248" begin="120" fromJunction="J3" toJunction="J7" end="180" vehsPerHour="28.000966843879393" departLane="free"/>
  <flow id="JF6249" begin="120" fromJunction="J3" toJunction="J6" end="180" vehsPerHour="49.307071076423405" departLane="free"/>
  <flow id="JF6250" begin="180" fromJunction="J0" toJunction="J3" end="240" vehsPerHour="95.28172225019217" departLane="free"/>
  <flow id="JF6251" begin="180" fromJunction="J3" toJunction="J0" end="240" vehsPerHour="121.55681566309059" departLane="free"/>
  <flow id="JF6252" begin="180" fromJunction="J0" toJunction="J5" end="240" vehsPerHour="136.47926788605204" departLane="free"/>
  <flow id="JF6253" begin="180" fromJunction="J0" toJunction="J4" end="240" vehsPerHour="9.338853282866687" departLane="free"/>
  <flow id="JF6254" begin="180" fromJunction="J0" toJunction="J7" end="240" vehsPerHour="102.87950632482017" departLane="free"/>
  <flow id="JF6255" begin="180" fromJunction="J0" toJunction="J6" end="240" vehsPerHour="108.84401480493064" departLane="free"/>
  <flow id="JF6256" begin="180" fromJunction="J3" toJunction="J5" end="240" vehsPerHour="56.05338283040526" departLane="free"/>
  <flow id="JF6257" begin="180" fromJunction="J3" toJunction="J4" end="240" vehsPerHour="47.32723695015804" departLane="free"/>
  <flow id="JF6258" begin="180" fromJunction="J3" toJunction="J7" end="240" vehsPerHour="20.05888018564584" departLane="free"/>
  <flow id="JF6259" begin="180" fromJunction="J3" toJunction="J6" end="240" vehsPerHour="27.95017373818895" departLane="free"/>
  <flow id="JF6260" begin="240" fromJunction="J0" toJunction="J3" end="300" vehsPerHour="122.89477267552063" departLane="free"/>
  <flow id="JF6261" begin="240" fromJunction="J3" toJunction="J0" end="300" vehsPerHour="126.73754859671189" departLane="free"/>
  <flow id="JF6262" begin="240" fromJunction="J0" toJunction="J5" end="300" vehsPerHour="61.77706503192656" departLane="free"/>
  <flow id="JF6263" begin="240" fromJunction="J0" toJunction="J4" end="300" vehsPerHour="106.46459775217123" departLane="free"/>
  <flow id="JF6264" begin="240" fromJunction="J0" toJunction="J7" end="300" vehsPerHour="115.61652709150808" departLane="free"/>
  <flow id="JF6265" begin="240" fromJunction="J0" toJunction="J6" end="300" vehsPerHour="0.5838572595365211" departLane="free"/>
  <flow id="JF6266" begin="240" fromJunction="J3" toJunction="J5" end="300" vehsPerHour="63.392893998928706" departLane="free"/>
  <flow id="JF6267" begin="240" fromJunction="J3" toJunction="J4" end="300" vehsPerHour="55.87003943697979" departLane="free"/>
  <flow id="JF6268" begin="240" fromJunction="J3" toJunction="J7" end="300" vehsPerHour="22.14237039370645" departLane="free"/>
  <flow id="JF6269" begin="240" fromJunction="J3" toJunction="J6" end="300" vehsPerHour="132.00193883475944" departLane="free"/>
  <flow id="JF6270" begin="240" fromJunction="J5" toJunction="J4" end="300" vehsPerHour="39.91698651680953" departLane="free"/>
  <flow id="JF6271" begin="240" fromJunction="J5" toJunction="J7" end="300" vehsPerHour="17.450622341478514" departLane="free"/>
  <flow id="JF6272" begin="240" fromJunction="J5" toJunction="J6" end="300" vehsPerHour="0.8958058830273463" departLane="free"/>
  <flow id="JF6273" begin="240" fromJunction="J4" toJunction="J5" end="300" vehsPerHour="37.07945221634253" departLane="free"/>
  <flow id="JF6274" begin="240" fromJunction="J4" toJunction="J7" end="300" vehsPerHour="58.52430276558066" departLane="free"/>
  <flow id="JF6275" begin="240" fromJunction="J4" toJunction="J6" end="300" vehsPerHour="43.13890757243527" departLane="free"/>
  <flow id="JF6276" begin="240" fromJunction="J7" toJunction="J5" end="300" vehsPerHour="30.151784212012483" departLane="free"/>
  <flow id="JF6277" begin="240" fromJunction="J7" toJunction="J4" end="300" vehsPerHour="4.624503270912459" departLane="free"/>
  <flow id="JF6278" begin="240" fromJunction="J7" toJunction="J6" end="300" vehsPerHour="6.765408905727026" departLane="free"/>
  <flow id="JF6279" begin="240" fromJunction="J6" toJunction="J5" end="300" vehsPerHour="68.26141631904275" departLane="free"/>
  <flow id="JF6280" begin="240" fromJunction="J6" toJunction="J4" end="300" vehsPerHour="36.08992583216097" departLane="free"/>
  <flow id="JF6281" begin="240" fromJunction="J6" toJunction="J7" end="300" vehsPerHour="31.354162533771277" departLane="free"/>
  <flow id="JF6282" begin="240" fromJunction="J5" toJunction="J0" end="300" vehsPerHour="17.491364067215716" departLane="free"/>
  <flow id="JF6283" begin="240" fromJunction="J5" toJunction="J3" end="300" vehsPerHour="11.616076947362187" departLane="free"/>
  <flow id="JF6284" begin="240" fromJunction="J4" toJunction="J0" end="300" vehsPerHour="4.9034181954114775" departLane="free"/>
  <flow id="JF6285" begin="240" fromJunction="J4" toJunction="J3" end="300" vehsPerHour="29.54895552299316" departLane="free"/>
  <flow id="JF6286" begin="240" fromJunction="J7" toJunction="J0" end="300" vehsPerHour="29.276425947377533" departLane="free"/>
  <flow id="JF6287" begin="240" fromJunction="J7" toJunction="J3" end="300" vehsPerHour="62.67206647356949" departLane="free"/>
  <flow id="JF6288" begin="240" fromJunction="J6" toJunction="J0" end="300" vehsPerHour="56.26910569649383" departLane="free"/>
  <flow id="JF6289" begin="240" fromJunction="J6" toJunction="J3" end="300" vehsPerHour="35.46138161492146" departLane="free"/>
  <flow id="JF6290" begin="300" fromJunction="J0" toJunction="J3" end="360" vehsPerHour="107.53382882768953" departLane="free"/>
  <flow id="JF6291" begin="300" fromJunction="J3" toJunction="J0" end="360" vehsPerHour="122.93416425879853" departLane="free"/>
  <flow id="JF6292" begin="300" fromJunction="J0" toJunction="J5" end="360" vehsPerHour="46.82068088470234" departLane="free"/>
  <flow id="JF6293" begin="300" fromJunction="J0" toJunction="J4" end="360" vehsPerHour="47.81014500928579" departLane="free"/>
  <flow id="JF6294" begin="300" fromJunction="J0" toJunction="J7" end="360" vehsPerHour="96.88680791118016" departLane="free"/>
  <flow id="JF6295" begin="300" fromJunction="J0" toJunction="J6" end="360" vehsPerHour="37.26038823713019" departLane="free"/>
  <flow id="JF6296" begin="300" fromJunction="J3" toJunction="J5" end="360" vehsPerHour="64.88826779796165" departLane="free"/>
  <flow id="JF6297" begin="300" fromJunction="J3" toJunction="J4" end="360" vehsPerHour="22.769040204111857" departLane="free"/>
  <flow id="JF6298" begin="300" fromJunction="J3" toJunction="J7" end="360" vehsPerHour="50.164160011635076" departLane="free"/>
  <flow id="JF6299" begin="300" fromJunction="J3" toJunction="J6" end="360" vehsPerHour="36.466958161969806" departLane="free"/>
  <flow id="JF6300" begin="300" fromJunction="J5" toJunction="J4" end="360" vehsPerHour="8.195624262396965" departLane="free"/>
  <flow id="JF6301" begin="300" fromJunction="J5" toJunction="J7" end="360" vehsPerHour="3.0473015180420773" departLane="free"/>
  <flow id="JF6302" begin="300" fromJunction="J5" toJunction="J6" end="360" vehsPerHour="40.34950626694241" departLane="free"/>
  <flow id="JF6303" begin="300" fromJunction="J4" toJunction="J5" end="360" vehsPerHour="30.92472895840466" departLane="free"/>
  <flow id="JF6304" begin="300" fromJunction="J4" toJunction="J7" end="360" vehsPerHour="45.44691400567448" departLane="free"/>
  <flow id="JF6305" begin="300" fromJunction="J4" toJunction="J6" end="360" vehsPerHour="42.457716150205464" departLane="free"/>
  <flow id="JF6306" begin="300" fromJunction="J7" toJunction="J5" end="360" vehsPerHour="21.347222474880148" departLane="free"/>
  <flow id="JF6307" begin="300" fromJunction="J7" toJunction="J4" end="360" vehsPerHour="11.650792338130396" departLane="free"/>
  <flow id="JF6308" begin="300" fromJunction="J7" toJunction="J6" end="360" vehsPerHour="16.065219082667475" departLane="free"/>
  <flow id="JF6309" begin="300" fromJunction="J6" toJunction="J5" end="360" vehsPerHour="41.60593656354225" departLane="free"/>
  <flow id="JF6310" begin="300" fromJunction="J6" toJunction="J4" end="360" vehsPerHour="41.76735119146006" departLane="free"/>
  <flow id="JF6311" begin="300" fromJunction="J6" toJunction="J7" end="360" vehsPerHour="19.886415990843982" departLane="free"/>
  <flow id="JF6312" begin="300" fromJunction="J5" toJunction="J0" end="360" vehsPerHour="44.49594977138076" departLane="free"/>
  <flow id="JF6313" begin="300" fromJunction="J5" toJunction="J3" end="360" vehsPerHour="1.1428326752195501" departLane="free"/>
  <flow id="JF6314" begin="300" fromJunction="J4" toJunction="J0" end="360" vehsPerHour="50.7907069435988" departLane="free"/>
  <flow id="JF6315" begin="300" fromJunction="J4" toJunction="J3" end="360" vehsPerHour="3.853950890364859" departLane="free"/>
  <flow id="JF6316" begin="300" fromJunction="J7" toJunction="J0" end="360" vehsPerHour="2.770964052306702" departLane="free"/>
  <flow id="JF6317" begin="300" fromJunction="J7" toJunction="J3" end="360" vehsPerHour="68.07056443043436" departLane="free"/>
  <flow id="JF6318" begin="300" fromJunction="J6" toJunction="J0" end="360" vehsPerHour="57.20402853055077" departLane="free"/>
  <flow id="JF6319" begin="300" fromJunction="J6" toJunction="J3" end="360" vehsPerHour="3.950361437803205" departLane="free"/>
  <flow id="JF6320" begin="360" fromJunction="J0" toJunction="J3" end="420" vehsPerHour="6.186999314237661" departLane="free"/>
  <flow id="JF6321" begin="360" fromJunction="J3" toJunction="J0" end="420" vehsPerHour="34.281483738988555" departLane="free"/>
  <flow id="JF6322" begin="360" fromJunction="J0" toJunction="J5" end="420" vehsPerHour="56.794791987654946" departLane="free"/>
  <flow id="JF6323" begin="360" fromJunction="J0" toJunction="J4" end="420" vehsPerHour="48.51011709754784" departLane="free"/>
  <flow id="JF6324" begin="360" fromJunction="J0" toJunction="J7" end="420" vehsPerHour="114.34537194735286" departLane="free"/>
  <flow id="JF6325" begin="360" fromJunction="J0" toJunction="J6" end="420" vehsPerHour="15.641960920532936" departLane="free"/>
  <flow id="JF6326" begin="360" fromJunction="J3" toJunction="J5" end="420" vehsPerHour="130.83478117135544" departLane="free"/>
  <flow id="JF6327" begin="360" fromJunction="J3" toJunction="J4" end="420" vehsPerHour="50.09311319425832" departLane="free"/>
  <flow id="JF6328" begin="360" fromJunction="J3" toJunction="J7" end="420" vehsPerHour="100.20956869192926" departLane="free"/>
  <flow id="JF6329" begin="360" fromJunction="J3" toJunction="J6" end="420" vehsPerHour="118.9551348275126" departLane="free"/>
  <flow id="JF6330" begin="420" fromJunction="J0" toJunction="J3" end="480" vehsPerHour="37.59057650659641" departLane="free"/>
  <flow id="JF6331" begin="420" fromJunction="J3" toJunction="J0" end="480" vehsPerHour="121.99989885309346" departLane="free"/>
  <flow id="JF6332" begin="420" fromJunction="J0" toJunction="J5" end="480" vehsPerHour="74.62700174406037" departLane="free"/>
  <flow id="JF6333" begin="420" fromJunction="J0" toJunction="J4" end="480" vehsPerHour="21.69002463910794" departLane="free"/>
  <flow id="JF6334" begin="420" fromJunction="J0" toJunction="J7" end="480" vehsPerHour="63.698693191009" departLane="free"/>
  <flow id="JF6335" begin="420" fromJunction="J0" toJunction="J6" end="480" vehsPerHour="64.32966107223258" departLane="free"/>
  <flow id="JF6336" begin="420" fromJunction="J3" toJunction="J5" end="480" vehsPerHour="115.13932829910723" departLane="free"/>
  <flow id="JF6337" begin="420" fromJunction="J3" toJunction="J4" end="480" vehsPerHour="13.437361761372156" departLane="free"/>
  <flow id="JF6338" begin="420" fromJunction="J3" toJunction="J7" end="480" vehsPerHour="89.57039755571783" departLane="free"/>
  <flow id="JF6339" begin="420" fromJunction="J3" toJunction="J6" end="480" vehsPerHour="7.850922875485924" departLane="free"/>
  <flow id="JF6340" begin="420" fromJunction="J5" toJunction="J4" end="480" vehsPerHour="33.672911712318964" departLane="free"/>
  <flow id="JF6341" begin="420" fromJunction="J5" toJunction="J7" end="480" vehsPerHour="54.489349218841745" departLane="free"/>
  <flow id="JF6342" begin="420" fromJunction="J5" toJunction="J6" end="480" vehsPerHour="60.72065190780598" departLane="free"/>
  <flow id="JF6343" begin="420" fromJunction="J4" toJunction="J5" end="480" vehsPerHour="15.779683816129431" departLane="free"/>
  <flow id="JF6344" begin="420" fromJunction="J4" toJunction="J7" end="480" vehsPerHour="55.72371867187559" departLane="free"/>
  <flow id="JF6345" begin="420" fromJunction="J4" toJunction="J6" end="480" vehsPerHour="67.75071171642031" departLane="free"/>
  <flow id="JF6346" begin="420" fromJunction="J7" toJunction="J5" end="480" vehsPerHour="33.11491500723949" departLane="free"/>
  <flow id="JF6347" begin="420" fromJunction="J7" toJunction="J4" end="480" vehsPerHour="7.299845342084296" departLane="free"/>
  <flow id="JF6348" begin="420" fromJunction="J7" toJunction="J6" end="480" vehsPerHour="8.890155774227015" departLane="free"/>
  <flow id="JF6349" begin="420" fromJunction="J6" toJunction="J5" end="480" vehsPerHour="5.6002182329405725" departLane="free"/>
  <flow id="JF6350" begin="420" fromJunction="J6" toJunction="J4" end="480" vehsPerHour="47.36417730278381" departLane="free"/>
  <flow id="JF6351" begin="420" fromJunction="J6" toJunction="J7" end="480" vehsPerHour="9.105583447153938" departLane="free"/>
  <flow id="JF6352" begin="420" fromJunction="J5" toJunction="J0" end="480" vehsPerHour="31.162643780076873" departLane="free"/>
  <flow id="JF6353" begin="420" fromJunction="J5" toJunction="J3" end="480" vehsPerHour="38.09290579412786" departLane="free"/>
  <flow id="JF6354" begin="420" fromJunction="J4" toJunction="J0" end="480" vehsPerHour="67.62344995058648" departLane="free"/>
  <flow id="JF6355" begin="420" fromJunction="J4" toJunction="J3" end="480" vehsPerHour="20.41562930549375" departLane="free"/>
  <flow id="JF6356" begin="420" fromJunction="J7" toJunction="J0" end="480" vehsPerHour="43.34238867706102" departLane="free"/>
  <flow id="JF6357" begin="420" fromJunction="J7" toJunction="J3" end="480" vehsPerHour="52.04170799813828" departLane="free"/>
  <flow id="JF6358" begin="420" fromJunction="J6" toJunction="J0" end="480" vehsPerHour="62.20351355812816" departLane="free"/>
  <flow id="JF6359" begin="420" fromJunction="J6" toJunction="J3" end="480" vehsPerHour="61.44324358666931" departLane="free"/>
  <flow id="JF6360" begin="480" fromJunction="J0" toJunction="J3" end="540" vehsPerHour="116.18389680111673" departLane="free"/>
  <flow id="JF6361" begin="480" fromJunction="J3" toJunction="J0" end="540" vehsPerHour="128.89698594272778" departLane="free"/>
  <flow id="JF6362" begin="480" fromJunction="J0" toJunction="J5" end="540" vehsPerHour="84.35672470494333" departLane="free"/>
  <flow id="JF6363" begin="480" fromJunction="J0" toJunction="J4" end="540" vehsPerHour="135.61738595353486" departLane="free"/>
  <flow id="JF6364" begin="480" fromJunction="J0" toJunction="J7" end="540" vehsPerHour="38.07591422846959" departLane="free"/>
  <flow id="JF6365" begin="480" fromJunction="J0" toJunction="J6" end="540" vehsPerHour="10.641556152391994" departLane="free"/>
  <flow id="JF6366" begin="480" fromJunction="J3" toJunction="J5" end="540" vehsPerHour="89.92049314742724" departLane="free"/>
  <flow id="JF6367" begin="480" fromJunction="J3" toJunction="J4" end="540" vehsPerHour="92.58010856437946" departLane="free"/>
  <flow id="JF6368" begin="480" fromJunction="J3" toJunction="J7" end="540" vehsPerHour="115.52753715018682" departLane="free"/>
  <flow id="JF6369" begin="480" fromJunction="J3" toJunction="J6" end="540" vehsPerHour="81.65404893613118" departLane="free"/>
  <flow id="JF6370" begin="480" fromJunction="J5" toJunction="J4" end="540" vehsPerHour="17.08547208778205" departLane="free"/>
  <flow id="JF6371" begin="480" fromJunction="J5" toJunction="J7" end="540" vehsPerHour="20.487648398220855" departLane="free"/>
  <flow id="JF6372" begin="480" fromJunction="J5" toJunction="J6" end="540" vehsPerHour="6.97693972156686" departLane="free"/>
  <flow id="JF6373" begin="480" fromJunction="J4" toJunction="J5" end="540" vehsPerHour="48.976071136936405" departLane="free"/>
  <flow id="JF6374" begin="480" fromJunction="J4" toJunction="J7" end="540" vehsPerHour="65.27739654611605" departLane="free"/>
  <flow id="JF6375" begin="480" fromJunction="J4" toJunction="J6" end="540" vehsPerHour="44.453741977125205" departLane="free"/>
  <flow id="JF6376" begin="480" fromJunction="J7" toJunction="J5" end="540" vehsPerHour="35.693105096803166" departLane="free"/>
  <flow id="JF6377" begin="480" fromJunction="J7" toJunction="J4" end="540" vehsPerHour="21.312291602510662" departLane="free"/>
  <flow id="JF6378" begin="480" fromJunction="J7" toJunction="J6" end="540" vehsPerHour="62.09927318443725" departLane="free"/>
  <flow id="JF6379" begin="480" fromJunction="J6" toJunction="J5" end="540" vehsPerHour="17.557347390621974" departLane="free"/>
  <flow id="JF6380" begin="480" fromJunction="J6" toJunction="J4" end="540" vehsPerHour="56.4755603723669" departLane="free"/>
  <flow id="JF6381" begin="480" fromJunction="J6" toJunction="J7" end="540" vehsPerHour="27.653481617878384" departLane="free"/>
  <flow id="JF6382" begin="480" fromJunction="J5" toJunction="J0" end="540" vehsPerHour="51.71450882393172" departLane="free"/>
  <flow id="JF6383" begin="480" fromJunction="J5" toJunction="J3" end="540" vehsPerHour="42.496815785022704" departLane="free"/>
  <flow id="JF6384" begin="480" fromJunction="J4" toJunction="J0" end="540" vehsPerHour="18.855673730431448" departLane="free"/>
  <flow id="JF6385" begin="480" fromJunction="J4" toJunction="J3" end="540" vehsPerHour="34.78761960438105" departLane="free"/>
  <flow id="JF6386" begin="480" fromJunction="J7" toJunction="J0" end="540" vehsPerHour="51.2581806146209" departLane="free"/>
  <flow id="JF6387" begin="480" fromJunction="J7" toJunction="J3" end="540" vehsPerHour="2.252807708919468" departLane="free"/>
  <flow id="JF6388" begin="480" fromJunction="J6" toJunction="J0" end="540" vehsPerHour="7.888047324130956" departLane="free"/>
  <flow id="JF6389" begin="480" fromJunction="J6" toJunction="J3" end="540" vehsPerHour="29.887228517584596" departLane="free"/>
  <flow id="JF6390" begin="540" fromJunction="J0" toJunction="J3" end="600" vehsPerHour="54.85117893108402" departLane="free"/>
  <flow id="JF6391" begin="540" fromJunction="J3" toJunction="J0" end="600" vehsPerHour="79.61712308777687" departLane="free"/>
  <flow id="JF6392" begin="540" fromJunction="J0" toJunction="J5" end="600" vehsPerHour="92.95265261958917" departLane="free"/>
  <flow id="JF6393" begin="540" fromJunction="J0" toJunction="J4" end="600" vehsPerHour="13.929747247394888" departLane="free"/>
  <flow id="JF6394" begin="540" fromJunction="J0" toJunction="J7" end="600" vehsPerHour="15.523886012555392" departLane="free"/>
  <flow id="JF6395" begin="540" fromJunction="J0" toJunction="J6" end="600" vehsPerHour="94.05979123103435" departLane="free"/>
  <flow id="JF6396" begin="540" fromJunction="J3" toJunction="J5" end="600" vehsPerHour="24.27252034845751" departLane="free"/>
  <flow id="JF6397" begin="540" fromJunction="J3" toJunction="J4" end="600" vehsPerHour="62.927876053483686" departLane="free"/>
  <flow id="JF6398" begin="540" fromJunction="J3" toJunction="J7" end="600" vehsPerHour="78.5324683955217" departLane="free"/>
  <flow id="JF6399" begin="540" fromJunction="J3" toJunction="J6" end="600" vehsPerHour="104.46012462136679" departLane="free"/>
  <flow id="JF6400" begin="540" fromJunction="J5" toJunction="J4" end="600" vehsPerHour="32.12892679963093" departLane="free"/>
  <flow id="JF6401" begin="540" fromJunction="J5" toJunction="J7" end="600" vehsPerHour="47.919243491879456" departLane="free"/>
  <flow id="JF6402" begin="540" fromJunction="J5" toJunction="J6" end="600" vehsPerHour="21.118736347602017" departLane="free"/>
  <flow id="JF6403" begin="540" fromJunction="J4" toJunction="J5" end="600" vehsPerHour="6.569471621991318" departLane="free"/>
  <flow id="JF6404" begin="540" fromJunction="J4" toJunction="J7" end="600" vehsPerHour="58.98394452415268" departLane="free"/>
  <flow id="JF6405" begin="540" fromJunction="J4" toJunction="J6" end="600" vehsPerHour="8.845617832643308" departLane="free"/>
  <flow id="JF6406" begin="540" fromJunction="J7" toJunction="J5" end="600" vehsPerHour="11.73272067649643" departLane="free"/>
  <flow id="JF6407" begin="540" fromJunction="J7" toJunction="J4" end="600" vehsPerHour="37.26291265095355" departLane="free"/>
  <flow id="JF6408" begin="540" fromJunction="J7" toJunction="J6" end="600" vehsPerHour="50.18471149077985" departLane="free"/>
  <flow id="JF6409" begin="540" fromJunction="J6" toJunction="J5" end="600" vehsPerHour="34.5509602602162" departLane="free"/>
  <flow id="JF6410" begin="540" fromJunction="J6" toJunction="J4" end="600" vehsPerHour="38.544386863886366" departLane="free"/>
  <flow id="JF6411" begin="540" fromJunction="J6" toJunction="J7" end="600" vehsPerHour="11.466120036977358" departLane="free"/>
  <flow id="JF6412" begin="540" fromJunction="J5" toJunction="J0" end="600" vehsPerHour="33.29186544149851" departLane="free"/>