<?xml version="1.0" encoding="UTF-8"?>
<routes xmlns:xsi="http://www.w3.org/2001/XMLSchema-instance" xsi:noNamespaceSchemaLocation="http://sumo.dlr.de/xsd/routes_file.xsd">
  <flow id="JF120" begin="0" fromJunction="J0" toJunction="J2" end="1000" vehsPerHour="183.2"/>
  <flow id="JF121" begin="0" fromJunction="J0" toJunction="J3" end="1000" vehsPerHour="183.2"/>
  <flow id="JF122" begin="0" fromJunction="J0" toJunction="J4" end="1000" vehsPerHour="183.2"/>
  <flow id="JF123" begin="0" fromJunction="J2" toJunction="J0" end="1000" vehsPerHour="1832.0"/>
  <flow id="JF124" begin="0" fromJunction="J2" toJunction="J3" end="1000" vehsPerHour="458.0"/>
  <flow id="JF125" begin="0" fromJunction="J2" toJunction="J4" end="1000" vehsPerHour="458.0"/>
  <flow id="JF126" begin="0" fromJunction="J3" toJunction="J2" end="1000" vehsPerHour="1221.3333333333335"/>
  <flow id="JF127" begin="0" fromJunction="J3" toJunction="J4" end="1000" vehsPerHour="1221.3333333333335"/>
  <flow id="JF128" begin="0" fromJunction="J3" toJunction="J0" end="1000" vehsPerHour="305.33333333333337"/>
  <flow id="JF129" begin="0" fromJunction="J4" toJunction="J0" end="1000" vehsPerHour="183.2"/>
  <flow id="JF130" begin="0" fromJunction="J4" toJunction="J2" end="1000" vehsPerHour="183.2"/>
  <flow id="JF131" begin="0" fromJunction="J4" toJunction="J3" end="1000" vehsPerHour="183.2"/>
  <flow id="JF132" begin="1000" fromJunction="J0" toJunction="J2" end="2000" vehsPerHour="183.2"/>
  <flow id="JF133" begin="1000" fromJunction="J0" toJunction="J3" end="2000" vehsPerHour="183.2"/>
  <flow id="JF134" begin="1000" fromJunction="J0" toJunction="J4" end="2000" vehsPerHour="183.2"/>
  <flow id="JF135" begin="1000" fromJunction="J2" toJunction="J0" end="2000" vehsPerHour="1832.0"/>
  <flow id="JF136" begin="1000" fromJunction="J2" toJunction="J3" end="2000" vehsPerHour="458.0"/>
  <flow id="JF137" begin="1000" fromJunction="J2" toJunction="J4" end="2000" vehsPerHour="458.0"/>
  <flow id="JF138" begin="1000" fromJunction="J3" toJunction="J4" end="2000" vehsPerHour="1832.0"/>
  <flow id="JF139" begin="1000" fromJunction="J3" toJunction="J0" end="2000" vehsPerHour="458.0"/>
  <flow id="JF140" begin="1000" fromJunction="J3" toJunction="J2" end="2000" vehsPerHour="458.0"/>
  <flow id="JF141" begin="1000" fromJunction="J4" toJunction="J2" end="2000" vehsPerHour="1832.0"/>
  <flow id="JF142" begin="1000" fromJunction="J4" toJunction="J0" end="2000" vehsPerHour="458.0"/>
  <flow id="JF143" begin="1000" fromJunction="J4" toJunction="J3" end="2000" vehsPerHour="458.0"/>
  <flow id="JF144" begin="2000" fromJunction="J0" toJunction="J3" end="3000" vehsPerHour="1832.0"/>
  <flow id="JF145" begin="2000" fromJunction="J0" toJunction="J2" end="3000" vehsPerHour="458.0"/>
  <flow id="JF146" begin="2000" fromJunction="J0" toJunction="J4" end="3000" vehsPerHour="458.0"/>
  <flow id="JF147" begin="2000" fromJunction="J2" toJunction="J0" end="3000" vehsPerHour="183.2"/>
  <flow id="JF148" begin="2000" fromJunction="J2" toJunction="J3" end="3000" vehsPerHour="183.2"/>
  <flow id="JF149" begin="2000" fromJunction="J2" toJunction="J4" end="3000" vehsPerHour="183.2"/>
  <flow id="JF150" begin="2000" fromJunction="J3" toJunction="J2" end="3000" vehsPerHour="1832.0"/>
  <flow id="JF151" begin="2000" fromJunction="J3" toJunction="J0" end="3000" vehsPerHour="458.0"/>
  <flow id="JF152" begin="2000" fromJunction="J3" toJunction="J4" end="3000" vehsPerHour="458.0"/>
  <flow id="JF153" begin="2000" fromJunction="J4" toJunction="J2" end="3000" vehsPerHour="1832.0"/>
  <flow id="JF154" begin="2000" fromJunction="J4" toJunction="J0" end="3000" vehsPerHour="458.0"/>
  <flow id="JF155" begin="2000" fromJunction="J4" toJunction="J3" end="3000" vehsPerHour="458.0"/>
  <flow id="JF156" begin="3000" fromJunction="J0" toJunction="J2" end="4000" vehsPerHour="183.2"/>
  <flow id="JF157" begin="3000" fromJunction="J0" toJunction="J3" end="4000" vehsPerHour="183.2"/>
  <flow id="JF158" begin="3000" fromJunction="J0" toJunction="J4" end="4000" vehsPerHour="183.2"/>
  <flow id="JF159" begin="3000" fromJunction="J2" toJunction="J4" end="4000" vehsPerHour="1832.0"/>
  <flow id="JF160" begin="3000" fromJunction="J2" toJunction="J0" end="4000" vehsPerHour="458.0"/>
  <flow id="JF161" begin="3000" fromJunction="J2" toJunction="J3" end="4000" vehsPerHour="458.0"/>
  <flow id="JF162" begin="3000" fromJunction="J3" toJunction="J0" end="4000" vehsPerHour="183.2"/>
  <flow id="JF163" begin="3000" fromJunction="J3" toJunction="J2" end="4000" vehsPerHour="183.2"/>
  <flow id="JF164" begin="3000" fromJunction="J3" toJunction="J4" end="4000" vehsPerHour="183.2"/>
  <flow id="JF165" begin="3000" fromJunction="J4" toJunction="J3" end="4000" vehsPerHour="1221.3333333333335"/>
  <flow id="JF166" begin="3000" fromJunction="J4" toJunction="J0" end="4000" vehsPerHour="1221.3333333333335"/>
  <flow id="JF167" begin="3000" fromJunction="J4" toJunction="J2" end="4000" vehsPerHour="305.33333333333337"/>
  <flow id="JF168" begin="4000" fromJunction="J0" toJunction="J4" end="5000" vehsPerHour="1832.0"/>
  <flow id="JF169" begin="4000" fromJunction="J0" toJunction="J2" end="5000" vehsPerHour="458.0"/>
  <flow id="JF170" begin="4000" fromJunction="J0" toJunction="J3" end="5000" vehsPerHour="458.0"/>
  <flow id="JF171" begin="4000" fromJunction="J2" toJunction="J0" end="5000" vehsPerHour="1832.0"/>
  <flow id="JF172" begin="4000" fromJunction="J2" toJunction="J3" end="5000" vehsPerHour="458.0"/>
  <flow id="JF173" begin="4000" fromJunction="J2" toJunction="J4" end="5000" vehsPerHour="458.0"/>
  <flow id="JF174" begin="4000" fromJunction="J3" toJunction="J0" end="5000" vehsPerHour="183.2"/>
  <flow id="JF175" begin="4000" fromJunction="J3" toJunction="J2" end="5000" vehsPerHour="183.2"/>
  <flow id="JF176" begin="4000" fromJunction="J3" toJunction="J4" end="5000" vehsPerHour="183.2"/>
  <flow id="JF177" begin="4000" fromJunction="J4" toJunction="J0" end="5000" vehsPerHour="1832.0"/>
  <flow id="JF178" begin="4000" fromJunction="J4" toJunction="J2" end="5000" vehsPerHour="458.0"/>
  <flow id="JF179" begin="4000" fromJunction="J4" toJunction="J3" end="5000" vehsPerHour="458.0"/>
  <flow id="JF180" begin="5000" fromJunction="J0" toJunction="J2" end="6000" vehsPerHour="183.2"/>
  <flow id="JF181" begin="5000" fromJunction="J0" toJunction="J3" end="6000" vehsPerHour="183.2"/>
  <flow id="JF182" begin="5000" fromJunction="J0" toJunction="J4" end="6000" vehsPerHour="183.2"/>
  <flow id="JF183" begin="5000" fromJunction="J2" toJunction="J4" end="6000" vehsPerHour="1832.0"/>
  <flow id="JF184" begin="5000" fromJunction="J2" toJunction="J0" end="6000" vehsPerHour="458.0"/>
  <flow id="JF185" begin="5000" fromJunction="J2" toJunction="J3" end="6000" vehsPerHour="458.0"/>
  <flow id="JF186" begin="5000" fromJunction="J3" toJunction="J0" end="6000" vehsPerHour="1832.0"/>
  <flow id="JF187" begin="5000" fromJunction="J3" toJunction="J2" end="6000" vehsPerHour="458.0"/>
  <flow id="JF188" begin="5000" fromJunction="J3" toJunction="J4" end="6000" vehsPerHour="458.0"/>
  <flow id="JF189" begin="5000" fromJunction="J4" toJunction="J3" end="6000" vehsPerHour="1832.0"/>
  <flow id="JF190" begin="5000" fromJunction="J4" toJunction="J0" end="6000" vehsPerHour="458.0"/>
  <flow id="JF191" begin="5000" fromJunction="J4" toJunction="J2" end="6000" vehsPerHour="458.0"/>
  <flow id="JF192" begin="6000" fromJunction="J0" toJunction="J2" end="7000" vehsPerHour="1832.0"/>
  <flow id="JF193" begin="6000" fromJunction="J0" toJunction="J3" end="7000" vehsPerHour="458.0"/>
  <flow id="JF194" begin="6000" fromJunction="J0" toJunction="J4" end="7000" vehsPerHour="458.0"/>
  <flow id="JF195" begin="6000" fromJunction="J2" toJunction="J0" end="7000" vehsPerHour="183.2"/>
  <flow id="JF196" begin="6000" fromJunction="J2" toJunction="J3" end="7000" vehsPerHour="183.2"/>
  <flow id="JF197" begin="6000" fromJunction="J2" toJunction="J4" end="7000" vehsPerHour="183.2"/>
  <flow id="JF198" begin="6000" fromJunction="J3" toJunction="J0" end="7000" vehsPerHour="1221.3333333333335"/>
  <flow id="JF199" begin="6000" fromJunction="J3" toJunction="J2" end="7000" vehsPerHour="1221.3333333333335"/>
  <flow id="JF200" begin="6000" fromJunction="J3" toJunction="J4" end="7000" vehsPerHour="305.33333333333337"/>
  <flow id="JF201" begin="6000" fromJunction="J4" toJunction="J0" end="7000" vehsPerHour="183.2"/>
  <flow id="JF202" begin="6000" fromJunction="J4" toJunction="J2" end="7000" vehsPerHour="183.2"/>
  <flow id="JF203" begin="6000" fromJunction="J4" toJunction="J3" end="7000" vehsPerHour="183.2"/>
  <flow id="JF204" begin="7000" fromJunction="J0" toJunction="J4" end="8000" vehsPerHour="1832.0"/>
  <flow id="JF205" begin="7000" fromJunction="J0" toJunction="J2" end="8000" vehsPerHour="458.0"/>
  <flow id="JF206" begin="7000" fromJunction="J0" toJunction="J3" end="8000" vehsPerHour="458.0"/>
  <flow id="JF207" begin="7000" fromJunction="J2" toJunction="J4" end="8000" vehsPerHour="1832.0"/>
  <flow id="JF208" begin="7000" fromJunction="J2" toJunction="J0" end="8000" vehsPerHour="458.0"/>
  <flow id="JF209" begin="7000" fromJunction="J2" toJunction="J3" end="8000" vehsPerHour="458.0"/>
  <flow id="JF210" begin="7000" fromJunction="J3" toJunction="J0" end="8000" vehsPerHour="183.2"/>
  <flow id="JF211" begin="7000" fromJunction="J3" toJunction="J2" end="8000" vehsPerHour="183.2"/>
  <flow id="JF212" begin="7000" fromJunction="J3" toJunction="J4" end="8000" vehsPerHour="183.2"/>
  <flow id="JF213" begin="7000" fromJunction="J4" toJunction="J0" end="8000" vehsPerHour="1832.0"/>
  <flow id="JF214" begin="7000" fromJunction="J4" toJunction="J2" end="8000" vehsPerHour="458.0"/>
  <flow id="JF215" begin="7000" fromJunction="J4" toJunction="J3" end="8000" vehsPerHour="458.0"/>
  <flow id="JF216" begin="8000" fromJunction="J0" toJunction="J2" end="9000" vehsPerHour="183.2"/>
  <flow id="JF217" begin="8000" fromJunction="J0" toJunction="J3" end="9000" vehsPerHour="183.2"/>
  <flow id="JF218" begin="8000" fromJunction="J0" toJunction="J4" end="9000" vehsPerHour="183.2"/>
  <flow id="JF219" begin="8000" fromJunction="J2" toJunction="J4" end="9000" vehsPerHour="1832.0"/>
  <flow id="JF220" begin="8000" fromJunction="J2" toJunction="J0" end="9000" vehsPerHour="458.0"/>
  <flow id="JF221" begin="8000" fromJunction="J2" toJunction="J3" end="9000" vehsPerHour="458.0"/>
  <flow id="JF222" begin="8000" fromJunction="J3" toJunction="J4" end="9000" vehsPerHour="1832.0"/>
  <flow id="JF223" begin="8000" fromJunction="J3" toJunction="J0" end="9000" vehsPerHour="458.0"/>
  <flow id="JF224" begin="8000" fromJunction="J3" toJunction="J2" end="9000" vehsPerHour="458.0"/>
  <flow id="JF225" begin="8000" fromJunction="J4" toJunction="J2" end="9000" vehsPerHour="1832.0"/>
  <flow id="JF226" begin="8000" fromJunction="J4" toJunction="J0" end="9000" vehsPerHour="458.0"/>
  <flow id="JF227" begin="8000" fromJunction="J4" toJunction="J3" end="9000" vehsPerHour="458.0"/>
  <flow id="JF228" begin="9000" fromJunction="J0" toJunction="J4" end="10000" vehsPerHour="916.0"/>
  <flow id="JF229" begin="9000" fromJunction="J0" toJunction="J2" end="10000" vehsPerHour="916.0"/>
  <flow id="JF230" begin="9000" fromJunction="J0" toJunction="J3" end="10000" vehsPerHour="916.0"/>
  <flow id="JF231" begin="9000" fromJunction="J2" toJunction="J0" end="10000" vehsPerHour="183.2"/>
  <flow id="JF232" begin="9000" fromJunction="J2" toJunction="J3" end="10000" vehsPerHour="183.2"/>
  <flow id="JF233" begin="9000" fromJunction="J2" toJunction="J4" end="10000" vehsPerHour="183.2"/>
  <flow id="JF234" begin="9000" fromJunction="J3" toJunction="J0" end="10000" vehsPerHour="183.2"/>
  <flow id="JF235" begin="9000" fromJunction="J3" toJunction="J2" end="10000" vehsPerHour="183.2"/>
  <flow id="JF236" begin="9000" fromJunction="J3" toJunction="J4" end="10000" vehsPerHour="183.2"/>
  <flow id="JF237" begin="9000" fromJunction="J4" toJunction="J0" end="10000" vehsPerHour="183.2"/>
  <flow id="JF238" begin="9000" fromJunction="J4" toJunction="J2" end="10000" vehsPerHour="183.2"/>
  <flow id="JF239" begin="9000" fromJunction="J4" toJunction="J3" end="10000" vehsPerHour="183.2"/>
</routes>