<?xml version="1.0" encoding="UTF-8"?>
<routes xmlns:xsi="http://www.w3.org/2001/XMLSchema-instance" xsi:noNamespaceSchemaLocation="http://sumo.dlr.de/xsd/routes_file.xsd">
  <flow id="JF960" begin="0" fromJunction="J0" toJunction="J3" end="1000" vehsPerHour="1832.0"/>
  <flow id="JF961" begin="0" fromJunction="J0" toJunction="J2" end="1000" vehsPerHour="458.0"/>
  <flow id="JF962" begin="0" fromJunction="J0" toJunction="J4" end="1000" vehsPerHour="458.0"/>
  <flow id="JF963" begin="0" fromJunction="J2" toJunction="J0" end="1000" vehsPerHour="183.2"/>
  <flow id="JF964" begin="0" fromJunction="J2" toJunction="J3" end="1000" vehsPerHour="183.2"/>
  <flow id="JF965" begin="0" fromJunction="J2" toJunction="J4" end="1000" vehsPerHour="183.2"/>
  <flow id="JF966" begin="0" fromJunction="J3" toJunction="J2" end="1000" vehsPerHour="1832.0"/>
  <flow id="JF967" begin="0" fromJunction="J3" toJunction="J0" end="1000" vehsPerHour="458.0"/>
  <flow id="JF968" begin="0" fromJunction="J3" toJunction="J4" end="1000" vehsPerHour="458.0"/>
  <flow id="JF969" begin="0" fromJunction="J4" toJunction="J0" end="1000" vehsPerHour="1832.0"/>
  <flow id="JF970" begin="0" fromJunction="J4" toJunction="J2" end="1000" vehsPerHour="458.0"/>
  <flow id="JF971" begin="0" fromJunction="J4" toJunction="J3" end="1000" vehsPerHour="458.0"/>
  <flow id="JF972" begin="1000" fromJunction="J0" toJunction="J4" end="2000" vehsPerHour="1832.0"/>
  <flow id="JF973" begin="1000" fromJunction="J0" toJunction="J2" end="2000" vehsPerHour="458.0"/>
  <flow id="JF974" begin="1000" fromJunction="J0" toJunction="J3" end="2000" vehsPerHour="458.0"/>
  <flow id="JF975" begin="1000" fromJunction="J2" toJunction="J0" end="2000" vehsPerHour="1832.0"/>
  <flow id="JF976" begin="1000" fromJunction="J2" toJunction="J3" end="2000" vehsPerHour="458.0"/>
  <flow id="JF977" begin="1000" fromJunction="J2" toJunction="J4" end="2000" vehsPerHour="458.0"/>
  <flow id="JF978" begin="1000" fromJunction="J3" toJunction="J4" end="2000" vehsPerHour="1832.0"/>
  <flow id="JF979" begin="1000" fromJunction="J3" toJunction="J0" end="2000" vehsPerHour="458.0"/>
  <flow id="JF980" begin="1000" fromJunction="J3" toJunction="J2" end="2000" vehsPerHour="458.0"/>
  <flow id="JF981" begin="1000" fromJunction="J4" toJunction="J0" end="2000" vehsPerHour="183.2"/>
  <flow id="JF982" begin="1000" fromJunction="J4" toJunction="J2" end="2000" vehsPerHour="183.2"/>
  <flow id="JF983" begin="1000" fromJunction="J4" toJunction="J3" end="2000" vehsPerHour="183.2"/>
  <flow id="JF984" begin="2000" fromJunction="J0" toJunction="J2" end="3000" vehsPerHour="183.2"/>
  <flow id="JF985" begin="2000" fromJunction="J0" toJunction="J3" end="3000" vehsPerHour="183.2"/>
  <flow id="JF986" begin="2000" fromJunction="J0" toJunction="J4" end="3000" vehsPerHour="183.2"/>
  <flow id="JF987" begin="2000" fromJunction="J2" toJunction="J0" end="3000" vehsPerHour="183.2"/>
  <flow id="JF988" begin="2000" fromJunction="J2" toJunction="J3" end="3000" vehsPerHour="183.2"/>
  <flow id="JF989" begin="2000" fromJunction="J2" toJunction="J4" end="3000" vehsPerHour="183.2"/>
  <flow id="JF990" begin="2000" fromJunction="J3" toJunction="J2" end="3000" vehsPerHour="1832.0"/>
  <flow id="JF991" begin="2000" fromJunction="J3" toJunction="J0" end="3000" vehsPerHour="458.0"/>
  <flow id="JF992" begin="2000" fromJunction="J3" toJunction="J4" end="3000" vehsPerHour="458.0"/>
  <flow id="JF993" begin="2000" fromJunction="J4" toJunction="J0" end="3000" vehsPerHour="1221.3333333333335"/>
  <flow id="JF994" begin="2000" fromJunction="J4" toJunction="J3" end="3000" vehsPerHour="1221.3333333333335"/>
  <flow id="JF995" begin="2000" fromJunction="J4" toJunction="J2" end="3000" vehsPerHour="305.33333333333337"/>
  <flow id="JF996" begin="3000" fromJunction="J0" toJunction="J2" end="4000" vehsPerHour="1221.3333333333335"/>
  <flow id="JF997" begin="3000" fromJunction="J0" toJunction="J4" end="4000" vehsPerHour="1221.3333333333335"/>
  <flow id="JF998" begin="3000" fromJunction="J0" toJunction="J3" end="4000" vehsPerHour="305.33333333333337"/>
  <flow id="JF999" begin="3000" fromJunction="J2" toJunction="J0" end="4000" vehsPerHour="183.2"/>
  <flow id="JF1000" begin="3000" fromJunction="J2" toJunction="J3" end="4000" vehsPerHour="183.2"/>
  <flow id="JF1001" begin="3000" fromJunction="J2" toJunction="J4" end="4000" vehsPerHour="183.2"/>
  <flow id="JF1002" begin="3000" fromJunction="J3" toJunction="J0" end="4000" vehsPerHour="1832.0"/>
  <flow id="JF1003" begin="3000" fromJunction="J3" toJunction="J2" end="4000" vehsPerHour="458.0"/>
  <flow id="JF1004" begin="3000" fromJunction="J3" toJunction="J4" end="4000" vehsPerHour="458.0"/>
  <flow id="JF1005" begin="3000" fromJunction="J4" toJunction="J0" end="4000" vehsPerHour="183.2"/>
  <flow id="JF1006" begin="3000" fromJunction="J4" toJunction="J2" end="4000" vehsPerHour="183.2"/>
  <flow id="JF1007" begin="3000" fromJunction="J4" toJunction="J3" end="4000" vehsPerHour="183.2"/>
  <flow id="JF1008" begin="4000" fromJunction="J0" toJunction="J2" end="5000" vehsPerHour="1221.3333333333335"/>
  <flow id="JF1009" begin="4000" fromJunction="J0" toJunction="J4" end="5000" vehsPerHour="1221.3333333333335"/>
  <flow id="JF1010" begin="4000" fromJunction="J0" toJunction="J3" end="5000" vehsPerHour="305.33333333333337"/>
  <flow id="JF1011" begin="4000" fromJunction="J2" toJunction="J3" end="5000" vehsPerHour="1832.0"/>
  <flow id="JF1012" begin="4000" fromJunction="J2" toJunction="J0" end="5000" vehsPerHour="458.0"/>
  <flow id="JF1013" begin="4000" fromJunction="J2" toJunction="J4" end="5000" vehsPerHour="458.0"/>
  <flow id="JF1014" begin="4000" fromJunction="J3" toJunction="J0" end="5000" vehsPerHour="183.2"/>
  <flow id="JF1015" begin="4000" fromJunction="J3" toJunction="J2" end="5000" vehsPerHour="183.2"/>
  <flow id="JF1016" begin="4000" fromJunction="J3" toJunction="J4" end="5000" vehsPerHour="183.2"/>
  <flow id="JF1017" begin="4000" fromJunction="J4" toJunction="J0" end="5000" vehsPerHour="183.2"/>
  <flow id="JF1018" begin="4000" fromJunction="J4" toJunction="J2" end="5000" vehsPerHour="183.2"/>
  <flow id="JF1019" begin="4000" fromJunction="J4" toJunction="J3" end="5000" vehsPerHour="183.2"/>
  <flow id="JF1020" begin="5000" fromJunction="J0" toJunction="J2" end="6000" vehsPerHour="1832.0"/>
  <flow id="JF1021" begin="5000" fromJunction="J0" toJunction="J3" end="6000" vehsPerHour="458.0"/>
  <flow id="JF1022" begin="5000" fromJunction="J0" toJunction="J4" end="6000" vehsPerHour="458.0"/>
  <flow id="JF1023" begin="5000" fromJunction="J2" toJunction="J0" end="6000" vehsPerHour="183.2"/>
  <flow id="JF1024" begin="5000" fromJunction="J2" toJunction="J3" end="6000" vehsPerHour="183.2"/>
  <flow id="JF1025" begin="5000" fromJunction="J2" toJunction="J4" end="6000" vehsPerHour="183.2"/>
  <flow id="JF1026" begin="5000" fromJunction="J3" toJunction="J2" end="6000" vehsPerHour="1832.0"/>
  <flow id="JF1027" begin="5000" fromJunction="J3" toJunction="J0" end="6000" vehsPerHour="458.0"/>
  <flow id="JF1028" begin="5000" fromJunction="J3" toJunction="J4" end="6000" vehsPerHour="458.0"/>
  <flow id="JF1029" begin="5000" fromJunction="J4" toJunction="J0" end="6000" vehsPerHour="1832.0"/>
  <flow id="JF1030" begin="5000" fromJunction="J4" toJunction="J2" end="6000" vehsPerHour="458.0"/>
  <flow id="JF1031" begin="5000" fromJunction="J4" toJunction="J3" end="6000" vehsPerHour="458.0"/>
  <flow id="JF1032" begin="6000" fromJunction="J0" toJunction="J2" end="7000" vehsPerHour="183.2"/>
  <flow id="JF1033" begin="6000" fromJunction="J0" toJunction="J3" end="7000" vehsPerHour="183.2"/>
  <flow id="JF1034" begin="6000" fromJunction="J0" toJunction="J4" end="7000" vehsPerHour="183.2"/>
  <flow id="JF1035" begin="6000" fromJunction="J2" toJunction="J4" end="7000" vehsPerHour="1832.0"/>
  <flow id="JF1036" begin="6000" fromJunction="J2" toJunction="J0" end="7000" vehsPerHour="458.0"/>
  <flow id="JF1037" begin="6000" fromJunction="J2" toJunction="J3" end="7000" vehsPerHour="458.0"/>
  <flow id="JF1038" begin="6000" fromJunction="J3" toJunction="J0" end="7000" vehsPerHour="1221.3333333333335"/>
  <flow id="JF1039" begin="6000" fromJunction="J3" toJunction="J2" end="7000" vehsPerHour="1221.3333333333335"/>
  <flow id="JF1040" begin="6000" fromJunction="J3" toJunction="J4" end="7000" vehsPerHour="305.33333333333337"/>
  <flow id="JF1041" begin="6000" fromJunction="J4" toJunction="J0" end="7000" vehsPerHour="183.2"/>
  <flow id="JF1042" begin="6000" fromJunction="J4" toJunction="J2" end="7000" vehsPerHour="183.2"/>
  <flow id="JF1043" begin="6000" fromJunction="J4" toJunction="J3" end="7000" vehsPerHour="183.2"/>
  <flow id="JF1044" begin="7000" fromJunction="J0" toJunction="J2" end="8000" vehsPerHour="183.2"/>
  <flow id="JF1045" begin="7000" fromJunction="J0" toJunction="J3" end="8000" vehsPerHour="183.2"/>
  <flow id="JF1046" begin="7000" fromJunction="J0" toJunction="J4" end="8000" vehsPerHour="183.2"/>
  <flow id="JF1047" begin="7000" fromJunction="J2" toJunction="J3" end="8000" vehsPerHour="1221.3333333333335"/>
  <flow id="JF1048" begin="7000" fromJunction="J2" toJunction="J4" end="8000" vehsPerHour="1221.3333333333335"/>
  <flow id="JF1049" begin="7000" fromJunction="J2" toJunction="J0" end="8000" vehsPerHour="305.33333333333337"/>
  <flow id="JF1050" begin="7000" fromJunction="J3" toJunction="J2" end="8000" vehsPerHour="1832.0"/>
  <flow id="JF1051" begin="7000" fromJunction="J3" toJunction="J0" end="8000" vehsPerHour="458.0"/>
  <flow id="JF1052" begin="7000" fromJunction="J3" toJunction="J4" end="8000" vehsPerHour="458.0"/>
  <flow id="JF1053" begin="7000" fromJunction="J4" toJunction="J0" end="8000" vehsPerHour="183.2"/>
  <flow id="JF1054" begin="7000" fromJunction="J4" toJunction="J2" end="8000" vehsPerHour="183.2"/>
  <flow id="JF1055" begin="7000" fromJunction="J4" toJunction="J3" end="8000" vehsPerHour="183.2"/>
  <flow id="JF1056" begin="8000" fromJunction="J0" toJunction="J2" end="9000" vehsPerHour="1832.0"/>
  <flow id="JF1057" begin="8000" fromJunction="J0" toJunction="J3" end="9000" vehsPerHour="458.0"/>
  <flow id="JF1058" begin="8000" fromJunction="J0" toJunction="J4" end="9000" vehsPerHour="458.0"/>
  <flow id="JF1059" begin="8000" fromJunction="J2" toJunction="J0" end="9000" vehsPerHour="183.2"/>
  <flow id="JF1060" begin="8000" fromJunction="J2" toJunction="J3" end="9000" vehsPerHour="183.2"/>
  <flow id="JF1061" begin="8000" fromJunction="J2" toJunction="J4" end="9000" vehsPerHour="183.2"/>
  <flow id="JF1062" begin="8000" fromJunction="J3" toJunction="J0" end="9000" vehsPerHour="1221.3333333333335"/>
  <flow id="JF1063" begin="8000" fromJunction="J3" toJunction="J4" end="9000" vehsPerHour="1221.3333333333335"/>
  <flow id="JF1064" begin="8000" fromJunction="J3" toJunction="J2" end="9000" vehsPerHour="305.33333333333337"/>
  <flow id="JF1065" begin="8000" fromJunction="J4" toJunction="J0" end="9000" vehsPerHour="183.2"/>
  <flow id="JF1066" begin="8000" fromJunction="J4" toJunction="J2" end="9000" vehsPerHour="183.2"/>
  <flow id="JF1067" begin="8000" fromJunction="J4" toJunction="J3" end="9000" vehsPerHour="183.2"/>
  <flow id="JF1068" begin="9000" fromJunction="J0" toJunction="J4" end="10000" vehsPerHour="1832.0"/>
  <flow id="JF1069" begin="9000" fromJunction="J0" toJunction="J2" end="10000" vehsPerHour="458.0"/>
  <flow id="JF1070" begin="9000" fromJunction="J0" toJunction="J3" end="10000" vehsPerHour="458.0"/>
  <flow id="JF1071" begin="9000" fromJunction="J2" toJunction="J0" end="10000" vehsPerHour="183.2"/>
  <flow id="JF1072" begin="9000" fromJunction="J2" toJunction="J3" end="10000" vehsPerHour="183.2"/>
  <flow id="JF1073" begin="9000" fromJunction="J2" toJunction="J4" end="10000" vehsPerHour="183.2"/>
  <flow id="JF1074" begin="9000" fromJunction="J3" toJunction="J0" end="10000" vehsPerHour="183.2"/>
  <flow id="JF1075" begin="9000" fromJunction="J3" toJunction="J2" end="10000" vehsPerHour="183.2"/>
  <flow id="JF1076" begin="9000" fromJunction="J3" toJunction="J4" end="10000" vehsPerHour="183.2"/>
  <flow id="JF1077" begin="9000" fromJunction="J4" toJunction="J2" end="10000" vehsPerHour="1221.3333333333335"/>
  <flow id="JF1078" begin="9000" fromJunction="J4" toJunction="J0" end="10000" vehsPerHour="1221.3333333333335"/>
  <flow id="JF1079" begin="9000" fromJunction="J4" toJunction="J3" end="10000" vehsPerHour="305.33333333333337"/>
</routes>