<?xml version="1.0" encoding="UTF-8"?>
<routes xmlns:xsi="http://www.w3.org/2001/XMLSchema-instance" xsi:noNamespaceSchemaLocation="http://sumo.dlr.de/xsd/routes_file.xsd">
  <flow id="JF480" begin="0" fromJunction="J0" toJunction="J2" end="1000" vehsPerHour="183.2"/>
  <flow id="JF481" begin="0" fromJunction="J0" toJunction="J3" end="1000" vehsPerHour="183.2"/>
  <flow id="JF482" begin="0" fromJunction="J0" toJunction="J4" end="1000" vehsPerHour="183.2"/>
  <flow id="JF483" begin="0" fromJunction="J2" toJunction="J4" end="1000" vehsPerHour="1832.0"/>
  <flow id="JF484" begin="0" fromJunction="J2" toJunction="J0" end="1000" vehsPerHour="458.0"/>
  <flow id="JF485" begin="0" fromJunction="J2" toJunction="J3" end="1000" vehsPerHour="458.0"/>
  <flow id="JF486" begin="0" fromJunction="J3" toJunction="J0" end="1000" vehsPerHour="183.2"/>
  <flow id="JF487" begin="0" fromJunction="J3" toJunction="J2" end="1000" vehsPerHour="183.2"/>
  <flow id="JF488" begin="0" fromJunction="J3" toJunction="J4" end="1000" vehsPerHour="183.2"/>
  <flow id="JF489" begin="0" fromJunction="J4" toJunction="J2" end="1000" vehsPerHour="1221.3333333333335"/>
  <flow id="JF490" begin="0" fromJunction="J4" toJunction="J3" end="1000" vehsPerHour="1221.3333333333335"/>
  <flow id="JF491" begin="0" fromJunction="J4" toJunction="J0" end="1000" vehsPerHour="305.33333333333337"/>
  <flow id="JF492" begin="1000" fromJunction="J0" toJunction="J2" end="2000" vehsPerHour="183.2"/>
  <flow id="JF493" begin="1000" fromJunction="J0" toJunction="J3" end="2000" vehsPerHour="183.2"/>
  <flow id="JF494" begin="1000" fromJunction="J0" toJunction="J4" end="2000" vehsPerHour="183.2"/>
  <flow id="JF495" begin="1000" fromJunction="J2" toJunction="J3" end="2000" vehsPerHour="1832.0"/>
  <flow id="JF496" begin="1000" fromJunction="J2" toJunction="J0" end="2000" vehsPerHour="458.0"/>
  <flow id="JF497" begin="1000" fromJunction="J2" toJunction="J4" end="2000" vehsPerHour="458.0"/>
  <flow id="JF498" begin="1000" fromJunction="J3" toJunction="J0" end="2000" vehsPerHour="183.2"/>
  <flow id="JF499" begin="1000" fromJunction="J3" toJunction="J2" end="2000" vehsPerHour="183.2"/>
  <flow id="JF500" begin="1000" fromJunction="J3" toJunction="J4" end="2000" vehsPerHour="183.2"/>
  <flow id="JF501" begin="1000" fromJunction="J4" toJunction="J0" end="2000" vehsPerHour="1221.3333333333335"/>
  <flow id="JF502" begin="1000" fromJunction="J4" toJunction="J2" end="2000" vehsPerHour="1221.3333333333335"/>
  <flow id="JF503" begin="1000" fromJunction="J4" toJunction="J3" end="2000" vehsPerHour="305.33333333333337"/>
  <flow id="JF504" begin="2000" fromJunction="J0" toJunction="J2" end="3000" vehsPerHour="183.2"/>
  <flow id="JF505" begin="2000" fromJunction="J0" toJunction="J3" end="3000" vehsPerHour="183.2"/>
  <flow id="JF506" begin="2000" fromJunction="J0" toJunction="J4" end="3000" vehsPerHour="183.2"/>
  <flow id="JF507" begin="2000" fromJunction="J2" toJunction="J0" end="3000" vehsPerHour="1221.3333333333335"/>
  <flow id="JF508" begin="2000" fromJunction="J2" toJunction="J3" end="3000" vehsPerHour="1221.3333333333335"/>
  <flow id="JF509" begin="2000" fromJunction="J2" toJunction="J4" end="3000" vehsPerHour="305.33333333333337"/>
  <flow id="JF510" begin="2000" fromJunction="J3" toJunction="J0" end="3000" vehsPerHour="183.2"/>
  <flow id="JF511" begin="2000" fromJunction="J3" toJunction="J2" end="3000" vehsPerHour="183.2"/>
  <flow id="JF512" begin="2000" fromJunction="J3" toJunction="J4" end="3000" vehsPerHour="183.2"/>
  <flow id="JF513" begin="2000" fromJunction="J4" toJunction="J0" end="3000" vehsPerHour="1832.0"/>
  <flow id="JF514" begin="2000" fromJunction="J4" toJunction="J2" end="3000" vehsPerHour="458.0"/>
  <flow id="JF515" begin="2000" fromJunction="J4" toJunction="J3" end="3000" vehsPerHour="458.0"/>
  <flow id="JF516" begin="3000" fromJunction="J0" toJunction="J3" end="4000" vehsPerHour="1832.0"/>
  <flow id="JF517" begin="3000" fromJunction="J0" toJunction="J2" end="4000" vehsPerHour="458.0"/>
  <flow id="JF518" begin="3000" fromJunction="J0" toJunction="J4" end="4000" vehsPerHour="458.0"/>
  <flow id="JF519" begin="3000" fromJunction="J2" toJunction="J0" end="4000" vehsPerHour="183.2"/>
  <flow id="JF520" begin="3000" fromJunction="J2" toJunction="J3" end="4000" vehsPerHour="183.2"/>
  <flow id="JF521" begin="3000" fromJunction="J2" toJunction="J4" end="4000" vehsPerHour="183.2"/>
  <flow id="JF522" begin="3000" fromJunction="J3" toJunction="J2" end="4000" vehsPerHour="1832.0"/>
  <flow id="JF523" begin="3000" fromJunction="J3" toJunction="J0" end="4000" vehsPerHour="458.0"/>
  <flow id="JF524" begin="3000" fromJunction="J3" toJunction="J4" end="4000" vehsPerHour="458.0"/>
  <flow id="JF525" begin="3000" fromJunction="J4" toJunction="J3" end="4000" vehsPerHour="1832.0"/>
  <flow id="JF526" begin="3000" fromJunction="J4" toJunction="J0" end="4000" vehsPerHour="458.0"/>
  <flow id="JF527" begin="3000" fromJunction="J4" toJunction="J2" end="4000" vehsPerHour="458.0"/>
  <flow id="JF528" begin="4000" fromJunction="J0" toJunction="J2" end="5000" vehsPerHour="183.2"/>
  <flow id="JF529" begin="4000" fromJunction="J0" toJunction="J3" end="5000" vehsPerHour="183.2"/>
  <flow id="JF530" begin="4000" fromJunction="J0" toJunction="J4" end="5000" vehsPerHour="183.2"/>
  <flow id="JF531" begin="4000" fromJunction="J2" toJunction="J3" end="5000" vehsPerHour="1221.3333333333335"/>
  <flow id="JF532" begin="4000" fromJunction="J2" toJunction="J0" end="5000" vehsPerHour="1221.3333333333335"/>
  <flow id="JF533" begin="4000" fromJunction="J2" toJunction="J4" end="5000" vehsPerHour="305.33333333333337"/>
  <flow id="JF534" begin="4000" fromJunction="J3" toJunction="J2" end="5000" vehsPerHour="1832.0"/>
  <flow id="JF535" begin="4000" fromJunction="J3" toJunction="J0" end="5000" vehsPerHour="458.0"/>
  <flow id="JF536" begin="4000" fromJunction="J3" toJunction="J4" end="5000" vehsPerHour="458.0"/>
  <flow id="JF537" begin="4000" fromJunction="J4" toJunction="J0" end="5000" vehsPerHour="183.2"/>
  <flow id="JF538" begin="4000" fromJunction="J4" toJunction="J2" end="5000" vehsPerHour="183.2"/>
  <flow id="JF539" begin="4000" fromJunction="J4" toJunction="J3" end="5000" vehsPerHour="183.2"/>
  <flow id="JF540" begin="5000" fromJunction="J0" toJunction="J3" end="6000" vehsPerHour="1221.3333333333335"/>
  <flow id="JF541" begin="5000" fromJunction="J0" toJunction="J2" end="6000" vehsPerHour="1221.3333333333335"/>
  <flow id="JF542" begin="5000" fromJunction="J0" toJunction="J4" end="6000" vehsPerHour="305.33333333333337"/>
  <flow id="JF543" begin="5000" fromJunction="J2" toJunction="J0" end="6000" vehsPerHour="183.2"/>
  <flow id="JF544" begin="5000" fromJunction="J2" toJunction="J3" end="6000" vehsPerHour="183.2"/>
  <flow id="JF545" begin="5000" fromJunction="J2" toJunction="J4" end="6000" vehsPerHour="183.2"/>
  <flow id="JF546" begin="5000" fromJunction="J3" toJunction="J2" end="6000" vehsPerHour="1832.0"/>
  <flow id="JF547" begin="5000" fromJunction="J3" toJunction="J0" end="6000" vehsPerHour="458.0"/>
  <flow id="JF548" begin="5000" fromJunction="J3" toJunction="J4" end="6000" vehsPerHour="458.0"/>
  <flow id="JF549" begin="5000" fromJunction="J4" toJunction="J0" end="6000" vehsPerHour="183.2"/>
  <flow id="JF550" begin="5000" fromJunction="J4" toJunction="J2" end="6000" vehsPerHour="183.2"/>
  <flow id="JF551" begin="5000" fromJunction="J4" toJunction="J3" end="6000" vehsPerHour="183.2"/>
  <flow id="JF552" begin="6000" fromJunction="J0" toJunction="J3" end="7000" vehsPerHour="1832.0"/>
  <flow id="JF553" begin="6000" fromJunction="J0" toJunction="J2" end="7000" vehsPerHour="458.0"/>
  <flow id="JF554" begin="6000" fromJunction="J0" toJunction="J4" end="7000" vehsPerHour="458.0"/>
  <flow id="JF555" begin="6000" fromJunction="J2" toJunction="J3" end="7000" vehsPerHour="1832.0"/>
  <flow id="JF556" begin="6000" fromJunction="J2" toJunction="J0" end="7000" vehsPerHour="458.0"/>
  <flow id="JF557" begin="6000" fromJunction="J2" toJunction="J4" end="7000" vehsPerHour="458.0"/>
  <flow id="JF558" begin="6000" fromJunction="J3" toJunction="J2" end="7000" vehsPerHour="1832.0"/>
  <flow id="JF559" begin="6000" fromJunction="J3" toJunction="J0" end="7000" vehsPerHour="458.0"/>
  <flow id="JF560" begin="6000" fromJunction="J3" toJunction="J4" end="7000" vehsPerHour="458.0"/>
  <flow id="JF561" begin="6000" fromJunction="J4" toJunction="J0" end="7000" vehsPerHour="183.2"/>
  <flow id="JF562" begin="6000" fromJunction="J4" toJunction="J2" end="7000" vehsPerHour="183.2"/>
  <flow id="JF563" begin="6000" fromJunction="J4" toJunction="J3" end="7000" vehsPerHour="183.2"/>
  <flow id="JF564" begin="7000" fromJunction="J0" toJunction="J2" end="8000" vehsPerHour="183.2"/>
  <flow id="JF565" begin="7000" fromJunction="J0" toJunction="J3" end="8000" vehsPerHour="183.2"/>
  <flow id="JF566" begin="7000" fromJunction="J0" toJunction="J4" end="8000" vehsPerHour="183.2"/>
  <flow id="JF567" begin="7000" fromJunction="J2" toJunction="J0" end="8000" vehsPerHour="1832.0"/>
  <flow id="JF568" begin="7000" fromJunction="J2" toJunction="J3" end="8000" vehsPerHour="458.0"/>
  <flow id="JF569" begin="7000" fromJunction="J2" toJunction="J4" end="8000" vehsPerHour="458.0"/>
  <flow id="JF570" begin="7000" fromJunction="J3" toJunction="J4" end="8000" vehsPerHour="1832.0"/>
  <flow id="JF571" begin="7000" fromJunction="J3" toJunction="J0" end="8000" vehsPerHour="458.0"/>
  <flow id="JF572" begin="7000" fromJunction="J3" toJunction="J2" end="8000" vehsPerHour="458.0"/>
  <flow id="JF573" begin="7000" fromJunction="J4" toJunction="J2" end="8000" vehsPerHour="1832.0"/>
  <flow id="JF574" begin="7000" fromJunction="J4" toJunction="J0" end="8000" vehsPerHour="458.0"/>
  <flow id="JF575" begin="7000" fromJunction="J4" toJunction="J3" end="8000" vehsPerHour="458.0"/>
  <flow id="JF576" begin="8000" fromJunction="J0" toJunction="J3" end="9000" vehsPerHour="1832.0"/>
  <flow id="JF577" begin="8000" fromJunction="J0" toJunction="J2" end="9000" vehsPerHour="458.0"/>
  <flow id="JF578" begin="8000" fromJunction="J0" toJunction="J4" end="9000" vehsPerHour="458.0"/>
  <flow id="JF579" begin="8000" fromJunction="J2" toJunction="J4" end="9000" vehsPerHour="1832.0"/>
  <flow id="JF580" begin="8000" fromJunction="J2" toJunction="J0" end="9000" vehsPerHour="458.0"/>
  <flow id="JF581" begin="8000" fromJunction="J2" toJunction="J3" end="9000" vehsPerHour="458.0"/>
  <flow id="JF582" begin="8000" fromJunction="J3" toJunction="J0" end="9000" vehsPerHour="183.2"/>
  <flow id="JF583" begin="8000" fromJunction="J3" toJunction="J2" end="9000" vehsPerHour="183.2"/>
  <flow id="JF584" begin="8000" fromJunction="J3" toJunction="J4" end="9000" vehsPerHour="183.2"/>
  <flow id="JF585" begin="8000" fromJunction="J4" toJunction="J3" end="9000" vehsPerHour="1832.0"/>
  <flow id="JF586" begin="8000" fromJunction="J4" toJunction="J0" end="9000" vehsPerHour="458.0"/>
  <flow id="JF587" begin="8000" fromJunction="J4" toJunction="J2" end="9000" vehsPerHour="458.0"/>
  <flow id="JF588" begin="9000" fromJunction="J0" toJunction="J3" end="10000" vehsPerHour="1832.0"/>
  <flow id="JF589" begin="9000" fromJunction="J0" toJunction="J2" end="10000" vehsPerHour="458.0"/>
  <flow id="JF590" begin="9000" fromJunction="J0" toJunction="J4" end="10000" vehsPerHour="458.0"/>
  <flow id="JF591" begin="9000" fromJunction="J2" toJunction="J0" end="10000" vehsPerHour="183.2"/>
  <flow id="JF592" begin="9000" fromJunction="J2" toJunction="J3" end="10000" vehsPerHour="183.2"/>
  <flow id="JF593" begin="9000" fromJunction="J2" toJunction="J4" end="10000" vehsPerHour="183.2"/>
  <flow id="JF594" begin="9000" fromJunction="J3" toJunction="J2" end="10000" vehsPerHour="1832.0"/>
  <flow id="JF595" begin="9000" fromJunction="J3" toJunction="J0" end="10000" vehsPerHour="458.0"/>
  <flow id="JF596" begin="9000" fromJunction="J3" toJunction="J4" end="10000" vehsPerHour="458.0"/>
  <flow id="JF597" begin="9000" fromJunction="J4" toJunction="J2" end="10000" vehsPerHour="1832.0"/>
  <flow id="JF598" begin="9000" fromJunction="J4" toJunction="J0" end="10000" vehsPerHour="458.0"/>
  <flow id="JF599" begin="9000" fromJunction="J4" toJunction="J3" end="10000" vehsPerHour="458.0"/>
</routes>