<?xml version="1.0" encoding="UTF-8"?>
<routes xmlns:xsi="http://www.w3.org/2001/XMLSchema-instance" xsi:noNamespaceSchemaLocation="http://sumo.dlr.de/xsd/routes_file.xsd">
  <flow id="JF720" begin="0" fromJunction="J0" toJunction="J2" end="1000" vehsPerHour="183.2"/>
  <flow id="JF721" begin="0" fromJunction="J0" toJunction="J3" end="1000" vehsPerHour="183.2"/>
  <flow id="JF722" begin="0" fromJunction="J0" toJunction="J4" end="1000" vehsPerHour="183.2"/>
  <flow id="JF723" begin="0" fromJunction="J2" toJunction="J3" end="1000" vehsPerHour="1832.0"/>
  <flow id="JF724" begin="0" fromJunction="J2" toJunction="J0" end="1000" vehsPerHour="458.0"/>
  <flow id="JF725" begin="0" fromJunction="J2" toJunction="J4" end="1000" vehsPerHour="458.0"/>
  <flow id="JF726" begin="0" fromJunction="J3" toJunction="J2" end="1000" vehsPerHour="1832.0"/>
  <flow id="JF727" begin="0" fromJunction="J3" toJunction="J0" end="1000" vehsPerHour="458.0"/>
  <flow id="JF728" begin="0" fromJunction="J3" toJunction="J4" end="1000" vehsPerHour="458.0"/>
  <flow id="JF729" begin="0" fromJunction="J4" toJunction="J3" end="1000" vehsPerHour="1832.0"/>
  <flow id="JF730" begin="0" fromJunction="J4" toJunction="J0" end="1000" vehsPerHour="458.0"/>
  <flow id="JF731" begin="0" fromJunction="J4" toJunction="J2" end="1000" vehsPerHour="458.0"/>
  <flow id="JF732" begin="1000" fromJunction="J0" toJunction="J2" end="2000" vehsPerHour="183.2"/>
  <flow id="JF733" begin="1000" fromJunction="J0" toJunction="J3" end="2000" vehsPerHour="183.2"/>
  <flow id="JF734" begin="1000" fromJunction="J0" toJunction="J4" end="2000" vehsPerHour="183.2"/>
  <flow id="JF735" begin="1000" fromJunction="J2" toJunction="J4" end="2000" vehsPerHour="1832.0"/>
  <flow id="JF736" begin="1000" fromJunction="J2" toJunction="J0" end="2000" vehsPerHour="458.0"/>
  <flow id="JF737" begin="1000" fromJunction="J2" toJunction="J3" end="2000" vehsPerHour="458.0"/>
  <flow id="JF738" begin="1000" fromJunction="J3" toJunction="J4" end="2000" vehsPerHour="1832.0"/>
  <flow id="JF739" begin="1000" fromJunction="J3" toJunction="J0" end="2000" vehsPerHour="458.0"/>
  <flow id="JF740" begin="1000" fromJunction="J3" toJunction="J2" end="2000" vehsPerHour="458.0"/>
  <flow id="JF741" begin="1000" fromJunction="J4" toJunction="J3" end="2000" vehsPerHour="1832.0"/>
  <flow id="JF742" begin="1000" fromJunction="J4" toJunction="J0" end="2000" vehsPerHour="458.0"/>
  <flow id="JF743" begin="1000" fromJunction="J4" toJunction="J2" end="2000" vehsPerHour="458.0"/>
  <flow id="JF744" begin="2000" fromJunction="J0" toJunction="J4" end="3000" vehsPerHour="1221.3333333333335"/>
  <flow id="JF745" begin="2000" fromJunction="J0" toJunction="J3" end="3000" vehsPerHour="1221.3333333333335"/>
  <flow id="JF746" begin="2000" fromJunction="J0" toJunction="J2" end="3000" vehsPerHour="305.33333333333337"/>
  <flow id="JF747" begin="2000" fromJunction="J2" toJunction="J0" end="3000" vehsPerHour="183.2"/>
  <flow id="JF748" begin="2000" fromJunction="J2" toJunction="J3" end="3000" vehsPerHour="183.2"/>
  <flow id="JF749" begin="2000" fromJunction="J2" toJunction="J4" end="3000" vehsPerHour="183.2"/>
  <flow id="JF750" begin="2000" fromJunction="J3" toJunction="J0" end="3000" vehsPerHour="183.2"/>
  <flow id="JF751" begin="2000" fromJunction="J3" toJunction="J2" end="3000" vehsPerHour="183.2"/>
  <flow id="JF752" begin="2000" fromJunction="J3" toJunction="J4" end="3000" vehsPerHour="183.2"/>
  <flow id="JF753" begin="2000" fromJunction="J4" toJunction="J2" end="3000" vehsPerHour="1832.0"/>
  <flow id="JF754" begin="2000" fromJunction="J4" toJunction="J0" end="3000" vehsPerHour="458.0"/>
  <flow id="JF755" begin="2000" fromJunction="J4" toJunction="J3" end="3000" vehsPerHour="458.0"/>
  <flow id="JF756" begin="3000" fromJunction="J0" toJunction="J2" end="4000" vehsPerHour="183.2"/>
  <flow id="JF757" begin="3000" fromJunction="J0" toJunction="J3" end="4000" vehsPerHour="183.2"/>
  <flow id="JF758" begin="3000" fromJunction="J0" toJunction="J4" end="4000" vehsPerHour="183.2"/>
  <flow id="JF759" begin="3000" fromJunction="J2" toJunction="J4" end="4000" vehsPerHour="1221.3333333333335"/>
  <flow id="JF760" begin="3000" fromJunction="J2" toJunction="J3" end="4000" vehsPerHour="1221.3333333333335"/>
  <flow id="JF761" begin="3000" fromJunction="J2" toJunction="J0" end="4000" vehsPerHour="305.33333333333337"/>
  <flow id="JF762" begin="3000" fromJunction="J3" toJunction="J0" end="4000" vehsPerHour="183.2"/>
  <flow id="JF763" begin="3000" fromJunction="J3" toJunction="J2" end="4000" vehsPerHour="183.2"/>
  <flow id="JF764" begin="3000" fromJunction="J3" toJunction="J4" end="4000" vehsPerHour="183.2"/>
  <flow id="JF765" begin="3000" fromJunction="J4" toJunction="J2" end="4000" vehsPerHour="1832.0"/>
  <flow id="JF766" begin="3000" fromJunction="J4" toJunction="J0" end="4000" vehsPerHour="458.0"/>
  <flow id="JF767" begin="3000" fromJunction="J4" toJunction="J3" end="4000" vehsPerHour="458.0"/>
  <flow id="JF768" begin="4000" fromJunction="J0" toJunction="J3" end="5000" vehsPerHour="1832.0"/>
  <flow id="JF769" begin="4000" fromJunction="J0" toJunction="J2" end="5000" vehsPerHour="458.0"/>
  <flow id="JF770" begin="4000" fromJunction="J0" toJunction="J4" end="5000" vehsPerHour="458.0"/>
  <flow id="JF771" begin="4000" fromJunction="J2" toJunction="J3" end="5000" vehsPerHour="1832.0"/>
  <flow id="JF772" begin="4000" fromJunction="J2" toJunction="J0" end="5000" vehsPerHour="458.0"/>
  <flow id="JF773" begin="4000" fromJunction="J2" toJunction="J4" end="5000" vehsPerHour="458.0"/>
  <flow id="JF774" begin="4000" fromJunction="J3" toJunction="J0" end="5000" vehsPerHour="183.2"/>
  <flow id="JF775" begin="4000" fromJunction="J3" toJunction="J2" end="5000" vehsPerHour="183.2"/>
  <flow id="JF776" begin="4000" fromJunction="J3" toJunction="J4" end="5000" vehsPerHour="183.2"/>
  <flow id="JF777" begin="4000" fromJunction="J4" toJunction="J0" end="5000" vehsPerHour="1832.0"/>
  <flow id="JF778" begin="4000" fromJunction="J4" toJunction="J2" end="5000" vehsPerHour="458.0"/>
  <flow id="JF779" begin="4000" fromJunction="J4" toJunction="J3" end="5000" vehsPerHour="458.0"/>
  <flow id="JF780" begin="5000" fromJunction="J0" toJunction="J3" end="6000" vehsPerHour="1832.0"/>
  <flow id="JF781" begin="5000" fromJunction="J0" toJunction="J2" end="6000" vehsPerHour="458.0"/>
  <flow id="JF782" begin="5000" fromJunction="J0" toJunction="J4" end="6000" vehsPerHour="458.0"/>
  <flow id="JF783" begin="5000" fromJunction="J2" toJunction="J4" end="6000" vehsPerHour="1832.0"/>
  <flow id="JF784" begin="5000" fromJunction="J2" toJunction="J0" end="6000" vehsPerHour="458.0"/>
  <flow id="JF785" begin="5000" fromJunction="J2" toJunction="J3" end="6000" vehsPerHour="458.0"/>
  <flow id="JF786" begin="5000" fromJunction="J3" toJunction="J0" end="6000" vehsPerHour="1832.0"/>
  <flow id="JF787" begin="5000" fromJunction="J3" toJunction="J2" end="6000" vehsPerHour="458.0"/>
  <flow id="JF788" begin="5000" fromJunction="J3" toJunction="J4" end="6000" vehsPerHour="458.0"/>
  <flow id="JF789" begin="5000" fromJunction="J4" toJunction="J0" end="6000" vehsPerHour="183.2"/>
  <flow id="JF790" begin="5000" fromJunction="J4" toJunction="J2" end="6000" vehsPerHour="183.2"/>
  <flow id="JF791" begin="5000" fromJunction="J4" toJunction="J3" end="6000" vehsPerHour="183.2"/>
  <flow id="JF792" begin="6000" fromJunction="J0" toJunction="J2" end="7000" vehsPerHour="183.2"/>
  <flow id="JF793" begin="6000" fromJunction="J0" toJunction="J3" end="7000" vehsPerHour="183.2"/>
  <flow id="JF794" begin="6000" fromJunction="J0" toJunction="J4" end="7000" vehsPerHour="183.2"/>
  <flow id="JF795" begin="6000" fromJunction="J2" toJunction="J0" end="7000" vehsPerHour="183.2"/>
  <flow id="JF796" begin="6000" fromJunction="J2" toJunction="J3" end="7000" vehsPerHour="183.2"/>
  <flow id="JF797" begin="6000" fromJunction="J2" toJunction="J4" end="7000" vehsPerHour="183.2"/>
  <flow id="JF798" begin="6000" fromJunction="J3" toJunction="J2" end="7000" vehsPerHour="1832.0"/>
  <flow id="JF799" begin="6000" fromJunction="J3" toJunction="J0" end="7000" vehsPerHour="458.0"/>
  <flow id="JF800" begin="6000" fromJunction="J3" toJunction="J4" end="7000" vehsPerHour="458.0"/>
  <flow id="JF801" begin="6000" fromJunction="J4" toJunction="J3" end="7000" vehsPerHour="1221.3333333333335"/>
  <flow id="JF802" begin="6000" fromJunction="J4" toJunction="J0" end="7000" vehsPerHour="1221.3333333333335"/>
  <flow id="JF803" begin="6000" fromJunction="J4" toJunction="J2" end="7000" vehsPerHour="305.33333333333337"/>
  <flow id="JF804" begin="7000" fromJunction="J0" toJunction="J3" end="8000" vehsPerHour="1832.0"/>
  <flow id="JF805" begin="7000" fromJunction="J0" toJunction="J2" end="8000" vehsPerHour="458.0"/>
  <flow id="JF806" begin="7000" fromJunction="J0" toJunction="J4" end="8000" vehsPerHour="458.0"/>
  <flow id="JF807" begin="7000" fromJunction="J2" toJunction="J0" end="8000" vehsPerHour="183.2"/>
  <flow id="JF808" begin="7000" fromJunction="J2" toJunction="J3" end="8000" vehsPerHour="183.2"/>
  <flow id="JF809" begin="7000" fromJunction="J2" toJunction="J4" end="8000" vehsPerHour="183.2"/>
  <flow id="JF810" begin="7000" fromJunction="J3" toJunction="J0" end="8000" vehsPerHour="183.2"/>
  <flow id="JF811" begin="7000" fromJunction="J3" toJunction="J2" end="8000" vehsPerHour="183.2"/>
  <flow id="JF812" begin="7000" fromJunction="J3" toJunction="J4" end="8000" vehsPerHour="183.2"/>
  <flow id="JF813" begin="7000" fromJunction="J4" toJunction="J2" end="8000" vehsPerHour="1221.3333333333335"/>
  <flow id="JF814" begin="7000" fromJunction="J4" toJunction="J3" end="8000" vehsPerHour="1221.3333333333335"/>
  <flow id="JF815" begin="7000" fromJunction="J4" toJunction="J0" end="8000" vehsPerHour="305.33333333333337"/>
  <flow id="JF816" begin="8000" fromJunction="J0" toJunction="J2" end="9000" vehsPerHour="183.2"/>
  <flow id="JF817" begin="8000" fromJunction="J0" toJunction="J3" end="9000" vehsPerHour="183.2"/>
  <flow id="JF818" begin="8000" fromJunction="J0" toJunction="J4" end="9000" vehsPerHour="183.2"/>
  <flow id="JF819" begin="8000" fromJunction="J2" toJunction="J0" end="9000" vehsPerHour="1832.0"/>
  <flow id="JF820" begin="8000" fromJunction="J2" toJunction="J3" end="9000" vehsPerHour="458.0"/>
  <flow id="JF821" begin="8000" fromJunction="J2" toJunction="J4" end="9000" vehsPerHour="458.0"/>
  <flow id="JF822" begin="8000" fromJunction="J3" toJunction="J4" end="9000" vehsPerHour="1832.0"/>
  <flow id="JF823" begin="8000" fromJunction="J3" toJunction="J0" end="9000" vehsPerHour="458.0"/>
  <flow id="JF824" begin="8000" fromJunction="J3" toJunction="J2" end="9000" vehsPerHour="458.0"/>
  <flow id="JF825" begin="8000" fromJunction="J4" toJunction="J2" end="9000" vehsPerHour="1832.0"/>
  <flow id="JF826" begin="8000" fromJunction="J4" toJunction="J0" end="9000" vehsPerHour="458.0"/>
  <flow id="JF827" begin="8000" fromJunction="J4" toJunction="J3" end="9000" vehsPerHour="458.0"/>
  <flow id="JF828" begin="9000" fromJunction="J0" toJunction="J3" end="10000" vehsPerHour="1832.0"/>
  <flow id="JF829" begin="9000" fromJunction="J0" toJunction="J2" end="10000" vehsPerHour="458.0"/>
  <flow id="JF830" begin="9000" fromJunction="J0" toJunction="J4" end="10000" vehsPerHour="458.0"/>
  <flow id="JF831" begin="9000" fromJunction="J2" toJunction="J0" end="10000" vehsPerHour="183.2"/>
  <flow id="JF832" begin="9000" fromJunction="J2" toJunction="J3" end="10000" vehsPerHour="183.2"/>
  <flow id="JF833" begin="9000" fromJunction="J2" toJunction="J4" end="10000" vehsPerHour="183.2"/>
  <flow id="JF834" begin="9000" fromJunction="J3" toJunction="J0" end="10000" vehsPerHour="183.2"/>
  <flow id="JF835" begin="9000" fromJunction="J3" toJunction="J2" end="10000" vehsPerHour="183.2"/>
  <flow id="JF836" begin="9000" fromJunction="J3" toJunction="J4" end="10000" vehsPerHour="183.2"/>
  <flow id="JF837" begin="9000" fromJunction="J4" toJunction="J0" end="10000" vehsPerHour="1221.3333333333335"/>
  <flow id="JF838" begin="9000" fromJunction="J4" toJunction="J3" end="10000" vehsPerHour="1221.3333333333335"/>
  <flow id="JF839" begin="9000" fromJunction="J4" toJunction="J2" end="10000" vehsPerHour="305.33333333333337"/>
</routes>