<?xml version="1.0" encoding="UTF-8"?>
<routes xmlns:xsi="http://www.w3.org/2001/XMLSchema-instance" xsi:noNamespaceSchemaLocation="http://sumo.dlr.de/xsd/routes_file.xsd">
  <flow id="JF240" begin="0" fromJunction="J0" toJunction="J2" end="1000" vehsPerHour="1832.0"/>
  <flow id="JF241" begin="0" fromJunction="J0" toJunction="J3" end="1000" vehsPerHour="458.0"/>
  <flow id="JF242" begin="0" fromJunction="J0" toJunction="J4" end="1000" vehsPerHour="458.0"/>
  <flow id="JF243" begin="0" fromJunction="J2" toJunction="J0" end="1000" vehsPerHour="183.2"/>
  <flow id="JF244" begin="0" fromJunction="J2" toJunction="J3" end="1000" vehsPerHour="183.2"/>
  <flow id="JF245" begin="0" fromJunction="J2" toJunction="J4" end="1000" vehsPerHour="183.2"/>
  <flow id="JF246" begin="0" fromJunction="J3" toJunction="J2" end="1000" vehsPerHour="1832.0"/>
  <flow id="JF247" begin="0" fromJunction="J3" toJunction="J0" end="1000" vehsPerHour="458.0"/>
  <flow id="JF248" begin="0" fromJunction="J3" toJunction="J4" end="1000" vehsPerHour="458.0"/>
  <flow id="JF249" begin="0" fromJunction="J4" toJunction="J3" end="1000" vehsPerHour="1832.0"/>
  <flow id="JF250" begin="0" fromJunction="J4" toJunction="J0" end="1000" vehsPerHour="458.0"/>
  <flow id="JF251" begin="0" fromJunction="J4" toJunction="J2" end="1000" vehsPerHour="458.0"/>
  <flow id="JF252" begin="1000" fromJunction="J0" toJunction="J4" end="2000" vehsPerHour="1221.3333333333335"/>
  <flow id="JF253" begin="1000" fromJunction="J0" toJunction="J3" end="2000" vehsPerHour="1221.3333333333335"/>
  <flow id="JF254" begin="1000" fromJunction="J0" toJunction="J2" end="2000" vehsPerHour="305.33333333333337"/>
  <flow id="JF255" begin="1000" fromJunction="J2" toJunction="J0" end="2000" vehsPerHour="1832.0"/>
  <flow id="JF256" begin="1000" fromJunction="J2" toJunction="J3" end="2000" vehsPerHour="458.0"/>
  <flow id="JF257" begin="1000" fromJunction="J2" toJunction="J4" end="2000" vehsPerHour="458.0"/>
  <flow id="JF258" begin="1000" fromJunction="J3" toJunction="J0" end="2000" vehsPerHour="183.2"/>
  <flow id="JF259" begin="1000" fromJunction="J3" toJunction="J2" end="2000" vehsPerHour="183.2"/>
  <flow id="JF260" begin="1000" fromJunction="J3" toJunction="J4" end="2000" vehsPerHour="183.2"/>
  <flow id="JF261" begin="1000" fromJunction="J4" toJunction="J0" end="2000" vehsPerHour="183.2"/>
  <flow id="JF262" begin="1000" fromJunction="J4" toJunction="J2" end="2000" vehsPerHour="183.2"/>
  <flow id="JF263" begin="1000" fromJunction="J4" toJunction="J3" end="2000" vehsPerHour="183.2"/>
  <flow id="JF264" begin="2000" fromJunction="J0" toJunction="J3" end="3000" vehsPerHour="1832.0"/>
  <flow id="JF265" begin="2000" fromJunction="J0" toJunction="J2" end="3000" vehsPerHour="458.0"/>
  <flow id="JF266" begin="2000" fromJunction="J0" toJunction="J4" end="3000" vehsPerHour="458.0"/>
  <flow id="JF267" begin="2000" fromJunction="J2" toJunction="J4" end="3000" vehsPerHour="1832.0"/>
  <flow id="JF268" begin="2000" fromJunction="J2" toJunction="J0" end="3000" vehsPerHour="458.0"/>
  <flow id="JF269" begin="2000" fromJunction="J2" toJunction="J3" end="3000" vehsPerHour="458.0"/>
  <flow id="JF270" begin="2000" fromJunction="J3" toJunction="J0" end="3000" vehsPerHour="183.2"/>
  <flow id="JF271" begin="2000" fromJunction="J3" toJunction="J2" end="3000" vehsPerHour="183.2"/>
  <flow id="JF272" begin="2000" fromJunction="J3" toJunction="J4" end="3000" vehsPerHour="183.2"/>
  <flow id="JF273" begin="2000" fromJunction="J4" toJunction="J2" end="3000" vehsPerHour="1832.0"/>
  <flow id="JF274" begin="2000" fromJunction="J4" toJunction="J0" end="3000" vehsPerHour="458.0"/>
  <flow id="JF275" begin="2000" fromJunction="J4" toJunction="J3" end="3000" vehsPerHour="458.0"/>
  <flow id="JF276" begin="3000" fromJunction="J0" toJunction="J4" end="4000" vehsPerHour="1221.3333333333335"/>
  <flow id="JF277" begin="3000" fromJunction="J0" toJunction="J3" end="4000" vehsPerHour="1221.3333333333335"/>
  <flow id="JF278" begin="3000" fromJunction="J0" toJunction="J2" end="4000" vehsPerHour="305.33333333333337"/>
  <flow id="JF279" begin="3000" fromJunction="J2" toJunction="J0" end="4000" vehsPerHour="1832.0"/>
  <flow id="JF280" begin="3000" fromJunction="J2" toJunction="J3" end="4000" vehsPerHour="458.0"/>
  <flow id="JF281" begin="3000" fromJunction="J2" toJunction="J4" end="4000" vehsPerHour="458.0"/>
  <flow id="JF282" begin="3000" fromJunction="J3" toJunction="J0" end="4000" vehsPerHour="183.2"/>
  <flow id="JF283" begin="3000" fromJunction="J3" toJunction="J2" end="4000" vehsPerHour="183.2"/>
  <flow id="JF284" begin="3000" fromJunction="J3" toJunction="J4" end="4000" vehsPerHour="183.2"/>
  <flow id="JF285" begin="3000" fromJunction="J4" toJunction="J0" end="4000" vehsPerHour="183.2"/>
  <flow id="JF286" begin="3000" fromJunction="J4" toJunction="J2" end="4000" vehsPerHour="183.2"/>
  <flow id="JF287" begin="3000" fromJunction="J4" toJunction="J3" end="4000" vehsPerHour="183.2"/>
  <flow id="JF288" begin="4000" fromJunction="J0" toJunction="J3" end="5000" vehsPerHour="1832.0"/>
  <flow id="JF289" begin="4000" fromJunction="J0" toJunction="J2" end="5000" vehsPerHour="458.0"/>
  <flow id="JF290" begin="4000" fromJunction="J0" toJunction="J4" end="5000" vehsPerHour="458.0"/>
  <flow id="JF291" begin="4000" fromJunction="J2" toJunction="J0" end="5000" vehsPerHour="183.2"/>
  <flow id="JF292" begin="4000" fromJunction="J2" toJunction="J3" end="5000" vehsPerHour="183.2"/>
  <flow id="JF293" begin="4000" fromJunction="J2" toJunction="J4" end="5000" vehsPerHour="183.2"/>
  <flow id="JF294" begin="4000" fromJunction="J3" toJunction="J2" end="5000" vehsPerHour="1832.0"/>
  <flow id="JF295" begin="4000" fromJunction="J3" toJunction="J0" end="5000" vehsPerHour="458.0"/>
  <flow id="JF296" begin="4000" fromJunction="J3" toJunction="J4" end="5000" vehsPerHour="458.0"/>
  <flow id="JF297" begin="4000" fromJunction="J4" toJunction="J3" end="5000" vehsPerHour="1832.0"/>
  <flow id="JF298" begin="4000" fromJunction="J4" toJunction="J0" end="5000" vehsPerHour="458.0"/>
  <flow id="JF299" begin="4000" fromJunction="J4" toJunction="J2" end="5000" vehsPerHour="458.0"/>
  <flow id="JF300" begin="5000" fromJunction="J0" toJunction="J2" end="6000" vehsPerHour="183.2"/>
  <flow id="JF301" begin="5000" fromJunction="J0" toJunction="J3" end="6000" vehsPerHour="183.2"/>
  <flow id="JF302" begin="5000" fromJunction="J0" toJunction="J4" end="6000" vehsPerHour="183.2"/>
  <flow id="JF303" begin="5000" fromJunction="J2" toJunction="J3" end="6000" vehsPerHour="1221.3333333333335"/>
  <flow id="JF304" begin="5000" fromJunction="J2" toJunction="J4" end="6000" vehsPerHour="1221.3333333333335"/>
  <flow id="JF305" begin="5000" fromJunction="J2" toJunction="J0" end="6000" vehsPerHour="305.33333333333337"/>
  <flow id="JF306" begin="5000" fromJunction="J3" toJunction="J0" end="6000" vehsPerHour="1832.0"/>
  <flow id="JF307" begin="5000" fromJunction="J3" toJunction="J2" end="6000" vehsPerHour="458.0"/>
  <flow id="JF308" begin="5000" fromJunction="J3" toJunction="J4" end="6000" vehsPerHour="458.0"/>
  <flow id="JF309" begin="5000" fromJunction="J4" toJunction="J0" end="6000" vehsPerHour="183.2"/>
  <flow id="JF310" begin="5000" fromJunction="J4" toJunction="J2" end="6000" vehsPerHour="183.2"/>
  <flow id="JF311" begin="5000" fromJunction="J4" toJunction="J3" end="6000" vehsPerHour="183.2"/>
  <flow id="JF312" begin="6000" fromJunction="J0" toJunction="J3" end="7000" vehsPerHour="1832.0"/>
  <flow id="JF313" begin="6000" fromJunction="J0" toJunction="J2" end="7000" vehsPerHour="458.0"/>
  <flow id="JF314" begin="6000" fromJunction="J0" toJunction="J4" end="7000" vehsPerHour="458.0"/>
  <flow id="JF315" begin="6000" fromJunction="J2" toJunction="J0" end="7000" vehsPerHour="1832.0"/>
  <flow id="JF316" begin="6000" fromJunction="J2" toJunction="J3" end="7000" vehsPerHour="458.0"/>
  <flow id="JF317" begin="6000" fromJunction="J2" toJunction="J4" end="7000" vehsPerHour="458.0"/>
  <flow id="JF318" begin="6000" fromJunction="J3" toJunction="J0" end="7000" vehsPerHour="183.2"/>
  <flow id="JF319" begin="6000" fromJunction="J3" toJunction="J2" end="7000" vehsPerHour="183.2"/>
  <flow id="JF320" begin="6000" fromJunction="J3" toJunction="J4" end="7000" vehsPerHour="183.2"/>
  <flow id="JF321" begin="6000" fromJunction="J4" toJunction="J0" end="7000" vehsPerHour="1832.0"/>
  <flow id="JF322" begin="6000" fromJunction="J4" toJunction="J2" end="7000" vehsPerHour="458.0"/>
  <flow id="JF323" begin="6000" fromJunction="J4" toJunction="J3" end="7000" vehsPerHour="458.0"/>
  <flow id="JF324" begin="7000" fromJunction="J0" toJunction="J2" end="8000" vehsPerHour="183.2"/>
  <flow id="JF325" begin="7000" fromJunction="J0" toJunction="J3" end="8000" vehsPerHour="183.2"/>
  <flow id="JF326" begin="7000" fromJunction="J0" toJunction="J4" end="8000" vehsPerHour="183.2"/>
  <flow id="JF327" begin="7000" fromJunction="J2" toJunction="J0" end="8000" vehsPerHour="183.2"/>
  <flow id="JF328" begin="7000" fromJunction="J2" toJunction="J3" end="8000" vehsPerHour="183.2"/>
  <flow id="JF329" begin="7000" fromJunction="J2" toJunction="J4" end="8000" vehsPerHour="183.2"/>
  <flow id="JF330" begin="7000" fromJunction="J3" toJunction="J4" end="8000" vehsPerHour="1832.0"/>
  <flow id="JF331" begin="7000" fromJunction="J3" toJunction="J0" end="8000" vehsPerHour="458.0"/>
  <flow id="JF332" begin="7000" fromJunction="J3" toJunction="J2" end="8000" vehsPerHour="458.0"/>
  <flow id="JF333" begin="7000" fromJunction="J4" toJunction="J3" end="8000" vehsPerHour="1221.3333333333335"/>
  <flow id="JF334" begin="7000" fromJunction="J4" toJunction="J2" end="8000" vehsPerHour="1221.3333333333335"/>
  <flow id="JF335" begin="7000" fromJunction="J4" toJunction="J0" end="8000" vehsPerHour="305.33333333333337"/>
  <flow id="JF336" begin="8000" fromJunction="J0" toJunction="J2" end="9000" vehsPerHour="183.2"/>
  <flow id="JF337" begin="8000" fromJunction="J0" toJunction="J3" end="9000" vehsPerHour="183.2"/>
  <flow id="JF338" begin="8000" fromJunction="J0" toJunction="J4" end="9000" vehsPerHour="183.2"/>
  <flow id="JF339" begin="8000" fromJunction="J2" toJunction="J4" end="9000" vehsPerHour="1832.0"/>
  <flow id="JF340" begin="8000" fromJunction="J2" toJunction="J0" end="9000" vehsPerHour="458.0"/>
  <flow id="JF341" begin="8000" fromJunction="J2" toJunction="J3" end="9000" vehsPerHour="458.0"/>
  <flow id="JF342" begin="8000" fromJunction="J3" toJunction="J0" end="9000" vehsPerHour="1221.3333333333335"/>
  <flow id="JF343" begin="8000" fromJunction="J3" toJunction="J2" end="9000" vehsPerHour="1221.3333333333335"/>
  <flow id="JF344" begin="8000" fromJunction="J3" toJunction="J4" end="9000" vehsPerHour="305.33333333333337"/>
  <flow id="JF345" begin="8000" fromJunction="J4" toJunction="J0" end="9000" vehsPerHour="183.2"/>
  <flow id="JF346" begin="8000" fromJunction="J4" toJunction="J2" end="9000" vehsPerHour="183.2"/>
  <flow id="JF347" begin="8000" fromJunction="J4" toJunction="J3" end="9000" vehsPerHour="183.2"/>
  <flow id="JF348" begin="9000" fromJunction="J0" toJunction="J4" end="10000" vehsPerHour="1832.0"/>
  <flow id="JF349" begin="9000" fromJunction="J0" toJunction="J2" end="10000" vehsPerHour="458.0"/>
  <flow id="JF350" begin="9000" fromJunction="J0" toJunction="J3" end="10000" vehsPerHour="458.0"/>
  <flow id="JF351" begin="9000" fromJunction="J2" toJunction="J3" end="10000" vehsPerHour="1832.0"/>
  <flow id="JF352" begin="9000" fromJunction="J2" toJunction="J0" end="10000" vehsPerHour="458.0"/>
  <flow id="JF353" begin="9000" fromJunction="J2" toJunction="J4" end="10000" vehsPerHour="458.0"/>
  <flow id="JF354" begin="9000" fromJunction="J3" toJunction="J4" end="10000" vehsPerHour="1832.0"/>
  <flow id="JF355" begin="9000" fromJunction="J3" toJunction="J0" end="10000" vehsPerHour="458.0"/>
  <flow id="JF356" begin="9000" fromJunction="J3" toJunction="J2" end="10000" vehsPerHour="458.0"/>
  <flow id="JF357" begin="9000" fromJunction="J4" toJunction="J0" end="10000" vehsPerHour="183.2"/>
  <flow id="JF358" begin="9000" fromJunction="J4" toJunction="J2" end="10000" vehsPerHour="183.2"/>
  <flow id="JF359" begin="9000" fromJunction="J4" toJunction="J3" end="10000" vehsPerHour="183.2"/>
</routes>