<?xml version="1.0" encoding="UTF-8"?>
<routes xmlns:xsi="http://www.w3.org/2001/XMLSchema-instance" xsi:noNamespaceSchemaLocation="http://sumo.dlr.de/xsd/routes_file.xsd">
  <flow id="JF840" begin="0" fromJunction="J0" toJunction="J2" end="1000" vehsPerHour="183.2"/>
  <flow id="JF841" begin="0" fromJunction="J0" toJunction="J3" end="1000" vehsPerHour="183.2"/>
  <flow id="JF842" begin="0" fromJunction="J0" toJunction="J4" end="1000" vehsPerHour="183.2"/>
  <flow id="JF843" begin="0" fromJunction="J2" toJunction="J0" end="1000" vehsPerHour="183.2"/>
  <flow id="JF844" begin="0" fromJunction="J2" toJunction="J3" end="1000" vehsPerHour="183.2"/>
  <flow id="JF845" begin="0" fromJunction="J2" toJunction="J4" end="1000" vehsPerHour="183.2"/>
  <flow id="JF846" begin="0" fromJunction="J3" toJunction="J0" end="1000" vehsPerHour="1221.3333333333335"/>
  <flow id="JF847" begin="0" fromJunction="J3" toJunction="J4" end="1000" vehsPerHour="1221.3333333333335"/>
  <flow id="JF848" begin="0" fromJunction="J3" toJunction="J2" end="1000" vehsPerHour="305.33333333333337"/>
  <flow id="JF849" begin="0" fromJunction="J4" toJunction="J0" end="1000" vehsPerHour="1832.0"/>
  <flow id="JF850" begin="0" fromJunction="J4" toJunction="J2" end="1000" vehsPerHour="458.0"/>
  <flow id="JF851" begin="0" fromJunction="J4" toJunction="J3" end="1000" vehsPerHour="458.0"/>
  <flow id="JF852" begin="1000" fromJunction="J0" toJunction="J2" end="2000" vehsPerHour="183.2"/>
  <flow id="JF853" begin="1000" fromJunction="J0" toJunction="J3" end="2000" vehsPerHour="183.2"/>
  <flow id="JF854" begin="1000" fromJunction="J0" toJunction="J4" end="2000" vehsPerHour="183.2"/>
  <flow id="JF855" begin="1000" fromJunction="J2" toJunction="J0" end="2000" vehsPerHour="183.2"/>
  <flow id="JF856" begin="1000" fromJunction="J2" toJunction="J3" end="2000" vehsPerHour="183.2"/>
  <flow id="JF857" begin="1000" fromJunction="J2" toJunction="J4" end="2000" vehsPerHour="183.2"/>
  <flow id="JF858" begin="1000" fromJunction="J3" toJunction="J4" end="2000" vehsPerHour="1832.0"/>
  <flow id="JF859" begin="1000" fromJunction="J3" toJunction="J0" end="2000" vehsPerHour="458.0"/>
  <flow id="JF860" begin="1000" fromJunction="J3" toJunction="J2" end="2000" vehsPerHour="458.0"/>
  <flow id="JF861" begin="1000" fromJunction="J4" toJunction="J3" end="2000" vehsPerHour="1221.3333333333335"/>
  <flow id="JF862" begin="1000" fromJunction="J4" toJunction="J2" end="2000" vehsPerHour="1221.3333333333335"/>
  <flow id="JF863" begin="1000" fromJunction="J4" toJunction="J0" end="2000" vehsPerHour="305.33333333333337"/>
  <flow id="JF864" begin="2000" fromJunction="J0" toJunction="J2" end="3000" vehsPerHour="183.2"/>
  <flow id="JF865" begin="2000" fromJunction="J0" toJunction="J3" end="3000" vehsPerHour="183.2"/>
  <flow id="JF866" begin="2000" fromJunction="J0" toJunction="J4" end="3000" vehsPerHour="183.2"/>
  <flow id="JF867" begin="2000" fromJunction="J2" toJunction="J0" end="3000" vehsPerHour="183.2"/>
  <flow id="JF868" begin="2000" fromJunction="J2" toJunction="J3" end="3000" vehsPerHour="183.2"/>
  <flow id="JF869" begin="2000" fromJunction="J2" toJunction="J4" end="3000" vehsPerHour="183.2"/>
  <flow id="JF870" begin="2000" fromJunction="J3" toJunction="J2" end="3000" vehsPerHour="1832.0"/>
  <flow id="JF871" begin="2000" fromJunction="J3" toJunction="J0" end="3000" vehsPerHour="458.0"/>
  <flow id="JF872" begin="2000" fromJunction="J3" toJunction="J4" end="3000" vehsPerHour="458.0"/>
  <flow id="JF873" begin="2000" fromJunction="J4" toJunction="J3" end="3000" vehsPerHour="1221.3333333333335"/>
  <flow id="JF874" begin="2000" fromJunction="J4" toJunction="J0" end="3000" vehsPerHour="1221.3333333333335"/>
  <flow id="JF875" begin="2000" fromJunction="J4" toJunction="J2" end="3000" vehsPerHour="305.33333333333337"/>
  <flow id="JF876" begin="3000" fromJunction="J0" toJunction="J2" end="4000" vehsPerHour="1832.0"/>
  <flow id="JF877" begin="3000" fromJunction="J0" toJunction="J3" end="4000" vehsPerHour="458.0"/>
  <flow id="JF878" begin="3000" fromJunction="J0" toJunction="J4" end="4000" vehsPerHour="458.0"/>
  <flow id="JF879" begin="3000" fromJunction="J2" toJunction="J0" end="4000" vehsPerHour="183.2"/>
  <flow id="JF880" begin="3000" fromJunction="J2" toJunction="J3" end="4000" vehsPerHour="183.2"/>
  <flow id="JF881" begin="3000" fromJunction="J2" toJunction="J4" end="4000" vehsPerHour="183.2"/>
  <flow id="JF882" begin="3000" fromJunction="J3" toJunction="J2" end="4000" vehsPerHour="1832.0"/>
  <flow id="JF883" begin="3000" fromJunction="J3" toJunction="J0" end="4000" vehsPerHour="458.0"/>
  <flow id="JF884" begin="3000" fromJunction="J3" toJunction="J4" end="4000" vehsPerHour="458.0"/>
  <flow id="JF885" begin="3000" fromJunction="J4" toJunction="J0" end="4000" vehsPerHour="1832.0"/>
  <flow id="JF886" begin="3000" fromJunction="J4" toJunction="J2" end="4000" vehsPerHour="458.0"/>
  <flow id="JF887" begin="3000" fromJunction="J4" toJunction="J3" end="4000" vehsPerHour="458.0"/>
  <flow id="JF888" begin="4000" fromJunction="J0" toJunction="J3" end="5000" vehsPerHour="1832.0"/>
  <flow id="JF889" begin="4000" fromJunction="J0" toJunction="J2" end="5000" vehsPerHour="458.0"/>
  <flow id="JF890" begin="4000" fromJunction="J0" toJunction="J4" end="5000" vehsPerHour="458.0"/>
  <flow id="JF891" begin="4000" fromJunction="J2" toJunction="J0" end="5000" vehsPerHour="183.2"/>
  <flow id="JF892" begin="4000" fromJunction="J2" toJunction="J3" end="5000" vehsPerHour="183.2"/>
  <flow id="JF893" begin="4000" fromJunction="J2" toJunction="J4" end="5000" vehsPerHour="183.2"/>
  <flow id="JF894" begin="4000" fromJunction="J3" toJunction="J4" end="5000" vehsPerHour="1832.0"/>
  <flow id="JF895" begin="4000" fromJunction="J3" toJunction="J0" end="5000" vehsPerHour="458.0"/>
  <flow id="JF896" begin="4000" fromJunction="J3" toJunction="J2" end="5000" vehsPerHour="458.0"/>
  <flow id="JF897" begin="4000" fromJunction="J4" toJunction="J2" end="5000" vehsPerHour="1832.0"/>
  <flow id="JF898" begin="4000" fromJunction="J4" toJunction="J0" end="5000" vehsPerHour="458.0"/>
  <flow id="JF899" begin="4000" fromJunction="J4" toJunction="J3" end="5000" vehsPerHour="458.0"/>
  <flow id="JF900" begin="5000" fromJunction="J0" toJunction="J2" end="6000" vehsPerHour="183.2"/>
  <flow id="JF901" begin="5000" fromJunction="J0" toJunction="J3" end="6000" vehsPerHour="183.2"/>
  <flow id="JF902" begin="5000" fromJunction="J0" toJunction="J4" end="6000" vehsPerHour="183.2"/>
  <flow id="JF903" begin="5000" fromJunction="J2" toJunction="J0" end="6000" vehsPerHour="1221.3333333333335"/>
  <flow id="JF904" begin="5000" fromJunction="J2" toJunction="J4" end="6000" vehsPerHour="1221.3333333333335"/>
  <flow id="JF905" begin="5000" fromJunction="J2" toJunction="J3" end="6000" vehsPerHour="305.33333333333337"/>
  <flow id="JF906" begin="5000" fromJunction="J3" toJunction="J0" end="6000" vehsPerHour="183.2"/>
  <flow id="JF907" begin="5000" fromJunction="J3" toJunction="J2" end="6000" vehsPerHour="183.2"/>
  <flow id="JF908" begin="5000" fromJunction="J3" toJunction="J4" end="6000" vehsPerHour="183.2"/>
  <flow id="JF909" begin="5000" fromJunction="J4" toJunction="J3" end="6000" vehsPerHour="1832.0"/>
  <flow id="JF910" begin="5000" fromJunction="J4" toJunction="J0" end="6000" vehsPerHour="458.0"/>
  <flow id="JF911" begin="5000" fromJunction="J4" toJunction="J2" end="6000" vehsPerHour="458.0"/>
  <flow id="JF912" begin="6000" fromJunction="J0" toJunction="J2" end="7000" vehsPerHour="1832.0"/>
  <flow id="JF913" begin="6000" fromJunction="J0" toJunction="J3" end="7000" vehsPerHour="458.0"/>
  <flow id="JF914" begin="6000" fromJunction="J0" toJunction="J4" end="7000" vehsPerHour="458.0"/>
  <flow id="JF915" begin="6000" fromJunction="J2" toJunction="J3" end="7000" vehsPerHour="1832.0"/>
  <flow id="JF916" begin="6000" fromJunction="J2" toJunction="J0" end="7000" vehsPerHour="458.0"/>
  <flow id="JF917" begin="6000" fromJunction="J2" toJunction="J4" end="7000" vehsPerHour="458.0"/>
  <flow id="JF918" begin="6000" fromJunction="J3" toJunction="J0" end="7000" vehsPerHour="1832.0"/>
  <flow id="JF919" begin="6000" fromJunction="J3" toJunction="J2" end="7000" vehsPerHour="458.0"/>
  <flow id="JF920" begin="6000" fromJunction="J3" toJunction="J4" end="7000" vehsPerHour="458.0"/>
  <flow id="JF921" begin="6000" fromJunction="J4" toJunction="J0" end="7000" vehsPerHour="183.2"/>
  <flow id="JF922" begin="6000" fromJunction="J4" toJunction="J2" end="7000" vehsPerHour="183.2"/>
  <flow id="JF923" begin="6000" fromJunction="J4" toJunction="J3" end="7000" vehsPerHour="183.2"/>
  <flow id="JF924" begin="7000" fromJunction="J0" toJunction="J2" end="8000" vehsPerHour="1221.3333333333335"/>
  <flow id="JF925" begin="7000" fromJunction="J0" toJunction="J3" end="8000" vehsPerHour="1221.3333333333335"/>
  <flow id="JF926" begin="7000" fromJunction="J0" toJunction="J4" end="8000" vehsPerHour="305.33333333333337"/>
  <flow id="JF927" begin="7000" fromJunction="J2" toJunction="J4" end="8000" vehsPerHour="1832.0"/>
  <flow id="JF928" begin="7000" fromJunction="J2" toJunction="J0" end="8000" vehsPerHour="458.0"/>
  <flow id="JF929" begin="7000" fromJunction="J2" toJunction="J3" end="8000" vehsPerHour="458.0"/>
  <flow id="JF930" begin="7000" fromJunction="J3" toJunction="J0" end="8000" vehsPerHour="183.2"/>
  <flow id="JF931" begin="7000" fromJunction="J3" toJunction="J2" end="8000" vehsPerHour="183.2"/>
  <flow id="JF932" begin="7000" fromJunction="J3" toJunction="J4" end="8000" vehsPerHour="183.2"/>
  <flow id="JF933" begin="7000" fromJunction="J4" toJunction="J0" end="8000" vehsPerHour="183.2"/>
  <flow id="JF934" begin="7000" fromJunction="J4" toJunction="J2" end="8000" vehsPerHour="183.2"/>
  <flow id="JF935" begin="7000" fromJunction="J4" toJunction="J3" end="8000" vehsPerHour="183.2"/>
  <flow id="JF936" begin="8000" fromJunction="J0" toJunction="J2" end="9000" vehsPerHour="183.2"/>
  <flow id="JF937" begin="8000" fromJunction="J0" toJunction="J3" end="9000" vehsPerHour="183.2"/>
  <flow id="JF938" begin="8000" fromJunction="J0" toJunction="J4" end="9000" vehsPerHour="183.2"/>
  <flow id="JF939" begin="8000" fromJunction="J2" toJunction="J0" end="9000" vehsPerHour="183.2"/>
  <flow id="JF940" begin="8000" fromJunction="J2" toJunction="J3" end="9000" vehsPerHour="183.2"/>
  <flow id="JF941" begin="8000" fromJunction="J2" toJunction="J4" end="9000" vehsPerHour="183.2"/>
  <flow id="JF942" begin="8000" fromJunction="J3" toJunction="J0" end="9000" vehsPerHour="1832.0"/>
  <flow id="JF943" begin="8000" fromJunction="J3" toJunction="J2" end="9000" vehsPerHour="458.0"/>
  <flow id="JF944" begin="8000" fromJunction="J3" toJunction="J4" end="9000" vehsPerHour="458.0"/>
  <flow id="JF945" begin="8000" fromJunction="J4" toJunction="J2" end="9000" vehsPerHour="1221.3333333333335"/>
  <flow id="JF946" begin="8000" fromJunction="J4" toJunction="J3" end="9000" vehsPerHour="1221.3333333333335"/>
  <flow id="JF947" begin="8000" fromJunction="J4" toJunction="J0" end="9000" vehsPerHour="305.33333333333337"/>
  <flow id="JF948" begin="9000" fromJunction="J0" toJunction="J2" end="10000" vehsPerHour="183.2"/>
  <flow id="JF949" begin="9000" fromJunction="J0" toJunction="J3" end="10000" vehsPerHour="183.2"/>
  <flow id="JF950" begin="9000" fromJunction="J0" toJunction="J4" end="10000" vehsPerHour="183.2"/>
  <flow id="JF951" begin="9000" fromJunction="J2" toJunction="J3" end="10000" vehsPerHour="1221.3333333333335"/>
  <flow id="JF952" begin="9000" fromJunction="J2" toJunction="J0" end="10000" vehsPerHour="1221.3333333333335"/>
  <flow id="JF953" begin="9000" fromJunction="J2" toJunction="J4" end="10000" vehsPerHour="305.33333333333337"/>
  <flow id="JF954" begin="9000" fromJunction="J3" toJunction="J4" end="10000" vehsPerHour="1832.0"/>
  <flow id="JF955" begin="9000" fromJunction="J3" toJunction="J0" end="10000" vehsPerHour="458.0"/>
  <flow id="JF956" begin="9000" fromJunction="J3" toJunction="J2" end="10000" vehsPerHour="458.0"/>
  <flow id="JF957" begin="9000" fromJunction="J4" toJunction="J0" end="10000" vehsPerHour="183.2"/>
  <flow id="JF958" begin="9000" fromJunction="J4" toJunction="J2" end="10000" vehsPerHour="183.2"/>
  <flow id="JF959" begin="9000" fromJunction="J4" toJunction="J3" end="10000" vehsPerHour="183.2"/>
</routes>