<?xml version="1.0" encoding="UTF-8"?>
<routes xmlns:xsi="http://www.w3.org/2001/XMLSchema-instance" xsi:noNamespaceSchemaLocation="http://sumo.dlr.de/xsd/routes_file.xsd">
  <flow id="JF0" begin="0" fromJunction="J0" toJunction="J2" end="1000" vehsPerHour="183.2"/>
  <flow id="JF1" begin="0" fromJunction="J0" toJunction="J3" end="1000" vehsPerHour="183.2"/>
  <flow id="JF2" begin="0" fromJunction="J0" toJunction="J4" end="1000" vehsPerHour="183.2"/>
  <flow id="JF3" begin="0" fromJunction="J2" toJunction="J3" end="1000" vehsPerHour="1832.0"/>
  <flow id="JF4" begin="0" fromJunction="J2" toJunction="J0" end="1000" vehsPerHour="458.0"/>
  <flow id="JF5" begin="0" fromJunction="J2" toJunction="J4" end="1000" vehsPerHour="458.0"/>
  <flow id="JF6" begin="0" fromJunction="J3" toJunction="J2" end="1000" vehsPerHour="1832.0"/>
  <flow id="JF7" begin="0" fromJunction="J3" toJunction="J0" end="1000" vehsPerHour="458.0"/>
  <flow id="JF8" begin="0" fromJunction="J3" toJunction="J4" end="1000" vehsPerHour="458.0"/>
  <flow id="JF9" begin="0" fromJunction="J4" toJunction="J3" end="1000" vehsPerHour="1832.0"/>
  <flow id="JF10" begin="0" fromJunction="J4" toJunction="J0" end="1000" vehsPerHour="458.0"/>
  <flow id="JF11" begin="0" fromJunction="J4" toJunction="J2" end="1000" vehsPerHour="458.0"/>
  <flow id="JF12" begin="1000" fromJunction="J0" toJunction="J2" end="2000" vehsPerHour="183.2"/>
  <flow id="JF13" begin="1000" fromJunction="J0" toJunction="J3" end="2000" vehsPerHour="183.2"/>
  <flow id="JF14" begin="1000" fromJunction="J0" toJunction="J4" end="2000" vehsPerHour="183.2"/>
  <flow id="JF15" begin="1000" fromJunction="J2" toJunction="J0" end="2000" vehsPerHour="183.2"/>
  <flow id="JF16" begin="1000" fromJunction="J2" toJunction="J3" end="2000" vehsPerHour="183.2"/>
  <flow id="JF17" begin="1000" fromJunction="J2" toJunction="J4" end="2000" vehsPerHour="183.2"/>
  <flow id="JF18" begin="1000" fromJunction="J3" toJunction="J2" end="2000" vehsPerHour="1221.3333333333335"/>
  <flow id="JF19" begin="1000" fromJunction="J3" toJunction="J0" end="2000" vehsPerHour="1221.3333333333335"/>
  <flow id="JF20" begin="1000" fromJunction="J3" toJunction="J4" end="2000" vehsPerHour="305.33333333333337"/>
  <flow id="JF21" begin="1000" fromJunction="J4" toJunction="J0" end="2000" vehsPerHour="1832.0"/>
  <flow id="JF22" begin="1000" fromJunction="J4" toJunction="J2" end="2000" vehsPerHour="458.0"/>
  <flow id="JF23" begin="1000" fromJunction="J4" toJunction="J3" end="2000" vehsPerHour="458.0"/>
  <flow id="JF24" begin="2000" fromJunction="J0" toJunction="J2" end="3000" vehsPerHour="183.2"/>
  <flow id="JF25" begin="2000" fromJunction="J0" toJunction="J3" end="3000" vehsPerHour="183.2"/>
  <flow id="JF26" begin="2000" fromJunction="J0" toJunction="J4" end="3000" vehsPerHour="183.2"/>
  <flow id="JF27" begin="2000" fromJunction="J2" toJunction="J4" end="3000" vehsPerHour="1221.3333333333335"/>
  <flow id="JF28" begin="2000" fromJunction="J2" toJunction="J3" end="3000" vehsPerHour="1221.3333333333335"/>
  <flow id="JF29" begin="2000" fromJunction="J2" toJunction="J0" end="3000" vehsPerHour="305.33333333333337"/>
  <flow id="JF30" begin="2000" fromJunction="J3" toJunction="J0" end="3000" vehsPerHour="183.2"/>
  <flow id="JF31" begin="2000" fromJunction="J3" toJunction="J2" end="3000" vehsPerHour="183.2"/>
  <flow id="JF32" begin="2000" fromJunction="J3" toJunction="J4" end="3000" vehsPerHour="183.2"/>
  <flow id="JF33" begin="2000" fromJunction="J4" toJunction="J2" end="3000" vehsPerHour="1832.0"/>
  <flow id="JF34" begin="2000" fromJunction="J4" toJunction="J0" end="3000" vehsPerHour="458.0"/>
  <flow id="JF35" begin="2000" fromJunction="J4" toJunction="J3" end="3000" vehsPerHour="458.0"/>
  <flow id="JF36" begin="3000" fromJunction="J0" toJunction="J2" end="4000" vehsPerHour="1832.0"/>
  <flow id="JF37" begin="3000" fromJunction="J0" toJunction="J3" end="4000" vehsPerHour="458.0"/>
  <flow id="JF38" begin="3000" fromJunction="J0" toJunction="J4" end="4000" vehsPerHour="458.0"/>
  <flow id="JF39" begin="3000" fromJunction="J2" toJunction="J0" end="4000" vehsPerHour="183.2"/>
  <flow id="JF40" begin="3000" fromJunction="J2" toJunction="J3" end="4000" vehsPerHour="183.2"/>
  <flow id="JF41" begin="3000" fromJunction="J2" toJunction="J4" end="4000" vehsPerHour="183.2"/>
  <flow id="JF42" begin="3000" fromJunction="J3" toJunction="J4" end="4000" vehsPerHour="1832.0"/>
  <flow id="JF43" begin="3000" fromJunction="J3" toJunction="J0" end="4000" vehsPerHour="458.0"/>
  <flow id="JF44" begin="3000" fromJunction="J3" toJunction="J2" end="4000" vehsPerHour="458.0"/>
  <flow id="JF45" begin="3000" fromJunction="J4" toJunction="J0" end="4000" vehsPerHour="1832.0"/>
  <flow id="JF46" begin="3000" fromJunction="J4" toJunction="J2" end="4000" vehsPerHour="458.0"/>
  <flow id="JF47" begin="3000" fromJunction="J4" toJunction="J3" end="4000" vehsPerHour="458.0"/>
  <flow id="JF48" begin="4000" fromJunction="J0" toJunction="J4" end="5000" vehsPerHour="1832.0"/>
  <flow id="JF49" begin="4000" fromJunction="J0" toJunction="J2" end="5000" vehsPerHour="458.0"/>
  <flow id="JF50" begin="4000" fromJunction="J0" toJunction="J3" end="5000" vehsPerHour="458.0"/>
  <flow id="JF51" begin="4000" fromJunction="J2" toJunction="J4" end="5000" vehsPerHour="1832.0"/>
  <flow id="JF52" begin="4000" fromJunction="J2" toJunction="J0" end="5000" vehsPerHour="458.0"/>
  <flow id="JF53" begin="4000" fromJunction="J2" toJunction="J3" end="5000" vehsPerHour="458.0"/>
  <flow id="JF54" begin="4000" fromJunction="J3" toJunction="J4" end="5000" vehsPerHour="1832.0"/>
  <flow id="JF55" begin="4000" fromJunction="J3" toJunction="J0" end="5000" vehsPerHour="458.0"/>
  <flow id="JF56" begin="4000" fromJunction="J3" toJunction="J2" end="5000" vehsPerHour="458.0"/>
  <flow id="JF57" begin="4000" fromJunction="J4" toJunction="J0" end="5000" vehsPerHour="183.2"/>
  <flow id="JF58" begin="4000" fromJunction="J4" toJunction="J2" end="5000" vehsPerHour="183.2"/>
  <flow id="JF59" begin="4000" fromJunction="J4" toJunction="J3" end="5000" vehsPerHour="183.2"/>
  <flow id="JF60" begin="5000" fromJunction="J0" toJunction="J2" end="6000" vehsPerHour="183.2"/>
  <flow id="JF61" begin="5000" fromJunction="J0" toJunction="J3" end="6000" vehsPerHour="183.2"/>
  <flow id="JF62" begin="5000" fromJunction="J0" toJunction="J4" end="6000" vehsPerHour="183.2"/>
  <flow id="JF63" begin="5000" fromJunction="J2" toJunction="J4" end="6000" vehsPerHour="1832.0"/>
  <flow id="JF64" begin="5000" fromJunction="J2" toJunction="J0" end="6000" vehsPerHour="458.0"/>
  <flow id="JF65" begin="5000" fromJunction="J2" toJunction="J3" end="6000" vehsPerHour="458.0"/>
  <flow id="JF66" begin="5000" fromJunction="J3" toJunction="J0" end="6000" vehsPerHour="1832.0"/>
  <flow id="JF67" begin="5000" fromJunction="J3" toJunction="J2" end="6000" vehsPerHour="458.0"/>
  <flow id="JF68" begin="5000" fromJunction="J3" toJunction="J4" end="6000" vehsPerHour="458.0"/>
  <flow id="JF69" begin="5000" fromJunction="J4" toJunction="J2" end="6000" vehsPerHour="1832.0"/>
  <flow id="JF70" begin="5000" fromJunction="J4" toJunction="J0" end="6000" vehsPerHour="458.0"/>
  <flow id="JF71" begin="5000" fromJunction="J4" toJunction="J3" end="6000" vehsPerHour="458.0"/>
  <flow id="JF72" begin="6000" fromJunction="J0" toJunction="J2" end="7000" vehsPerHour="183.2"/>
  <flow id="JF73" begin="6000" fromJunction="J0" toJunction="J3" end="7000" vehsPerHour="183.2"/>
  <flow id="JF74" begin="6000" fromJunction="J0" toJunction="J4" end="7000" vehsPerHour="183.2"/>
  <flow id="JF75" begin="6000" fromJunction="J2" toJunction="J3" end="7000" vehsPerHour="1832.0"/>
  <flow id="JF76" begin="6000" fromJunction="J2" toJunction="J0" end="7000" vehsPerHour="458.0"/>
  <flow id="JF77" begin="6000" fromJunction="J2" toJunction="J4" end="7000" vehsPerHour="458.0"/>
  <flow id="JF78" begin="6000" fromJunction="J3" toJunction="J0" end="7000" vehsPerHour="183.2"/>
  <flow id="JF79" begin="6000" fromJunction="J3" toJunction="J2" end="7000" vehsPerHour="183.2"/>
  <flow id="JF80" begin="6000" fromJunction="J3" toJunction="J4" end="7000" vehsPerHour="183.2"/>
  <flow id="JF81" begin="6000" fromJunction="J4" toJunction="J3" end="7000" vehsPerHour="1221.3333333333335"/>
  <flow id="JF82" begin="6000" fromJunction="J4" toJunction="J2" end="7000" vehsPerHour="1221.3333333333335"/>
  <flow id="JF83" begin="6000" fromJunction="J4" toJunction="J0" end="7000" vehsPerHour="305.33333333333337"/>
  <flow id="JF84" begin="7000" fromJunction="J0" toJunction="J2" end="8000" vehsPerHour="183.2"/>
  <flow id="JF85" begin="7000" fromJunction="J0" toJunction="J3" end="8000" vehsPerHour="183.2"/>
  <flow id="JF86" begin="7000" fromJunction="J0" toJunction="J4" end="8000" vehsPerHour="183.2"/>
  <flow id="JF87" begin="7000" fromJunction="J2" toJunction="J4" end="8000" vehsPerHour="1832.0"/>
  <flow id="JF88" begin="7000" fromJunction="J2" toJunction="J0" end="8000" vehsPerHour="458.0"/>
  <flow id="JF89" begin="7000" fromJunction="J2" toJunction="J3" end="8000" vehsPerHour="458.0"/>
  <flow id="JF90" begin="7000" fromJunction="J3" toJunction="J4" end="8000" vehsPerHour="1832.0"/>
  <flow id="JF91" begin="7000" fromJunction="J3" toJunction="J0" end="8000" vehsPerHour="458.0"/>
  <flow id="JF92" begin="7000" fromJunction="J3" toJunction="J2" end="8000" vehsPerHour="458.0"/>
  <flow id="JF93" begin="7000" fromJunction="J4" toJunction="J2" end="8000" vehsPerHour="1832.0"/>
  <flow id="JF94" begin="7000" fromJunction="J4" toJunction="J0" end="8000" vehsPerHour="458.0"/>
  <flow id="JF95" begin="7000" fromJunction="J4" toJunction="J3" end="8000" vehsPerHour="458.0"/>
  <flow id="JF96" begin="8000" fromJunction="J0" toJunction="J3" end="9000" vehsPerHour="1221.3333333333335"/>
  <flow id="JF97" begin="8000" fromJunction="J0" toJunction="J4" end="9000" vehsPerHour="1221.3333333333335"/>
  <flow id="JF98" begin="8000" fromJunction="J0" toJunction="J2" end="9000" vehsPerHour="305.33333333333337"/>
  <flow id="JF99" begin="8000" fromJunction="J2" toJunction="J3" end="9000" vehsPerHour="1832.0"/>
  <flow id="JF100" begin="8000" fromJunction="J2" toJunction="J0" end="9000" vehsPerHour="458.0"/>
  <flow id="JF101" begin="8000" fromJunction="J2" toJunction="J4" end="9000" vehsPerHour="458.0"/>
  <flow id="JF102" begin="8000" fromJunction="J3" toJunction="J0" end="9000" vehsPerHour="183.2"/>
  <flow id="JF103" begin="8000" fromJunction="J3" toJunction="J2" end="9000" vehsPerHour="183.2"/>
  <flow id="JF104" begin="8000" fromJunction="J3" toJunction="J4" end="9000" vehsPerHour="183.2"/>
  <flow id="JF105" begin="8000" fromJunction="J4" toJunction="J0" end="9000" vehsPerHour="183.2"/>
  <flow id="JF106" begin="8000" fromJunction="J4" toJunction="J2" end="9000" vehsPerHour="183.2"/>
  <flow id="JF107" begin="8000" fromJunction="J4" toJunction="J3" end="9000" vehsPerHour="183.2"/>
  <flow id="JF108" begin="9000" fromJunction="J0" toJunction="J3" end="10000" vehsPerHour="1832.0"/>
  <flow id="JF109" begin="9000" fromJunction="J0" toJunction="J2" end="10000" vehsPerHour="458.0"/>
  <flow id="JF110" begin="9000" fromJunction="J0" toJunction="J4" end="10000" vehsPerHour="458.0"/>
  <flow id="JF111" begin="9000" fromJunction="J2" toJunction="J0" end="10000" vehsPerHour="1832.0"/>
  <flow id="JF112" begin="9000" fromJunction="J2" toJunction="J3" end="10000" vehsPerHour="458.0"/>
  <flow id="JF113" begin="9000" fromJunction="J2" toJunction="J4" end="10000" vehsPerHour="458.0"/>
  <flow id="JF114" begin="9000" fromJunction="J3" toJunction="J0" end="10000" vehsPerHour="183.2"/>
  <flow id="JF115" begin="9000" fromJunction="J3" toJunction="J2" end="10000" vehsPerHour="183.2"/>
  <flow id="JF116" begin="9000" fromJunction="J3" toJunction="J4" end="10000" vehsPerHour="183.2"/>
  <flow id="JF117" begin="9000" fromJunction="J4" toJunction="J3" end="10000" vehsPerHour="1832.0"/>
  <flow id="JF118" begin="9000" fromJunction="J4" toJunction="J0" end="10000" vehsPerHour="458.0"/>
  <flow id="JF119" begin="9000" fromJunction="J4" toJunction="J2" end="10000" vehsPerHour="458.0"/>
</routes>