<?xml version="1.0" encoding="UTF-8"?>
<routes xmlns:xsi="http://www.w3.org/2001/XMLSchema-instance" xsi:noNamespaceSchemaLocation="http://sumo.dlr.de/xsd/routes_file.xsd">
  <flow id="JF600" begin="0" fromJunction="J0" toJunction="J4" end="1000" vehsPerHour="1832.0"/>
  <flow id="JF601" begin="0" fromJunction="J0" toJunction="J2" end="1000" vehsPerHour="458.0"/>
  <flow id="JF602" begin="0" fromJunction="J0" toJunction="J3" end="1000" vehsPerHour="458.0"/>
  <flow id="JF603" begin="0" fromJunction="J2" toJunction="J4" end="1000" vehsPerHour="1832.0"/>
  <flow id="JF604" begin="0" fromJunction="J2" toJunction="J0" end="1000" vehsPerHour="458.0"/>
  <flow id="JF605" begin="0" fromJunction="J2" toJunction="J3" end="1000" vehsPerHour="458.0"/>
  <flow id="JF606" begin="0" fromJunction="J3" toJunction="J2" end="1000" vehsPerHour="1832.0"/>
  <flow id="JF607" begin="0" fromJunction="J3" toJunction="J0" end="1000" vehsPerHour="458.0"/>
  <flow id="JF608" begin="0" fromJunction="J3" toJunction="J4" end="1000" vehsPerHour="458.0"/>
  <flow id="JF609" begin="0" fromJunction="J4" toJunction="J0" end="1000" vehsPerHour="183.2"/>
  <flow id="JF610" begin="0" fromJunction="J4" toJunction="J2" end="1000" vehsPerHour="183.2"/>
  <flow id="JF611" begin="0" fromJunction="J4" toJunction="J3" end="1000" vehsPerHour="183.2"/>
  <flow id="JF612" begin="1000" fromJunction="J0" toJunction="J4" end="2000" vehsPerHour="1221.3333333333335"/>
  <flow id="JF613" begin="1000" fromJunction="J0" toJunction="J3" end="2000" vehsPerHour="1221.3333333333335"/>
  <flow id="JF614" begin="1000" fromJunction="J0" toJunction="J2" end="2000" vehsPerHour="305.33333333333337"/>
  <flow id="JF615" begin="1000" fromJunction="J2" toJunction="J4" end="2000" vehsPerHour="1832.0"/>
  <flow id="JF616" begin="1000" fromJunction="J2" toJunction="J0" end="2000" vehsPerHour="458.0"/>
  <flow id="JF617" begin="1000" fromJunction="J2" toJunction="J3" end="2000" vehsPerHour="458.0"/>
  <flow id="JF618" begin="1000" fromJunction="J3" toJunction="J0" end="2000" vehsPerHour="183.2"/>
  <flow id="JF619" begin="1000" fromJunction="J3" toJunction="J2" end="2000" vehsPerHour="183.2"/>
  <flow id="JF620" begin="1000" fromJunction="J3" toJunction="J4" end="2000" vehsPerHour="183.2"/>
  <flow id="JF621" begin="1000" fromJunction="J4" toJunction="J0" end="2000" vehsPerHour="183.2"/>
  <flow id="JF622" begin="1000" fromJunction="J4" toJunction="J2" end="2000" vehsPerHour="183.2"/>
  <flow id="JF623" begin="1000" fromJunction="J4" toJunction="J3" end="2000" vehsPerHour="183.2"/>
  <flow id="JF624" begin="2000" fromJunction="J0" toJunction="J4" end="3000" vehsPerHour="1832.0"/>
  <flow id="JF625" begin="2000" fromJunction="J0" toJunction="J2" end="3000" vehsPerHour="458.0"/>
  <flow id="JF626" begin="2000" fromJunction="J0" toJunction="J3" end="3000" vehsPerHour="458.0"/>
  <flow id="JF627" begin="2000" fromJunction="J2" toJunction="J0" end="3000" vehsPerHour="183.2"/>
  <flow id="JF628" begin="2000" fromJunction="J2" toJunction="J3" end="3000" vehsPerHour="183.2"/>
  <flow id="JF629" begin="2000" fromJunction="J2" toJunction="J4" end="3000" vehsPerHour="183.2"/>
  <flow id="JF630" begin="2000" fromJunction="J3" toJunction="J0" end="3000" vehsPerHour="183.2"/>
  <flow id="JF631" begin="2000" fromJunction="J3" toJunction="J2" end="3000" vehsPerHour="183.2"/>
  <flow id="JF632" begin="2000" fromJunction="J3" toJunction="J4" end="3000" vehsPerHour="183.2"/>
  <flow id="JF633" begin="2000" fromJunction="J4" toJunction="J0" end="3000" vehsPerHour="1221.3333333333335"/>
  <flow id="JF634" begin="2000" fromJunction="J4" toJunction="J2" end="3000" vehsPerHour="1221.3333333333335"/>
  <flow id="JF635" begin="2000" fromJunction="J4" toJunction="J3" end="3000" vehsPerHour="305.33333333333337"/>
  <flow id="JF636" begin="3000" fromJunction="J0" toJunction="J3" end="4000" vehsPerHour="1832.0"/>
  <flow id="JF637" begin="3000" fromJunction="J0" toJunction="J2" end="4000" vehsPerHour="458.0"/>
  <flow id="JF638" begin="3000" fromJunction="J0" toJunction="J4" end="4000" vehsPerHour="458.0"/>
  <flow id="JF639" begin="3000" fromJunction="J2" toJunction="J0" end="4000" vehsPerHour="1832.0"/>
  <flow id="JF640" begin="3000" fromJunction="J2" toJunction="J3" end="4000" vehsPerHour="458.0"/>
  <flow id="JF641" begin="3000" fromJunction="J2" toJunction="J4" end="4000" vehsPerHour="458.0"/>
  <flow id="JF642" begin="3000" fromJunction="J3" toJunction="J2" end="4000" vehsPerHour="1832.0"/>
  <flow id="JF643" begin="3000" fromJunction="J3" toJunction="J0" end="4000" vehsPerHour="458.0"/>
  <flow id="JF644" begin="3000" fromJunction="J3" toJunction="J4" end="4000" vehsPerHour="458.0"/>
  <flow id="JF645" begin="3000" fromJunction="J4" toJunction="J0" end="4000" vehsPerHour="183.2"/>
  <flow id="JF646" begin="3000" fromJunction="J4" toJunction="J2" end="4000" vehsPerHour="183.2"/>
  <flow id="JF647" begin="3000" fromJunction="J4" toJunction="J3" end="4000" vehsPerHour="183.2"/>
  <flow id="JF648" begin="4000" fromJunction="J0" toJunction="J3" end="5000" vehsPerHour="1832.0"/>
  <flow id="JF649" begin="4000" fromJunction="J0" toJunction="J2" end="5000" vehsPerHour="458.0"/>
  <flow id="JF650" begin="4000" fromJunction="J0" toJunction="J4" end="5000" vehsPerHour="458.0"/>
  <flow id="JF651" begin="4000" fromJunction="J2" toJunction="J0" end="5000" vehsPerHour="1832.0"/>
  <flow id="JF652" begin="4000" fromJunction="J2" toJunction="J3" end="5000" vehsPerHour="458.0"/>
  <flow id="JF653" begin="4000" fromJunction="J2" toJunction="J4" end="5000" vehsPerHour="458.0"/>
  <flow id="JF654" begin="4000" fromJunction="J3" toJunction="J2" end="5000" vehsPerHour="1832.0"/>
  <flow id="JF655" begin="4000" fromJunction="J3" toJunction="J0" end="5000" vehsPerHour="458.0"/>
  <flow id="JF656" begin="4000" fromJunction="J3" toJunction="J4" end="5000" vehsPerHour="458.0"/>
  <flow id="JF657" begin="4000" fromJunction="J4" toJunction="J0" end="5000" vehsPerHour="183.2"/>
  <flow id="JF658" begin="4000" fromJunction="J4" toJunction="J2" end="5000" vehsPerHour="183.2"/>
  <flow id="JF659" begin="4000" fromJunction="J4" toJunction="J3" end="5000" vehsPerHour="183.2"/>
  <flow id="JF660" begin="5000" fromJunction="J0" toJunction="J3" end="6000" vehsPerHour="1832.0"/>
  <flow id="JF661" begin="5000" fromJunction="J0" toJunction="J2" end="6000" vehsPerHour="458.0"/>
  <flow id="JF662" begin="5000" fromJunction="J0" toJunction="J4" end="6000" vehsPerHour="458.0"/>
  <flow id="JF663" begin="5000" fromJunction="J2" toJunction="J0" end="6000" vehsPerHour="183.2"/>
  <flow id="JF664" begin="5000" fromJunction="J2" toJunction="J3" end="6000" vehsPerHour="183.2"/>
  <flow id="JF665" begin="5000" fromJunction="J2" toJunction="J4" end="6000" vehsPerHour="183.2"/>
  <flow id="JF666" begin="5000" fromJunction="J3" toJunction="J4" end="6000" vehsPerHour="1221.3333333333335"/>
  <flow id="JF667" begin="5000" fromJunction="J3" toJunction="J2" end="6000" vehsPerHour="1221.3333333333335"/>
  <flow id="JF668" begin="5000" fromJunction="J3" toJunction="J0" end="6000" vehsPerHour="305.33333333333337"/>
  <flow id="JF669" begin="5000" fromJunction="J4" toJunction="J0" end="6000" vehsPerHour="183.2"/>
  <flow id="JF670" begin="5000" fromJunction="J4" toJunction="J2" end="6000" vehsPerHour="183.2"/>
  <flow id="JF671" begin="5000" fromJunction="J4" toJunction="J3" end="6000" vehsPerHour="183.2"/>
  <flow id="JF672" begin="6000" fromJunction="J0" toJunction="J4" end="7000" vehsPerHour="1832.0"/>
  <flow id="JF673" begin="6000" fromJunction="J0" toJunction="J2" end="7000" vehsPerHour="458.0"/>
  <flow id="JF674" begin="6000" fromJunction="J0" toJunction="J3" end="7000" vehsPerHour="458.0"/>
  <flow id="JF675" begin="6000" fromJunction="J2" toJunction="J4" end="7000" vehsPerHour="1221.3333333333335"/>
  <flow id="JF676" begin="6000" fromJunction="J2" toJunction="J3" end="7000" vehsPerHour="1221.3333333333335"/>
  <flow id="JF677" begin="6000" fromJunction="J2" toJunction="J0" end="7000" vehsPerHour="305.33333333333337"/>
  <flow id="JF678" begin="6000" fromJunction="J3" toJunction="J0" end="7000" vehsPerHour="183.2"/>
  <flow id="JF679" begin="6000" fromJunction="J3" toJunction="J2" end="7000" vehsPerHour="183.2"/>
  <flow id="JF680" begin="6000" fromJunction="J3" toJunction="J4" end="7000" vehsPerHour="183.2"/>
  <flow id="JF681" begin="6000" fromJunction="J4" toJunction="J0" end="7000" vehsPerHour="183.2"/>
  <flow id="JF682" begin="6000" fromJunction="J4" toJunction="J2" end="7000" vehsPerHour="183.2"/>
  <flow id="JF683" begin="6000" fromJunction="J4" toJunction="J3" end="7000" vehsPerHour="183.2"/>
  <flow id="JF684" begin="7000" fromJunction="J0" toJunction="J4" end="8000" vehsPerHour="1832.0"/>
  <flow id="JF685" begin="7000" fromJunction="J0" toJunction="J2" end="8000" vehsPerHour="458.0"/>
  <flow id="JF686" begin="7000" fromJunction="J0" toJunction="J3" end="8000" vehsPerHour="458.0"/>
  <flow id="JF687" begin="7000" fromJunction="J2" toJunction="J0" end="8000" vehsPerHour="1832.0"/>
  <flow id="JF688" begin="7000" fromJunction="J2" toJunction="J3" end="8000" vehsPerHour="458.0"/>
  <flow id="JF689" begin="7000" fromJunction="J2" toJunction="J4" end="8000" vehsPerHour="458.0"/>
  <flow id="JF690" begin="7000" fromJunction="J3" toJunction="J0" end="8000" vehsPerHour="183.2"/>
  <flow id="JF691" begin="7000" fromJunction="J3" toJunction="J2" end="8000" vehsPerHour="183.2"/>
  <flow id="JF692" begin="7000" fromJunction="J3" toJunction="J4" end="8000" vehsPerHour="183.2"/>
  <flow id="JF693" begin="7000" fromJunction="J4" toJunction="J3" end="8000" vehsPerHour="1832.0"/>
  <flow id="JF694" begin="7000" fromJunction="J4" toJunction="J0" end="8000" vehsPerHour="458.0"/>
  <flow id="JF695" begin="7000" fromJunction="J4" toJunction="J2" end="8000" vehsPerHour="458.0"/>
  <flow id="JF696" begin="8000" fromJunction="J0" toJunction="J3" end="9000" vehsPerHour="1221.3333333333335"/>
  <flow id="JF697" begin="8000" fromJunction="J0" toJunction="J4" end="9000" vehsPerHour="1221.3333333333335"/>
  <flow id="JF698" begin="8000" fromJunction="J0" toJunction="J2" end="9000" vehsPerHour="305.33333333333337"/>
  <flow id="JF699" begin="8000" fromJunction="J2" toJunction="J0" end="9000" vehsPerHour="183.2"/>
  <flow id="JF700" begin="8000" fromJunction="J2" toJunction="J3" end="9000" vehsPerHour="183.2"/>
  <flow id="JF701" begin="8000" fromJunction="J2" toJunction="J4" end="9000" vehsPerHour="183.2"/>
  <flow id="JF702" begin="8000" fromJunction="J3" toJunction="J0" end="9000" vehsPerHour="183.2"/>
  <flow id="JF703" begin="8000" fromJunction="J3" toJunction="J2" end="9000" vehsPerHour="183.2"/>
  <flow id="JF704" begin="8000" fromJunction="J3" toJunction="J4" end="9000" vehsPerHour="183.2"/>
  <flow id="JF705" begin="8000" fromJunction="J4" toJunction="J3" end="9000" vehsPerHour="1832.0"/>
  <flow id="JF706" begin="8000" fromJunction="J4" toJunction="J0" end="9000" vehsPerHour="458.0"/>
  <flow id="JF707" begin="8000" fromJunction="J4" toJunction="J2" end="9000" vehsPerHour="458.0"/>
  <flow id="JF708" begin="9000" fromJunction="J0" toJunction="J2" end="10000" vehsPerHour="183.2"/>
  <flow id="JF709" begin="9000" fromJunction="J0" toJunction="J3" end="10000" vehsPerHour="183.2"/>
  <flow id="JF710" begin="9000" fromJunction="J0" toJunction="J4" end="10000" vehsPerHour="183.2"/>
  <flow id="JF711" begin="9000" fromJunction="J2" toJunction="J4" end="10000" vehsPerHour="1221.3333333333335"/>
  <flow id="JF712" begin="9000" fromJunction="J2" toJunction="J0" end="10000" vehsPerHour="1221.3333333333335"/>
  <flow id="JF713" begin="9000" fromJunction="J2" toJunction="J3" end="10000" vehsPerHour="305.33333333333337"/>
  <flow id="JF714" begin="9000" fromJunction="J3" toJunction="J2" end="10000" vehsPerHour="1832.0"/>
  <flow id="JF715" begin="9000" fromJunction="J3" toJunction="J0" end="10000" vehsPerHour="458.0"/>
  <flow id="JF716" begin="9000" fromJunction="J3" toJunction="J4" end="10000" vehsPerHour="458.0"/>
  <flow id="JF717" begin="9000" fromJunction="J4" toJunction="J0" end="10000" vehsPerHour="183.2"/>
  <flow id="JF718" begin="9000" fromJunction="J4" toJunction="J2" end="10000" vehsPerHour="183.2"/>
  <flow id="JF719" begin="9000" fromJunction="J4" toJunction="J3" end="10000" vehsPerHour="183.2"/>
</routes>