<?xml version="1.0" encoding="UTF-8"?>
<routes xmlns:xsi="http://www.w3.org/2001/XMLSchema-instance" xsi:noNamespaceSchemaLocation="http://sumo.dlr.de/xsd/routes_file.xsd">
  <flow id="JF1080" begin="0" fromJunction="J0" toJunction="J4" end="1000" vehsPerHour="1832.0"/>
  <flow id="JF1081" begin="0" fromJunction="J0" toJunction="J2" end="1000" vehsPerHour="458.0"/>
  <flow id="JF1082" begin="0" fromJunction="J0" toJunction="J3" end="1000" vehsPerHour="458.0"/>
  <flow id="JF1083" begin="0" fromJunction="J2" toJunction="J0" end="1000" vehsPerHour="183.2"/>
  <flow id="JF1084" begin="0" fromJunction="J2" toJunction="J3" end="1000" vehsPerHour="183.2"/>
  <flow id="JF1085" begin="0" fromJunction="J2" toJunction="J4" end="1000" vehsPerHour="183.2"/>
  <flow id="JF1086" begin="0" fromJunction="J3" toJunction="J0" end="1000" vehsPerHour="183.2"/>
  <flow id="JF1087" begin="0" fromJunction="J3" toJunction="J2" end="1000" vehsPerHour="183.2"/>
  <flow id="JF1088" begin="0" fromJunction="J3" toJunction="J4" end="1000" vehsPerHour="183.2"/>
  <flow id="JF1089" begin="0" fromJunction="J4" toJunction="J0" end="1000" vehsPerHour="1221.3333333333335"/>
  <flow id="JF1090" begin="0" fromJunction="J4" toJunction="J3" end="1000" vehsPerHour="1221.3333333333335"/>
  <flow id="JF1091" begin="0" fromJunction="J4" toJunction="J2" end="1000" vehsPerHour="305.33333333333337"/>
  <flow id="JF1092" begin="1000" fromJunction="J0" toJunction="J2" end="2000" vehsPerHour="183.2"/>
  <flow id="JF1093" begin="1000" fromJunction="J0" toJunction="J3" end="2000" vehsPerHour="183.2"/>
  <flow id="JF1094" begin="1000" fromJunction="J0" toJunction="J4" end="2000" vehsPerHour="183.2"/>
  <flow id="JF1095" begin="1000" fromJunction="J2" toJunction="J4" end="2000" vehsPerHour="1221.3333333333335"/>
  <flow id="JF1096" begin="1000" fromJunction="J2" toJunction="J0" end="2000" vehsPerHour="1221.3333333333335"/>
  <flow id="JF1097" begin="1000" fromJunction="J2" toJunction="J3" end="2000" vehsPerHour="305.33333333333337"/>
  <flow id="JF1098" begin="1000" fromJunction="J3" toJunction="J0" end="2000" vehsPerHour="183.2"/>
  <flow id="JF1099" begin="1000" fromJunction="J3" toJunction="J2" end="2000" vehsPerHour="183.2"/>
  <flow id="JF1100" begin="1000" fromJunction="J3" toJunction="J4" end="2000" vehsPerHour="183.2"/>
  <flow id="JF1101" begin="1000" fromJunction="J4" toJunction="J0" end="2000" vehsPerHour="1832.0"/>
  <flow id="JF1102" begin="1000" fromJunction="J4" toJunction="J2" end="2000" vehsPerHour="458.0"/>
  <flow id="JF1103" begin="1000" fromJunction="J4" toJunction="J3" end="2000" vehsPerHour="458.0"/>
  <flow id="JF1104" begin="2000" fromJunction="J0" toJunction="J2" end="3000" vehsPerHour="1832.0"/>
  <flow id="JF1105" begin="2000" fromJunction="J0" toJunction="J3" end="3000" vehsPerHour="458.0"/>
  <flow id="JF1106" begin="2000" fromJunction="J0" toJunction="J4" end="3000" vehsPerHour="458.0"/>
  <flow id="JF1107" begin="2000" fromJunction="J2" toJunction="J4" end="3000" vehsPerHour="1221.3333333333335"/>
  <flow id="JF1108" begin="2000" fromJunction="J2" toJunction="J0" end="3000" vehsPerHour="1221.3333333333335"/>
  <flow id="JF1109" begin="2000" fromJunction="J2" toJunction="J3" end="3000" vehsPerHour="305.33333333333337"/>
  <flow id="JF1110" begin="2000" fromJunction="J3" toJunction="J0" end="3000" vehsPerHour="183.2"/>
  <flow id="JF1111" begin="2000" fromJunction="J3" toJunction="J2" end="3000" vehsPerHour="183.2"/>
  <flow id="JF1112" begin="2000" fromJunction="J3" toJunction="J4" end="3000" vehsPerHour="183.2"/>
  <flow id="JF1113" begin="2000" fromJunction="J4" toJunction="J0" end="3000" vehsPerHour="183.2"/>
  <flow id="JF1114" begin="2000" fromJunction="J4" toJunction="J2" end="3000" vehsPerHour="183.2"/>
  <flow id="JF1115" begin="2000" fromJunction="J4" toJunction="J3" end="3000" vehsPerHour="183.2"/>
  <flow id="JF1116" begin="3000" fromJunction="J0" toJunction="J4" end="4000" vehsPerHour="1832.0"/>
  <flow id="JF1117" begin="3000" fromJunction="J0" toJunction="J2" end="4000" vehsPerHour="458.0"/>
  <flow id="JF1118" begin="3000" fromJunction="J0" toJunction="J3" end="4000" vehsPerHour="458.0"/>
  <flow id="JF1119" begin="3000" fromJunction="J2" toJunction="J4" end="4000" vehsPerHour="1832.0"/>
  <flow id="JF1120" begin="3000" fromJunction="J2" toJunction="J0" end="4000" vehsPerHour="458.0"/>
  <flow id="JF1121" begin="3000" fromJunction="J2" toJunction="J3" end="4000" vehsPerHour="458.0"/>
  <flow id="JF1122" begin="3000" fromJunction="J3" toJunction="J2" end="4000" vehsPerHour="1832.0"/>
  <flow id="JF1123" begin="3000" fromJunction="J3" toJunction="J0" end="4000" vehsPerHour="458.0"/>
  <flow id="JF1124" begin="3000" fromJunction="J3" toJunction="J4" end="4000" vehsPerHour="458.0"/>
  <flow id="JF1125" begin="3000" fromJunction="J4" toJunction="J0" end="4000" vehsPerHour="183.2"/>
  <flow id="JF1126" begin="3000" fromJunction="J4" toJunction="J2" end="4000" vehsPerHour="183.2"/>
  <flow id="JF1127" begin="3000" fromJunction="J4" toJunction="J3" end="4000" vehsPerHour="183.2"/>
  <flow id="JF1128" begin="4000" fromJunction="J0" toJunction="J2" end="5000" vehsPerHour="183.2"/>
  <flow id="JF1129" begin="4000" fromJunction="J0" toJunction="J3" end="5000" vehsPerHour="183.2"/>
  <flow id="JF1130" begin="4000" fromJunction="J0" toJunction="J4" end="5000" vehsPerHour="183.2"/>
  <flow id="JF1131" begin="4000" fromJunction="J2" toJunction="J3" end="5000" vehsPerHour="1832.0"/>
  <flow id="JF1132" begin="4000" fromJunction="J2" toJunction="J0" end="5000" vehsPerHour="458.0"/>
  <flow id="JF1133" begin="4000" fromJunction="J2" toJunction="J4" end="5000" vehsPerHour="458.0"/>
  <flow id="JF1134" begin="4000" fromJunction="J3" toJunction="J4" end="5000" vehsPerHour="1832.0"/>
  <flow id="JF1135" begin="4000" fromJunction="J3" toJunction="J0" end="5000" vehsPerHour="458.0"/>
  <flow id="JF1136" begin="4000" fromJunction="J3" toJunction="J2" end="5000" vehsPerHour="458.0"/>
  <flow id="JF1137" begin="4000" fromJunction="J4" toJunction="J2" end="5000" vehsPerHour="1832.0"/>
  <flow id="JF1138" begin="4000" fromJunction="J4" toJunction="J0" end="5000" vehsPerHour="458.0"/>
  <flow id="JF1139" begin="4000" fromJunction="J4" toJunction="J3" end="5000" vehsPerHour="458.0"/>
  <flow id="JF1140" begin="5000" fromJunction="J0" toJunction="J2" end="6000" vehsPerHour="1832.0"/>
  <flow id="JF1141" begin="5000" fromJunction="J0" toJunction="J3" end="6000" vehsPerHour="458.0"/>
  <flow id="JF1142" begin="5000" fromJunction="J0" toJunction="J4" end="6000" vehsPerHour="458.0"/>
  <flow id="JF1143" begin="5000" fromJunction="J2" toJunction="J3" end="6000" vehsPerHour="1832.0"/>
  <flow id="JF1144" begin="5000" fromJunction="J2" toJunction="J0" end="6000" vehsPerHour="458.0"/>
  <flow id="JF1145" begin="5000" fromJunction="J2" toJunction="J4" end="6000" vehsPerHour="458.0"/>
  <flow id="JF1146" begin="5000" fromJunction="J3" toJunction="J0" end="6000" vehsPerHour="183.2"/>
  <flow id="JF1147" begin="5000" fromJunction="J3" toJunction="J2" end="6000" vehsPerHour="183.2"/>
  <flow id="JF1148" begin="5000" fromJunction="J3" toJunction="J4" end="6000" vehsPerHour="183.2"/>
  <flow id="JF1149" begin="5000" fromJunction="J4" toJunction="J2" end="6000" vehsPerHour="1832.0"/>
  <flow id="JF1150" begin="5000" fromJunction="J4" toJunction="J0" end="6000" vehsPerHour="458.0"/>
  <flow id="JF1151" begin="5000" fromJunction="J4" toJunction="J3" end="6000" vehsPerHour="458.0"/>
  <flow id="JF1152" begin="6000" fromJunction="J0" toJunction="J2" end="7000" vehsPerHour="183.2"/>
  <flow id="JF1153" begin="6000" fromJunction="J0" toJunction="J3" end="7000" vehsPerHour="183.2"/>
  <flow id="JF1154" begin="6000" fromJunction="J0" toJunction="J4" end="7000" vehsPerHour="183.2"/>
  <flow id="JF1155" begin="6000" fromJunction="J2" toJunction="J4" end="7000" vehsPerHour="1221.3333333333335"/>
  <flow id="JF1156" begin="6000" fromJunction="J2" toJunction="J3" end="7000" vehsPerHour="1221.3333333333335"/>
  <flow id="JF1157" begin="6000" fromJunction="J2" toJunction="J0" end="7000" vehsPerHour="305.33333333333337"/>
  <flow id="JF1158" begin="6000" fromJunction="J3" toJunction="J0" end="7000" vehsPerHour="183.2"/>
  <flow id="JF1159" begin="6000" fromJunction="J3" toJunction="J2" end="7000" vehsPerHour="183.2"/>
  <flow id="JF1160" begin="6000" fromJunction="J3" toJunction="J4" end="7000" vehsPerHour="183.2"/>
  <flow id="JF1161" begin="6000" fromJunction="J4" toJunction="J3" end="7000" vehsPerHour="1832.0"/>
  <flow id="JF1162" begin="6000" fromJunction="J4" toJunction="J0" end="7000" vehsPerHour="458.0"/>
  <flow id="JF1163" begin="6000" fromJunction="J4" toJunction="J2" end="7000" vehsPerHour="458.0"/>
  <flow id="JF1164" begin="7000" fromJunction="J0" toJunction="J4" end="8000" vehsPerHour="1832.0"/>
  <flow id="JF1165" begin="7000" fromJunction="J0" toJunction="J2" end="8000" vehsPerHour="458.0"/>
  <flow id="JF1166" begin="7000" fromJunction="J0" toJunction="J3" end="8000" vehsPerHour="458.0"/>
  <flow id="JF1167" begin="7000" fromJunction="J2" toJunction="J0" end="8000" vehsPerHour="1221.3333333333335"/>
  <flow id="JF1168" begin="7000" fromJunction="J2" toJunction="J3" end="8000" vehsPerHour="1221.3333333333335"/>
  <flow id="JF1169" begin="7000" fromJunction="J2" toJunction="J4" end="8000" vehsPerHour="305.33333333333337"/>
  <flow id="JF1170" begin="7000" fromJunction="J3" toJunction="J0" end="8000" vehsPerHour="183.2"/>
  <flow id="JF1171" begin="7000" fromJunction="J3" toJunction="J2" end="8000" vehsPerHour="183.2"/>
  <flow id="JF1172" begin="7000" fromJunction="J3" toJunction="J4" end="8000" vehsPerHour="183.2"/>
  <flow id="JF1173" begin="7000" fromJunction="J4" toJunction="J0" end="8000" vehsPerHour="183.2"/>
  <flow id="JF1174" begin="7000" fromJunction="J4" toJunction="J2" end="8000" vehsPerHour="183.2"/>
  <flow id="JF1175" begin="7000" fromJunction="J4" toJunction="J3" end="8000" vehsPerHour="183.2"/>
  <flow id="JF1176" begin="8000" fromJunction="J0" toJunction="J2" end="9000" vehsPerHour="183.2"/>
  <flow id="JF1177" begin="8000" fromJunction="J0" toJunction="J3" end="9000" vehsPerHour="183.2"/>
  <flow id="JF1178" begin="8000" fromJunction="J0" toJunction="J4" end="9000" vehsPerHour="183.2"/>
  <flow id="JF1179" begin="8000" fromJunction="J2" toJunction="J0" end="9000" vehsPerHour="183.2"/>
  <flow id="JF1180" begin="8000" fromJunction="J2" toJunction="J3" end="9000" vehsPerHour="183.2"/>
  <flow id="JF1181" begin="8000" fromJunction="J2" toJunction="J4" end="9000" vehsPerHour="183.2"/>
  <flow id="JF1182" begin="8000" fromJunction="J3" toJunction="J2" end="9000" vehsPerHour="1832.0"/>
  <flow id="JF1183" begin="8000" fromJunction="J3" toJunction="J0" end="9000" vehsPerHour="458.0"/>
  <flow id="JF1184" begin="8000" fromJunction="J3" toJunction="J4" end="9000" vehsPerHour="458.0"/>
  <flow id="JF1185" begin="8000" fromJunction="J4" toJunction="J3" end="9000" vehsPerHour="1221.3333333333335"/>
  <flow id="JF1186" begin="8000" fromJunction="J4" toJunction="J2" end="9000" vehsPerHour="1221.3333333333335"/>
  <flow id="JF1187" begin="8000" fromJunction="J4" toJunction="J0" end="9000" vehsPerHour="305.33333333333337"/>
  <flow id="JF1188" begin="9000" fromJunction="J0" toJunction="J3" end="10000" vehsPerHour="1832.0"/>
  <flow id="JF1189" begin="9000" fromJunction="J0" toJunction="J2" end="10000" vehsPerHour="458.0"/>
  <flow id="JF1190" begin="9000" fromJunction="J0" toJunction="J4" end="10000" vehsPerHour="458.0"/>
  <flow id="JF1191" begin="9000" fromJunction="J2" toJunction="J0" end="10000" vehsPerHour="183.2"/>
  <flow id="JF1192" begin="9000" fromJunction="J2" toJunction="J3" end="10000" vehsPerHour="183.2"/>
  <flow id="JF1193" begin="9000" fromJunction="J2" toJunction="J4" end="10000" vehsPerHour="183.2"/>
  <flow id="JF1194" begin="9000" fromJunction="J3" toJunction="J0" end="10000" vehsPerHour="183.2"/>
  <flow id="JF1195" begin="9000" fromJunction="J3" toJunction="J2" end="10000" vehsPerHour="183.2"/>
  <flow id="JF1196" begin="9000" fromJunction="J3" toJunction="J4" end="10000" vehsPerHour="183.2"/>
  <flow id="JF1197" begin="9000" fromJunction="J4" toJunction="J2" end="10000" vehsPerHour="1221.3333333333335"/>
  <flow id="JF1198" begin="9000" fromJunction="J4" toJunction="J3" end="10000" vehsPerHour="1221.3333333333335"/>
  <flow id="JF1199" begin="9000" fromJunction="J4" toJunction="J0" end="10000" vehsPerHour="305.33333333333337"/>
</routes>