<?xml version="1.0" encoding="UTF-8"?>
<routes xmlns:xsi="http://www.w3.org/2001/XMLSchema-instance" xsi:noNamespaceSchemaLocation="http://sumo.dlr.de/xsd/routes_file.xsd">
  <flow id="JF360" begin="0" fromJunction="J0" toJunction="J2" end="1000" vehsPerHour="183.2"/>
  <flow id="JF361" begin="0" fromJunction="J0" toJunction="J3" end="1000" vehsPerHour="183.2"/>
  <flow id="JF362" begin="0" fromJunction="J0" toJunction="J4" end="1000" vehsPerHour="183.2"/>
  <flow id="JF363" begin="0" fromJunction="J2" toJunction="J4" end="1000" vehsPerHour="1832.0"/>
  <flow id="JF364" begin="0" fromJunction="J2" toJunction="J0" end="1000" vehsPerHour="458.0"/>
  <flow id="JF365" begin="0" fromJunction="J2" toJunction="J3" end="1000" vehsPerHour="458.0"/>
  <flow id="JF366" begin="0" fromJunction="J3" toJunction="J0" end="1000" vehsPerHour="1832.0"/>
  <flow id="JF367" begin="0" fromJunction="J3" toJunction="J2" end="1000" vehsPerHour="458.0"/>
  <flow id="JF368" begin="0" fromJunction="J3" toJunction="J4" end="1000" vehsPerHour="458.0"/>
  <flow id="JF369" begin="0" fromJunction="J4" toJunction="J0" end="1000" vehsPerHour="1832.0"/>
  <flow id="JF370" begin="0" fromJunction="J4" toJunction="J2" end="1000" vehsPerHour="458.0"/>
  <flow id="JF371" begin="0" fromJunction="J4" toJunction="J3" end="1000" vehsPerHour="458.0"/>
  <flow id="JF372" begin="1000" fromJunction="J0" toJunction="J3" end="2000" vehsPerHour="1832.0"/>
  <flow id="JF373" begin="1000" fromJunction="J0" toJunction="J2" end="2000" vehsPerHour="458.0"/>
  <flow id="JF374" begin="1000" fromJunction="J0" toJunction="J4" end="2000" vehsPerHour="458.0"/>
  <flow id="JF375" begin="1000" fromJunction="J2" toJunction="J0" end="2000" vehsPerHour="183.2"/>
  <flow id="JF376" begin="1000" fromJunction="J2" toJunction="J3" end="2000" vehsPerHour="183.2"/>
  <flow id="JF377" begin="1000" fromJunction="J2" toJunction="J4" end="2000" vehsPerHour="183.2"/>
  <flow id="JF378" begin="1000" fromJunction="J3" toJunction="J0" end="2000" vehsPerHour="183.2"/>
  <flow id="JF379" begin="1000" fromJunction="J3" toJunction="J2" end="2000" vehsPerHour="183.2"/>
  <flow id="JF380" begin="1000" fromJunction="J3" toJunction="J4" end="2000" vehsPerHour="183.2"/>
  <flow id="JF381" begin="1000" fromJunction="J4" toJunction="J0" end="2000" vehsPerHour="1221.3333333333335"/>
  <flow id="JF382" begin="1000" fromJunction="J4" toJunction="J2" end="2000" vehsPerHour="1221.3333333333335"/>
  <flow id="JF383" begin="1000" fromJunction="J4" toJunction="J3" end="2000" vehsPerHour="305.33333333333337"/>
  <flow id="JF384" begin="2000" fromJunction="J0" toJunction="J2" end="3000" vehsPerHour="183.2"/>
  <flow id="JF385" begin="2000" fromJunction="J0" toJunction="J3" end="3000" vehsPerHour="183.2"/>
  <flow id="JF386" begin="2000" fromJunction="J0" toJunction="J4" end="3000" vehsPerHour="183.2"/>
  <flow id="JF387" begin="2000" fromJunction="J2" toJunction="J0" end="3000" vehsPerHour="183.2"/>
  <flow id="JF388" begin="2000" fromJunction="J2" toJunction="J3" end="3000" vehsPerHour="183.2"/>
  <flow id="JF389" begin="2000" fromJunction="J2" toJunction="J4" end="3000" vehsPerHour="183.2"/>
  <flow id="JF390" begin="2000" fromJunction="J3" toJunction="J0" end="3000" vehsPerHour="1221.3333333333335"/>
  <flow id="JF391" begin="2000" fromJunction="J3" toJunction="J2" end="3000" vehsPerHour="1221.3333333333335"/>
  <flow id="JF392" begin="2000" fromJunction="J3" toJunction="J4" end="3000" vehsPerHour="305.33333333333337"/>
  <flow id="JF393" begin="2000" fromJunction="J4" toJunction="J2" end="3000" vehsPerHour="1832.0"/>
  <flow id="JF394" begin="2000" fromJunction="J4" toJunction="J0" end="3000" vehsPerHour="458.0"/>
  <flow id="JF395" begin="2000" fromJunction="J4" toJunction="J3" end="3000" vehsPerHour="458.0"/>
  <flow id="JF396" begin="3000" fromJunction="J0" toJunction="J2" end="4000" vehsPerHour="183.2"/>
  <flow id="JF397" begin="3000" fromJunction="J0" toJunction="J3" end="4000" vehsPerHour="183.2"/>
  <flow id="JF398" begin="3000" fromJunction="J0" toJunction="J4" end="4000" vehsPerHour="183.2"/>
  <flow id="JF399" begin="3000" fromJunction="J2" toJunction="J0" end="4000" vehsPerHour="183.2"/>
  <flow id="JF400" begin="3000" fromJunction="J2" toJunction="J3" end="4000" vehsPerHour="183.2"/>
  <flow id="JF401" begin="3000" fromJunction="J2" toJunction="J4" end="4000" vehsPerHour="183.2"/>
  <flow id="JF402" begin="3000" fromJunction="J3" toJunction="J0" end="4000" vehsPerHour="183.2"/>
  <flow id="JF403" begin="3000" fromJunction="J3" toJunction="J2" end="4000" vehsPerHour="183.2"/>
  <flow id="JF404" begin="3000" fromJunction="J3" toJunction="J4" end="4000" vehsPerHour="183.2"/>
  <flow id="JF405" begin="3000" fromJunction="J4" toJunction="J3" end="4000" vehsPerHour="916.0"/>
  <flow id="JF406" begin="3000" fromJunction="J4" toJunction="J0" end="4000" vehsPerHour="916.0"/>
  <flow id="JF407" begin="3000" fromJunction="J4" toJunction="J2" end="4000" vehsPerHour="916.0"/>
  <flow id="JF408" begin="4000" fromJunction="J0" toJunction="J4" end="5000" vehsPerHour="1221.3333333333335"/>
  <flow id="JF409" begin="4000" fromJunction="J0" toJunction="J3" end="5000" vehsPerHour="1221.3333333333335"/>
  <flow id="JF410" begin="4000" fromJunction="J0" toJunction="J2" end="5000" vehsPerHour="305.33333333333337"/>
  <flow id="JF411" begin="4000" fromJunction="J2" toJunction="J0" end="5000" vehsPerHour="183.2"/>
  <flow id="JF412" begin="4000" fromJunction="J2" toJunction="J3" end="5000" vehsPerHour="183.2"/>
  <flow id="JF413" begin="4000" fromJunction="J2" toJunction="J4" end="5000" vehsPerHour="183.2"/>
  <flow id="JF414" begin="4000" fromJunction="J3" toJunction="J4" end="5000" vehsPerHour="1832.0"/>
  <flow id="JF415" begin="4000" fromJunction="J3" toJunction="J0" end="5000" vehsPerHour="458.0"/>
  <flow id="JF416" begin="4000" fromJunction="J3" toJunction="J2" end="5000" vehsPerHour="458.0"/>
  <flow id="JF417" begin="4000" fromJunction="J4" toJunction="J0" end="5000" vehsPerHour="183.2"/>
  <flow id="JF418" begin="4000" fromJunction="J4" toJunction="J2" end="5000" vehsPerHour="183.2"/>
  <flow id="JF419" begin="4000" fromJunction="J4" toJunction="J3" end="5000" vehsPerHour="183.2"/>
  <flow id="JF420" begin="5000" fromJunction="J0" toJunction="J2" end="6000" vehsPerHour="183.2"/>
  <flow id="JF421" begin="5000" fromJunction="J0" toJunction="J3" end="6000" vehsPerHour="183.2"/>
  <flow id="JF422" begin="5000" fromJunction="J0" toJunction="J4" end="6000" vehsPerHour="183.2"/>
  <flow id="JF423" begin="5000" fromJunction="J2" toJunction="J0" end="6000" vehsPerHour="183.2"/>
  <flow id="JF424" begin="5000" fromJunction="J2" toJunction="J3" end="6000" vehsPerHour="183.2"/>
  <flow id="JF425" begin="5000" fromJunction="J2" toJunction="J4" end="6000" vehsPerHour="183.2"/>
  <flow id="JF426" begin="5000" fromJunction="J3" toJunction="J0" end="6000" vehsPerHour="183.2"/>
  <flow id="JF427" begin="5000" fromJunction="J3" toJunction="J2" end="6000" vehsPerHour="183.2"/>
  <flow id="JF428" begin="5000" fromJunction="J3" toJunction="J4" end="6000" vehsPerHour="183.2"/>
  <flow id="JF429" begin="5000" fromJunction="J4" toJunction="J2" end="6000" vehsPerHour="916.0"/>
  <flow id="JF430" begin="5000" fromJunction="J4" toJunction="J3" end="6000" vehsPerHour="916.0"/>
  <flow id="JF431" begin="5000" fromJunction="J4" toJunction="J0" end="6000" vehsPerHour="916.0"/>
  <flow id="JF432" begin="6000" fromJunction="J0" toJunction="J2" end="7000" vehsPerHour="183.2"/>
  <flow id="JF433" begin="6000" fromJunction="J0" toJunction="J3" end="7000" vehsPerHour="183.2"/>
  <flow id="JF434" begin="6000" fromJunction="J0" toJunction="J4" end="7000" vehsPerHour="183.2"/>
  <flow id="JF435" begin="6000" fromJunction="J2" toJunction="J3" end="7000" vehsPerHour="1221.3333333333335"/>
  <flow id="JF436" begin="6000" fromJunction="J2" toJunction="J4" end="7000" vehsPerHour="1221.3333333333335"/>
  <flow id="JF437" begin="6000" fromJunction="J2" toJunction="J0" end="7000" vehsPerHour="305.33333333333337"/>
  <flow id="JF438" begin="6000" fromJunction="J3" toJunction="J0" end="7000" vehsPerHour="1832.0"/>
  <flow id="JF439" begin="6000" fromJunction="J3" toJunction="J2" end="7000" vehsPerHour="458.0"/>
  <flow id="JF440" begin="6000" fromJunction="J3" toJunction="J4" end="7000" vehsPerHour="458.0"/>
  <flow id="JF441" begin="6000" fromJunction="J4" toJunction="J0" end="7000" vehsPerHour="183.2"/>
  <flow id="JF442" begin="6000" fromJunction="J4" toJunction="J2" end="7000" vehsPerHour="183.2"/>
  <flow id="JF443" begin="6000" fromJunction="J4" toJunction="J3" end="7000" vehsPerHour="183.2"/>
  <flow id="JF444" begin="7000" fromJunction="J0" toJunction="J2" end="8000" vehsPerHour="183.2"/>
  <flow id="JF445" begin="7000" fromJunction="J0" toJunction="J3" end="8000" vehsPerHour="183.2"/>
  <flow id="JF446" begin="7000" fromJunction="J0" toJunction="J4" end="8000" vehsPerHour="183.2"/>
  <flow id="JF447" begin="7000" fromJunction="J2" toJunction="J3" end="8000" vehsPerHour="1221.3333333333335"/>
  <flow id="JF448" begin="7000" fromJunction="J2" toJunction="J0" end="8000" vehsPerHour="1221.3333333333335"/>
  <flow id="JF449" begin="7000" fromJunction="J2" toJunction="J4" end="8000" vehsPerHour="305.33333333333337"/>
  <flow id="JF450" begin="7000" fromJunction="J3" toJunction="J2" end="8000" vehsPerHour="1832.0"/>
  <flow id="JF451" begin="7000" fromJunction="J3" toJunction="J0" end="8000" vehsPerHour="458.0"/>
  <flow id="JF452" begin="7000" fromJunction="J3" toJunction="J4" end="8000" vehsPerHour="458.0"/>
  <flow id="JF453" begin="7000" fromJunction="J4" toJunction="J0" end="8000" vehsPerHour="183.2"/>
  <flow id="JF454" begin="7000" fromJunction="J4" toJunction="J2" end="8000" vehsPerHour="183.2"/>
  <flow id="JF455" begin="7000" fromJunction="J4" toJunction="J3" end="8000" vehsPerHour="183.2"/>
  <flow id="JF456" begin="8000" fromJunction="J0" toJunction="J4" end="9000" vehsPerHour="1221.3333333333335"/>
  <flow id="JF457" begin="8000" fromJunction="J0" toJunction="J2" end="9000" vehsPerHour="1221.3333333333335"/>
  <flow id="JF458" begin="8000" fromJunction="J0" toJunction="J3" end="9000" vehsPerHour="305.33333333333337"/>
  <flow id="JF459" begin="8000" fromJunction="J2" toJunction="J0" end="9000" vehsPerHour="183.2"/>
  <flow id="JF460" begin="8000" fromJunction="J2" toJunction="J3" end="9000" vehsPerHour="183.2"/>
  <flow id="JF461" begin="8000" fromJunction="J2" toJunction="J4" end="9000" vehsPerHour="183.2"/>
  <flow id="JF462" begin="8000" fromJunction="J3" toJunction="J4" end="9000" vehsPerHour="1832.0"/>
  <flow id="JF463" begin="8000" fromJunction="J3" toJunction="J0" end="9000" vehsPerHour="458.0"/>
  <flow id="JF464" begin="8000" fromJunction="J3" toJunction="J2" end="9000" vehsPerHour="458.0"/>
  <flow id="JF465" begin="8000" fromJunction="J4" toJunction="J0" end="9000" vehsPerHour="183.2"/>
  <flow id="JF466" begin="8000" fromJunction="J4" toJunction="J2" end="9000" vehsPerHour="183.2"/>
  <flow id="JF467" begin="8000" fromJunction="J4" toJunction="J3" end="9000" vehsPerHour="183.2"/>
  <flow id="JF468" begin="9000" fromJunction="J0" toJunction="J3" end="10000" vehsPerHour="1832.0"/>
  <flow id="JF469" begin="9000" fromJunction="J0" toJunction="J2" end="10000" vehsPerHour="458.0"/>
  <flow id="JF470" begin="9000" fromJunction="J0" toJunction="J4" end="10000" vehsPerHour="458.0"/>
  <flow id="JF471" begin="9000" fromJunction="J2" toJunction="J4" end="10000" vehsPerHour="1221.3333333333335"/>
  <flow id="JF472" begin="9000" fromJunction="J2" toJunction="J0" end="10000" vehsPerHour="1221.3333333333335"/>
  <flow id="JF473" begin="9000" fromJunction="J2" toJunction="J3" end="10000" vehsPerHour="305.33333333333337"/>
  <flow id="JF474" begin="9000" fromJunction="J3" toJunction="J0" end="10000" vehsPerHour="183.2"/>
  <flow id="JF475" begin="9000" fromJunction="J3" toJunction="J2" end="10000" vehsPerHour="183.2"/>
  <flow id="JF476" begin="9000" fromJunction="J3" toJunction="J4" end="10000" vehsPerHour="183.2"/>
  <flow id="JF477" begin="9000" fromJunction="J4" toJunction="J0" end="10000" vehsPerHour="183.2"/>
  <flow id="JF478" begin="9000" fromJunction="J4" toJunction="J2" end="10000" vehsPerHour="183.2"/>
  <flow id="JF479" begin="9000" fromJunction="J4" toJunction="J3" end="10000" vehsPerHour="183.2"/>
</routes>