<?xml version="1.0" encoding="UTF-8"?>
<routes xmlns:xsi="http://www.w3.org/2001/XMLSchema-instance" xsi:noNamespaceSchemaLocation="http://sumo.dlr.de/xsd/routes_file.xsd">
  <flow id="JF252529" begin="0" fromJunction="J0" toJunction="J3" end="10000" vehsPerHour="158.96378429407" departLane="free"/>
  <flow id="JF252530" begin="0" fromJunction="J3" toJunction="J0" end="10000" vehsPerHour="5.979069316893665" departLane="free"/>
  <flow id="JF252531" begin="0" fromJunction="J0" toJunction="J5" end="10000" vehsPerHour="116.17454368845797" departLane="free"/>
  <flow id="JF252532" begin="0" fromJunction="J0" toJunction="J4" end="10000" vehsPerHour="16.830625149188865" departLane="free"/>
  <flow id="JF252533" begin="0" fromJunction="J0" toJunction="J6" end="10000" vehsPerHour="121.15580176187196" departLane="free"/>
  <flow id="JF252534" begin="0" fromJunction="J0" toJunction="J7" end="10000" vehsPerHour="127.32141555087503" departLane="free"/>
  <flow id="JF252535" begin="0" fromJunction="J3" toJunction="J5" end="10000" vehsPerHour="18.696756431689447" departLane="free"/>
  <flow id="JF252536" begin="0" fromJunction="J3" toJunction="J4" end="10000" vehsPerHour="29.09395975755746" departLane="free"/>
  <flow id="JF252537" begin="0" fromJunction="J3" toJunction="J6" end="10000" vehsPerHour="120.82891926166599" departLane="free"/>
  <flow id="JF252538" begin="0" fromJunction="J3" toJunction="J7" end="10000" vehsPerHour="123.91008015871621" departLane="free"/>
  <flow id="JF252539" begin="0" fromJunction="J5" toJunction="J4" end="10000" vehsPerHour="18.600633394000845" departLane="free"/>
  <flow id="JF252540" begin="0" fromJunction="J5" toJunction="J6" end="10000" vehsPerHour="52.00773279504053" departLane="free"/>
  <flow id="JF252541" begin="0" fromJunction="J5" toJunction="J7" end="10000" vehsPerHour="52.385205628686684" departLane="free"/>
  <flow id="JF252542" begin="0" fromJunction="J4" toJunction="J5" end="10000" vehsPerHour="35.864035827172664" departLane="free"/>
  <flow id="JF252543" begin="0" fromJunction="J4" toJunction="J6" end="10000" vehsPerHour="3.432371603754733" departLane="free"/>
  <flow id="JF252544" begin="0" fromJunction="J4" toJunction="J7" end="10000" vehsPerHour="2.716859671608418" departLane="free"/>
  <flow id="JF252545" begin="0" fromJunction="J6" toJunction="J5" end="10000" vehsPerHour="27.762277716131443" departLane="free"/>
  <flow id="JF252546" begin="0" fromJunction="J6" toJunction="J4" end="10000" vehsPerHour="0.5447769883055337" departLane="free"/>
  <flow id="JF252547" begin="0" fromJunction="J6" toJunction="J7" end="10000" vehsPerHour="46.83526130958745" departLane="free"/>
  <flow id="JF252548" begin="0" fromJunction="J7" toJunction="J5" end="10000" vehsPerHour="31.01076540905114" departLane="free"/>
  <flow id="JF252549" begin="0" fromJunction="J7" toJunction="J4" end="10000" vehsPerHour="30.043607042079046" departLane="free"/>
  <flow id="JF252550" begin="0" fromJunction="J7" toJunction="J6" end="10000" vehsPerHour="32.57828429487428" departLane="free"/>
  <flow id="JF252551" begin="0" fromJunction="J5" toJunction="J0" end="10000" vehsPerHour="24.539692336866377" departLane="free"/>
  <flow id="JF252552" begin="0" fromJunction="J5" toJunction="J3" end="10000" vehsPerHour="32.658889808264846" departLane="free"/>
  <flow id="JF252553" begin="0" fromJunction="J4" toJunction="J0" end="10000" vehsPerHour="10.89138555140548" departLane="free"/>
  <flow id="JF252554" begin="0" fromJunction="J4" toJunction="J3" end="10000" vehsPerHour="29.399830489198482" departLane="free"/>
  <flow id="JF252555" begin="0" fromJunction="J6" toJunction="J0" end="10000" vehsPerHour="24.576721254170938" departLane="free"/>
  <flow id="JF252556" begin="0" fromJunction="J6" toJunction="J3" end="10000" vehsPerHour="15.45746630462136" departLane="free"/>
  <flow id="JF252557" begin="0" fromJunction="J7" toJunction="J0" end="10000" vehsPerHour="20.978432213912466" departLane="free"/>
  <flow id="JF252558" begin="0" fromJunction="J7" toJunction="J3" end="10000" vehsPerHour="19.641764250416752" departLane="free"/>
</routes>