<?xml version="1.0" encoding="UTF-8"?>
<routes xmlns:xsi="http://www.w3.org/2001/XMLSchema-instance" xsi:noNamespaceSchemaLocation="http://sumo.dlr.de/xsd/routes_file.xsd">
  <flow id="JF252469" begin="0" fromJunction="J0" toJunction="J3" end="10000" vehsPerHour="73.79172560293131" departLane="free"/>
  <flow id="JF252470" begin="0" fromJunction="J3" toJunction="J0" end="10000" vehsPerHour="144.79507318039515" departLane="free"/>
  <flow id="JF252471" begin="0" fromJunction="J0" toJunction="J5" end="10000" vehsPerHour="90.6419460353138" departLane="free"/>
  <flow id="JF252472" begin="0" fromJunction="J0" toJunction="J4" end="10000" vehsPerHour="135.29517656005692" departLane="free"/>
  <flow id="JF252473" begin="0" fromJunction="J0" toJunction="J6" end="10000" vehsPerHour="47.245375911290985" departLane="free"/>
  <flow id="JF252474" begin="0" fromJunction="J0" toJunction="J7" end="10000" vehsPerHour="31.18071103103538" departLane="free"/>
  <flow id="JF252475" begin="0" fromJunction="J3" toJunction="J5" end="10000" vehsPerHour="35.647166460722886" departLane="free"/>
  <flow id="JF252476" begin="0" fromJunction="J3" toJunction="J4" end="10000" vehsPerHour="94.97686813777203" departLane="free"/>
  <flow id="JF252477" begin="0" fromJunction="J3" toJunction="J6" end="10000" vehsPerHour="46.46651395519998" departLane="free"/>
  <flow id="JF252478" begin="0" fromJunction="J3" toJunction="J7" end="10000" vehsPerHour="72.9735824100639" departLane="free"/>
  <flow id="JF252479" begin="0" fromJunction="J5" toJunction="J4" end="10000" vehsPerHour="29.76750819061909" departLane="free"/>
  <flow id="JF252480" begin="0" fromJunction="J5" toJunction="J6" end="10000" vehsPerHour="64.91099603048923" departLane="free"/>
  <flow id="JF252481" begin="0" fromJunction="J5" toJunction="J7" end="10000" vehsPerHour="67.51094788583407" departLane="free"/>
  <flow id="JF252482" begin="0" fromJunction="J4" toJunction="J5" end="10000" vehsPerHour="43.857454678434564" departLane="free"/>
  <flow id="JF252483" begin="0" fromJunction="J4" toJunction="J6" end="10000" vehsPerHour="52.016668195178774" departLane="free"/>
  <flow id="JF252484" begin="0" fromJunction="J4" toJunction="J7" end="10000" vehsPerHour="66.08429842547193" departLane="free"/>
  <flow id="JF252485" begin="0" fromJunction="J6" toJunction="J5" end="10000" vehsPerHour="6.4261428016059385" departLane="free"/>
  <flow id="JF252486" begin="0" fromJunction="J6" toJunction="J4" end="10000" vehsPerHour="16.906424319945" departLane="free"/>
  <flow id="JF252487" begin="0" fromJunction="J6" toJunction="J7" end="10000" vehsPerHour="59.473669039964" departLane="free"/>
  <flow id="JF252488" begin="0" fromJunction="J7" toJunction="J5" end="10000" vehsPerHour="31.56215609157481" departLane="free"/>
  <flow id="JF252489" begin="0" fromJunction="J7" toJunction="J4" end="10000" vehsPerHour="11.39297560805145" departLane="free"/>
  <flow id="JF252490" begin="0" fromJunction="J7" toJunction="J6" end="10000" vehsPerHour="18.558086067298696" departLane="free"/>
  <flow id="JF252491" begin="0" fromJunction="J5" toJunction="J0" end="10000" vehsPerHour="28.040922615997918" departLane="free"/>
  <flow id="JF252492" begin="0" fromJunction="J5" toJunction="J3" end="10000" vehsPerHour="0.816794688093295" departLane="free"/>
  <flow id="JF252493" begin="0" fromJunction="J4" toJunction="J0" end="10000" vehsPerHour="25.72325381358538" departLane="free"/>
  <flow id="JF252494" begin="0" fromJunction="J4" toJunction="J3" end="10000" vehsPerHour="20.609450270841318" departLane="free"/>
  <flow id="JF252495" begin="0" fromJunction="J6" toJunction="J0" end="10000" vehsPerHour="32.39510070717791" departLane="free"/>
  <flow id="JF252496" begin="0" fromJunction="J6" toJunction="J3" end="10000" vehsPerHour="23.192942113139022" departLane="free"/>
  <flow id="JF252497" begin="0" fromJunction="J7" toJunction="J0" end="10000" vehsPerHour="10.146410597111176" departLane="free"/>
  <flow id="JF252498" begin="0" fromJunction="J7" toJunction="J3" end="10000" vehsPerHour="13.972464776138821" departLane="free"/>
</routes>