<?xml version="1.0" encoding="UTF-8"?>
<routes xmlns:xsi="http://www.w3.org/2001/XMLSchema-instance" xsi:noNamespaceSchemaLocation="http://sumo.dlr.de/xsd/routes_file.xsd">
  <flow id="JF252499" begin="0" fromJunction="J0" toJunction="J3" end="10000" vehsPerHour="114.8406799456215" departLane="free"/>
  <flow id="JF252500" begin="0" fromJunction="J3" toJunction="J0" end="10000" vehsPerHour="136.5825284702479" departLane="free"/>
  <flow id="JF252501" begin="0" fromJunction="J0" toJunction="J5" end="10000" vehsPerHour="105.31006320085089" departLane="free"/>
  <flow id="JF252502" begin="0" fromJunction="J0" toJunction="J4" end="10000" vehsPerHour="67.14200452879722" departLane="free"/>
  <flow id="JF252503" begin="0" fromJunction="J0" toJunction="J6" end="10000" vehsPerHour="42.2578974045109" departLane="free"/>
  <flow id="JF252504" begin="0" fromJunction="J0" toJunction="J7" end="10000" vehsPerHour="64.73981400373997" departLane="free"/>
  <flow id="JF252505" begin="0" fromJunction="J3" toJunction="J5" end="10000" vehsPerHour="105.49272942563859" departLane="free"/>
  <flow id="JF252506" begin="0" fromJunction="J3" toJunction="J4" end="10000" vehsPerHour="103.33435922247563" departLane="free"/>
  <flow id="JF252507" begin="0" fromJunction="J3" toJunction="J6" end="10000" vehsPerHour="131.1048444169249" departLane="free"/>
  <flow id="JF252508" begin="0" fromJunction="J3" toJunction="J7" end="10000" vehsPerHour="135.33983773866038" departLane="free"/>
  <flow id="JF252509" begin="0" fromJunction="J5" toJunction="J4" end="10000" vehsPerHour="30.722269184333957" departLane="free"/>
  <flow id="JF252510" begin="0" fromJunction="J5" toJunction="J6" end="10000" vehsPerHour="38.82447578038055" departLane="free"/>
  <flow id="JF252511" begin="0" fromJunction="J5" toJunction="J7" end="10000" vehsPerHour="19.05299251021193" departLane="free"/>
  <flow id="JF252512" begin="0" fromJunction="J4" toJunction="J5" end="10000" vehsPerHour="61.71766594491961" departLane="free"/>
  <flow id="JF252513" begin="0" fromJunction="J4" toJunction="J6" end="10000" vehsPerHour="60.315630102430134" departLane="free"/>
  <flow id="JF252514" begin="0" fromJunction="J4" toJunction="J7" end="10000" vehsPerHour="18.490608676909815" departLane="free"/>
  <flow id="JF252515" begin="0" fromJunction="J6" toJunction="J5" end="10000" vehsPerHour="0.5655032467209506" departLane="free"/>
  <flow id="JF252516" begin="0" fromJunction="J6" toJunction="J4" end="10000" vehsPerHour="12.165760770700057" departLane="free"/>
  <flow id="JF252517" begin="0" fromJunction="J6" toJunction="J7" end="10000" vehsPerHour="63.891504818652386" departLane="free"/>
  <flow id="JF252518" begin="0" fromJunction="J7" toJunction="J5" end="10000" vehsPerHour="9.256043451205052" departLane="free"/>
  <flow id="JF252519" begin="0" fromJunction="J7" toJunction="J4" end="10000" vehsPerHour="0.32683520314172554" departLane="free"/>
  <flow id="JF252520" begin="0" fromJunction="J7" toJunction="J6" end="10000" vehsPerHour="19.577642668537727" departLane="free"/>
  <flow id="JF252521" begin="0" fromJunction="J5" toJunction="J0" end="10000" vehsPerHour="3.6454517702677607" departLane="free"/>
  <flow id="JF252522" begin="0" fromJunction="J5" toJunction="J3" end="10000" vehsPerHour="15.557155709280206" departLane="free"/>
  <flow id="JF252523" begin="0" fromJunction="J4" toJunction="J0" end="10000" vehsPerHour="32.14556030413411" departLane="free"/>
  <flow id="JF252524" begin="0" fromJunction="J4" toJunction="J3" end="10000" vehsPerHour="10.79799479649284" departLane="free"/>
  <flow id="JF252525" begin="0" fromJunction="J6" toJunction="J0" end="10000" vehsPerHour="25.125887418669567" departLane="free"/>
  <flow id="JF252526" begin="0" fromJunction="J6" toJunction="J3" end="10000" vehsPerHour="0.9396505395732915" departLane="free"/>
  <flow id="JF252527" begin="0" fromJunction="J7" toJunction="J0" end="10000" vehsPerHour="27.188332043964557" departLane="free"/>
  <flow id="JF252528" begin="0" fromJunction="J7" toJunction="J3" end="10000" vehsPerHour="9.920399138092487" departLane="free"/>
</routes>