<?xml version="1.0" encoding="UTF-8"?>
<routes xmlns:xsi="http://www.w3.org/2001/XMLSchema-instance" xsi:noNamespaceSchemaLocation="http://sumo.dlr.de/xsd/routes_file.xsd">
  <flow id="JF59103" begin="0" fromJunction="J3" toJunction="J0" end="5000" vehsPerHour="345.3535628732913"/>
  <flow id="JF59104" begin="0" fromJunction="J0" toJunction="J3" end="5000" vehsPerHour="378.64646443416433"/>
  <flow id="JF59105" begin="0" fromJunction="J3" toJunction="J2" end="5000" vehsPerHour="24.13930436406306"/>
  <flow id="JF59106" begin="0" fromJunction="J3" toJunction="J4" end="5000" vehsPerHour="89.2264115012581"/>
  <flow id="JF59107" begin="0" fromJunction="J0" toJunction="J2" end="5000" vehsPerHour="46.39265303183386"/>
  <flow id="JF59108" begin="0" fromJunction="J0" toJunction="J4" end="5000" vehsPerHour="61.25514370042589"/>
  <flow id="JF59109" begin="0" fromJunction="J2" toJunction="J4" end="5000" vehsPerHour="497.2653176601454"/>
  <flow id="JF59110" begin="0" fromJunction="J4" toJunction="J2" end="5000" vehsPerHour="416.65158003219057"/>
  <flow id="JF59111" begin="0" fromJunction="J2" toJunction="J3" end="5000" vehsPerHour="1.626339039951935"/>
  <flow id="JF59112" begin="0" fromJunction="J2" toJunction="J0" end="5000" vehsPerHour="21.07727779311096"/>
  <flow id="JF59113" begin="0" fromJunction="J4" toJunction="J3" end="5000" vehsPerHour="27.417026336232418"/>
  <flow id="JF59114" begin="0" fromJunction="J4" toJunction="J0" end="5000" vehsPerHour="136.10404630382058"/>
  <flow id="JF59115" begin="5000" fromJunction="J2" toJunction="J3" end="5060" vehsPerHour="9.759136394130781"/>
  <flow id="JF59116" begin="5000" fromJunction="J2" toJunction="J4" end="5060" vehsPerHour="116.04656236865002"/>
  <flow id="JF59117" begin="5000" fromJunction="J3" toJunction="J0" end="5060" vehsPerHour="82.79185733576803"/>
  <flow id="JF59118" begin="5000" fromJunction="J3" toJunction="J4" end="5060" vehsPerHour="64.41060846714213"/>
  <flow id="JF59119" begin="5000" fromJunction="J4" toJunction="J0" end="5060" vehsPerHour="1.379409599086456"/>
  <flow id="JF59120" begin="5000" fromJunction="J4" toJunction="J2" end="5060" vehsPerHour="70.91160899754217"/>
  <flow id="JF59121" begin="5060" fromJunction="J0" toJunction="J2" end="5120" vehsPerHour="19.63464952863688"/>
  <flow id="JF59122" begin="5060" fromJunction="J0" toJunction="J4" end="5120" vehsPerHour="47.02018006751312"/>
  <flow id="JF59123" begin="5060" fromJunction="J2" toJunction="J0" end="5120" vehsPerHour="116.58993534685031"/>
  <flow id="JF59124" begin="5060" fromJunction="J2" toJunction="J3" end="5120" vehsPerHour="3.0747304427104294"/>
  <flow id="JF59125" begin="5060" fromJunction="J3" toJunction="J2" end="5120" vehsPerHour="35.63639747290552"/>
  <flow id="JF59126" begin="5060" fromJunction="J3" toJunction="J4" end="5120" vehsPerHour="10.962913808394628"/>
  <flow id="JF59127" begin="5120" fromJunction="J0" toJunction="J3" end="5180" vehsPerHour="25.44093894045798"/>
  <flow id="JF59128" begin="5120" fromJunction="J2" toJunction="J0" end="5180" vehsPerHour="73.4342335025945"/>
  <flow id="JF59129" begin="5120" fromJunction="J2" toJunction="J3" end="5180" vehsPerHour="125.73051388697054"/>
  <flow id="JF59130" begin="5120" fromJunction="J3" toJunction="J4" end="5180" vehsPerHour="107.6670529782506"/>
  <flow id="JF59131" begin="5120" fromJunction="J4" toJunction="J2" end="5180" vehsPerHour="112.16756716844984"/>
  <flow id="JF59132" begin="5180" fromJunction="J0" toJunction="J2" end="5240" vehsPerHour="125.03915706710954"/>
  <flow id="JF59133" begin="5180" fromJunction="J0" toJunction="J3" end="5240" vehsPerHour="76.30942288125266"/>
  <flow id="JF59134" begin="5180" fromJunction="J0" toJunction="J4" end="5240" vehsPerHour="4.556885468499469"/>
  <flow id="JF59135" begin="5180" fromJunction="J2" toJunction="J0" end="5240" vehsPerHour="32.13837987214579"/>
  <flow id="JF59136" begin="5180" fromJunction="J2" toJunction="J3" end="5240" vehsPerHour="74.04402901031428"/>
  <flow id="JF59137" begin="5180" fromJunction="J2" toJunction="J4" end="5240" vehsPerHour="117.66012996303448"/>
  <flow id="JF59138" begin="5180" fromJunction="J3" toJunction="J2" end="5240" vehsPerHour="76.0819925953061"/>
  <flow id="JF59139" begin="5180" fromJunction="J3" toJunction="J4" end="5240" vehsPerHour="50.28110840619877"/>
  <flow id="JF59140" begin="5180" fromJunction="J4" toJunction="J0" end="5240" vehsPerHour="50.463962940772845"/>
  <flow id="JF59141" begin="5180" fromJunction="J4" toJunction="J2" end="5240" vehsPerHour="33.279525447436924"/>
  <flow id="JF59142" begin="5180" fromJunction="J4" toJunction="J3" end="5240" vehsPerHour="86.47285067363534"/>
  <flow id="JF59143" begin="5240" fromJunction="J0" toJunction="J2" end="5300" vehsPerHour="62.849176675607225"/>
  <flow id="JF59144" begin="5240" fromJunction="J0" toJunction="J4" end="5300" vehsPerHour="60.26542657127209"/>
  <flow id="JF59145" begin="5240" fromJunction="J2" toJunction="J0" end="5300" vehsPerHour="99.1717044676614"/>
  <flow id="JF59146" begin="5240" fromJunction="J2" toJunction="J3" end="5300" vehsPerHour="26.663507111393816"/>
  <flow id="JF59147" begin="5240" fromJunction="J3" toJunction="J0" end="5300" vehsPerHour="13.692103853602765"/>
  <flow id="JF59148" begin="5240" fromJunction="J3" toJunction="J2" end="5300" vehsPerHour="58.92828007954323"/>
  <flow id="JF59149" begin="5240" fromJunction="J3" toJunction="J4" end="5300" vehsPerHour="38.26059900924293"/>
  <flow id="JF59150" begin="5240" fromJunction="J4" toJunction="J0" end="5300" vehsPerHour="110.60785271763477"/>
  <flow id="JF59151" begin="5240" fromJunction="J4" toJunction="J2" end="5300" vehsPerHour="108.67023961451356"/>
  <flow id="JF59152" begin="5240" fromJunction="J4" toJunction="J3" end="5300" vehsPerHour="19.628740653812937"/>
  <flow id="JF59153" begin="5300" fromJunction="J0" toJunction="J2" end="5360" vehsPerHour="80.40632788940854"/>
  <flow id="JF59154" begin="5300" fromJunction="J0" toJunction="J3" end="5360" vehsPerHour="126.89134481344577"/>
  <flow id="JF59155" begin="5300" fromJunction="J0" toJunction="J4" end="5360" vehsPerHour="73.24330268448833"/>
  <flow id="JF59156" begin="5300" fromJunction="J2" toJunction="J0" end="5360" vehsPerHour="35.75288454512365"/>
  <flow id="JF59157" begin="5300" fromJunction="J2" toJunction="J3" end="5360" vehsPerHour="22.370498856258983"/>
  <flow id="JF59158" begin="5300" fromJunction="J2" toJunction="J4" end="5360" vehsPerHour="37.23749624039495"/>
  <flow id="JF59159" begin="5300" fromJunction="J3" toJunction="J0" end="5360" vehsPerHour="38.285534936503616"/>
  <flow id="JF59160" begin="5300" fromJunction="J3" toJunction="J2" end="5360" vehsPerHour="68.99132205351884"/>
  <flow id="JF59161" begin="5300" fromJunction="J4" toJunction="J0" end="5360" vehsPerHour="104.43835061576983"/>
  <flow id="JF59162" begin="5360" fromJunction="J0" toJunction="J2" end="5420" vehsPerHour="44.70901155742582"/>
  <flow id="JF59163" begin="5360" fromJunction="J2" toJunction="J0" end="5420" vehsPerHour="88.56740682564069"/>
  <flow id="JF59164" begin="5360" fromJunction="J2" toJunction="J3" end="5420" vehsPerHour="95.4526008297395"/>
  <flow id="JF59165" begin="5360" fromJunction="J2" toJunction="J4" end="5420" vehsPerHour="12.304655070473471"/>
  <flow id="JF59166" begin="5360" fromJunction="J3" toJunction="J0" end="5420" vehsPerHour="63.29356340291316"/>
  <flow id="JF59167" begin="5360" fromJunction="J3" toJunction="J2" end="5420" vehsPerHour="90.55435566200329"/>
  <flow id="JF59168" begin="5360" fromJunction="J3" toJunction="J4" end="5420" vehsPerHour="34.03709870710748"/>
  <flow id="JF59169" begin="5360" fromJunction="J4" toJunction="J0" end="5420" vehsPerHour="78.04217648314244"/>
  <flow id="JF59170" begin="5360" fromJunction="J4" toJunction="J2" end="5420" vehsPerHour="15.162133764225207"/>
  <flow id="JF59171" begin="5360" fromJunction="J4" toJunction="J3" end="5420" vehsPerHour="105.75836961770466"/>
  <flow id="JF59172" begin="5420" fromJunction="J2" toJunction="J0" end="5480" vehsPerHour="101.00340608213358"/>
  <flow id="JF59173" begin="5420" fromJunction="J2" toJunction="J3" end="5480" vehsPerHour="18.792483852537078"/>
  <flow id="JF59174" begin="5420" fromJunction="J2" toJunction="J4" end="5480" vehsPerHour="10.11475795746728"/>
  <flow id="JF59175" begin="5420" fromJunction="J3" toJunction="J2" end="5480" vehsPerHour="6.65160268569844"/>
  <flow id="JF59176" begin="5420" fromJunction="J4" toJunction="J2" end="5480" vehsPerHour="52.72374188733308"/>
  <flow id="JF59177" begin="5420" fromJunction="J4" toJunction="J3" end="5480" vehsPerHour="25.141049928077646"/>
  <flow id="JF59178" begin="5480" fromJunction="J0" toJunction="J2" end="5540" vehsPerHour="114.47976881818019"/>
  <flow id="JF59179" begin="5480" fromJunction="J0" toJunction="J3" end="5540" vehsPerHour="93.85918208194826"/>
  <flow id="JF59180" begin="5480" fromJunction="J0" toJunction="J4" end="5540" vehsPerHour="27.81610392074475"/>
  <flow id="JF59181" begin="5480" fromJunction="J2" toJunction="J0" end="5540" vehsPerHour="28.544782494147224"/>
  <flow id="JF59182" begin="5480" fromJunction="J2" toJunction="J4" end="5540" vehsPerHour="71.05199408031892"/>
  <flow id="JF59183" begin="5480" fromJunction="J3" toJunction="J0" end="5540" vehsPerHour="129.60375761464311"/>
  <flow id="JF59184" begin="5480" fromJunction="J3" toJunction="J2" end="5540" vehsPerHour="49.81117846273893"/>
  <flow id="JF59185" begin="5480" fromJunction="J3" toJunction="J4" end="5540" vehsPerHour="88.35786675298179"/>
  <flow id="JF59186" begin="5480" fromJunction="J4" toJunction="J0" end="5540" vehsPerHour="32.79655126579747"/>
  <flow id="JF59187" begin="5480" fromJunction="J4" toJunction="J3" end="5540" vehsPerHour="125.43098909990717"/>
  <flow id="JF59188" begin="5540" fromJunction="J0" toJunction="J3" end="5600" vehsPerHour="36.344273626385586"/>
  <flow id="JF59189" begin="5540" fromJunction="J2" toJunction="J0" end="5600" vehsPerHour="117.28168438833907"/>
  <flow id="JF59190" begin="5540" fromJunction="J2" toJunction="J3" end="5600" vehsPerHour="90.45440299146489"/>
  <flow id="JF59191" begin="5540" fromJunction="J3" toJunction="J0" end="5600" vehsPerHour="50.24255861115774"/>
  <flow id="JF59192" begin="5540" fromJunction="J4" toJunction="J2" end="5600" vehsPerHour="71.19025302462065"/>
  <flow id="JF59193" begin="5540" fromJunction="J4" toJunction="J3" end="5600" vehsPerHour="58.399870792529924"/>
  <flow id="JF59194" begin="5600" fromJunction="J0" toJunction="J2" end="5660" vehsPerHour="64.07282257480057"/>
  <flow id="JF59195" begin="5600" fromJunction="J0" toJunction="J3" end="5660" vehsPerHour="85.10088291830505"/>
  <flow id="JF59196" begin="5600" fromJunction="J0" toJunction="J4" end="5660" vehsPerHour="74.22946818171917"/>
  <flow id="JF59197" begin="5600" fromJunction="J2" toJunction="J4" end="5660" vehsPerHour="35.916310105728485"/>
  <flow id="JF59198" begin="5600" fromJunction="J3" toJunction="J2" end="5660" vehsPerHour="48.70438567175929"/>
  <flow id="JF59199" begin="5600" fromJunction="J3" toJunction="J4" end="5660" vehsPerHour="64.34200285948232"/>
  <flow id="JF59200" begin="5600" fromJunction="J4" toJunction="J0" end="5660" vehsPerHour="79.96260652652629"/>
  <flow id="JF59201" begin="5600" fromJunction="J4" toJunction="J2" end="5660" vehsPerHour="47.73463849135804"/>
  <flow id="JF59202" begin="5660" fromJunction="J0" toJunction="J2" end="5720" vehsPerHour="41.184087593075056"/>
  <flow id="JF59203" begin="5660" fromJunction="J0" toJunction="J3" end="5720" vehsPerHour="36.25479664029049"/>
  <flow id="JF59204" begin="5660" fromJunction="J0" toJunction="J4" end="5720" vehsPerHour="91.78617553389212"/>
  <flow id="JF59205" begin="5660" fromJunction="J2" toJunction="J0" end="5720" vehsPerHour="58.567978934280575"/>
  <flow id="JF59206" begin="5660" fromJunction="J2" toJunction="J4" end="5720" vehsPerHour="55.65346066041337"/>
  <flow id="JF59207" begin="5660" fromJunction="J3" toJunction="J0" end="5720" vehsPerHour="56.080051098452365"/>
  <flow id="JF59208" begin="5660" fromJunction="J3" toJunction="J2" end="5720" vehsPerHour="82.85755577494224"/>
  <flow id="JF59209" begin="5660" fromJunction="J4" toJunction="J0" end="5720" vehsPerHour="25.48123809124871"/>
  <flow id="JF59210" begin="5660" fromJunction="J4" toJunction="J2" end="5720" vehsPerHour="106.59421867577076"/>
  <flow id="JF59211" begin="5660" fromJunction="J4" toJunction="J3" end="5720" vehsPerHour="124.35058479624335"/>
  <flow id="JF59212" begin="5720" fromJunction="J0" toJunction="J2" end="5780" vehsPerHour="46.84487956083334"/>
  <flow id="JF59213" begin="5720" fromJunction="J0" toJunction="J3" end="5780" vehsPerHour="57.0905083347517"/>
  <flow id="JF59214" begin="5720" fromJunction="J0" toJunction="J4" end="5780" vehsPerHour="117.44416765604763"/>
  <flow id="JF59215" begin="5720" fromJunction="J2" toJunction="J0" end="5780" vehsPerHour="13.000264998240391"/>
  <flow id="JF59216" begin="5720" fromJunction="J2" toJunction="J3" end="5780" vehsPerHour="86.51024410071815"/>
  <flow id="JF59217" begin="5720" fromJunction="J3" toJunction="J0" end="5780" vehsPerHour="14.368434930806156"/>
  <flow id="JF59218" begin="5720" fromJunction="J3" toJunction="J2" end="5780" vehsPerHour="72.82070155677293"/>
  <flow id="JF59219" begin="5720" fromJunction="J4" toJunction="J2" end="5780" vehsPerHour="54.77432024459908"/>
  <flow id="JF59220" begin="5720" fromJunction="J4" toJunction="J3" end="5780" vehsPerHour="70.67007191612197"/>
  <flow id="JF59221" begin="5780" fromJunction="J0" toJunction="J3" end="5840" vehsPerHour="104.97694648346116"/>
  <flow id="JF59222" begin="5780" fromJunction="J2" toJunction="J0" end="5840" vehsPerHour="133.85403935567314"/>
  <flow id="JF59223" begin="5780" fromJunction="J2" toJunction="J3" end="5840" vehsPerHour="40.708141666278664"/>
  <flow id="JF59224" begin="5780" fromJunction="J3" toJunction="J2" end="5840" vehsPerHour="47.619953175988215"/>
  <flow id="JF59225" begin="5780" fromJunction="J3" toJunction="J4" end="5840" vehsPerHour="45.38640234295719"/>
  <flow id="JF59226" begin="5780" fromJunction="J4" toJunction="J3" end="5840" vehsPerHour="15.121474072442027"/>
  <flow id="JF59227" begin="5840" fromJunction="J0" toJunction="J3" end="5900" vehsPerHour="58.74698921238948"/>
  <flow id="JF59228" begin="5840" fromJunction="J0" toJunction="J4" end="5900" vehsPerHour="118.91196129628061"/>
  <flow id="JF59229" begin="5840" fromJunction="J2" toJunction="J0" end="5900" vehsPerHour="32.003341556569524"/>
  <flow id="JF59230" begin="5840" fromJunction="J3" toJunction="J0" end="5900" vehsPerHour="48.38764914906435"/>
  <flow id="JF59231" begin="5840" fromJunction="J3" toJunction="J4" end="5900" vehsPerHour="103.91655440875509"/>
  <flow id="JF59232" begin="5840" fromJunction="J4" toJunction="J0" end="5900" vehsPerHour="116.3018496012421"/>
  <flow id="JF59233" begin="5840" fromJunction="J4" toJunction="J2" end="5900" vehsPerHour="99.06974936544148"/>
  <flow id="JF59234" begin="5900" fromJunction="J0" toJunction="J2" end="5960" vehsPerHour="13.547934169897038"/>
  <flow id="JF59235" begin="5900" fromJunction="J0" toJunction="J4" end="5960" vehsPerHour="27.505563738385614"/>
  <flow id="JF59236" begin="5900" fromJunction="J2" toJunction="J0" end="5960" vehsPerHour="78.74350199314485"/>
  <flow id="JF59237" begin="5900" fromJunction="J2" toJunction="J3" end="5960" vehsPerHour="113.85925982930904"/>
  <flow id="JF59238" begin="5900" fromJunction="J2" toJunction="J4" end="5960" vehsPerHour="84.84236146886596"/>
  <flow id="JF59239" begin="5900" fromJunction="J3" toJunction="J0" end="5960" vehsPerHour="135.83330321917924"/>
  <flow id="JF59240" begin="5900" fromJunction="J4" toJunction="J0" end="5960" vehsPerHour="23.869081461990792"/>
  <flow id="JF59241" begin="5960" fromJunction="J0" toJunction="J2" end="6020" vehsPerHour="46.40493074611808"/>
  <flow id="JF59242" begin="5960" fromJunction="J0" toJunction="J3" end="6020" vehsPerHour="87.919105599024"/>
  <flow id="JF59243" begin="5960" fromJunction="J0" toJunction="J4" end="6020" vehsPerHour="12.541908511278162"/>
  <flow id="JF59244" begin="5960" fromJunction="J2" toJunction="J0" end="6020" vehsPerHour="115.94916994819874"/>
  <flow id="JF59245" begin="5960" fromJunction="J2" toJunction="J4" end="6020" vehsPerHour="85.88554440001114"/>
  <flow id="JF59246" begin="5960" fromJunction="J3" toJunction="J0" end="6020" vehsPerHour="8.522611172182797"/>
  <flow id="JF59247" begin="5960" fromJunction="J3" toJunction="J2" end="6020" vehsPerHour="93.75368892120416"/>
  <flow id="JF59248" begin="5960" fromJunction="J4" toJunction="J0" end="6020" vehsPerHour="77.1034794293276"/>
  <flow id="JF59249" begin="5960" fromJunction="J4" toJunction="J2" end="6020" vehsPerHour="26.55244160245249"/>
  <flow id="JF59250" begin="5960" fromJunction="J4" toJunction="J3" end="6020" vehsPerHour="66.09143995999365"/>
  <flow id="JF59251" begin="6020" fromJunction="J0" toJunction="J4" end="6080" vehsPerHour="51.86650288623631"/>
  <flow id="JF59252" begin="6020" fromJunction="J2" toJunction="J0" end="6080" vehsPerHour="91.94213478573668"/>
  <flow id="JF59253" begin="6020" fromJunction="J2" toJunction="J3" end="6080" vehsPerHour="99.92892499404915"/>
  <flow id="JF59254" begin="6020" fromJunction="J3" toJunction="J0" end="6080" vehsPerHour="118.7963192873149"/>
  <flow id="JF59255" begin="6020" fromJunction="J3" toJunction="J2" end="6080" vehsPerHour="14.87260137428284"/>
  <flow id="JF59256" begin="6020" fromJunction="J4" toJunction="J0" end="6080" vehsPerHour="114.11171959654244"/>
  <flow id="JF59257" begin="6080" fromJunction="J0" toJunction="J3" end="6140" vehsPerHour="12.020726726200875"/>
  <flow id="JF59258" begin="6080" fromJunction="J2" toJunction="J0" end="6140" vehsPerHour="15.224351413210627"/>
  <flow id="JF59259" begin="6080" fromJunction="J2" toJunction="J3" end="6140" vehsPerHour="114.66996944586676"/>
  <flow id="JF59260" begin="6080" fromJunction="J2" toJunction="J4" end="6140" vehsPerHour="35.640249796965286"/>
  <flow id="JF59261" begin="6080" fromJunction="J3" toJunction="J2" end="6140" vehsPerHour="9.842334222242117"/>
  <flow id="JF59262" begin="6080" fromJunction="J3" toJunction="J4" end="6140" vehsPerHour="91.98067210050772"/>
  <flow id="JF59263" begin="6080" fromJunction="J4" toJunction="J0" end="6140" vehsPerHour="118.89746301710433"/>
  <flow id="JF59264" begin="6080" fromJunction="J4" toJunction="J2" end="6140" vehsPerHour="118.24295375691031"/>
  <flow id="JF59265" begin="6140" fromJunction="J0" toJunction="J2" end="6200" vehsPerHour="131.7843647578023"/>
  <flow id="JF59266" begin="6140" fromJunction="J0" toJunction="J3" end="6200" vehsPerHour="125.68354644662026"/>
  <flow id="JF59267" begin="6140" fromJunction="J0" toJunction="J4" end="6200" vehsPerHour="74.69901377126628"/>
  <flow id="JF59268" begin="6140" fromJunction="J2" toJunction="J3" end="6200" vehsPerHour="56.67144795102122"/>
  <flow id="JF59269" begin="6140" fromJunction="J3" toJunction="J0" end="6200" vehsPerHour="91.87504911449179"/>
  <flow id="JF59270" begin="6140" fromJunction="J3" toJunction="J2" end="6200" vehsPerHour="5.872107046134671"/>
  <flow id="JF59271" begin="6140" fromJunction="J3" toJunction="J4" end="6200" vehsPerHour="100.51578849667037"/>
  <flow id="JF59272" begin="6140" fromJunction="J4" toJunction="J0" end="6200" vehsPerHour="53.837325209196315"/>
  <flow id="JF59273" begin="6140" fromJunction="J4" toJunction="J2" end="6200" vehsPerHour="24.170437332364642"/>
  <flow id="JF59274" begin="6200" fromJunction="J0" toJunction="J3" end="6260" vehsPerHour="76.4332326305325"/>
  <flow id="JF59275" begin="6200" fromJunction="J2" toJunction="J0" end="6260" vehsPerHour="68.54794801250918"/>
  <flow id="JF59276" begin="6200" fromJunction="J2" toJunction="J3" end="6260" vehsPerHour="106.24182137679252"/>
  <flow id="JF59277" begin="6200" fromJunction="J2" toJunction="J4" end="6260" vehsPerHour="125.40701658575539"/>
  <flow id="JF59278" begin="6200" fromJunction="J3" toJunction="J0" end="6260" vehsPerHour="20.26249483566989"/>
  <flow id="JF59279" begin="6200" fromJunction="J3" toJunction="J2" end="6260" vehsPerHour="47.483012820154215"/>
  <flow id="JF59280" begin="6200" fromJunction="J3" toJunction="J4" end="6260" vehsPerHour="92.76949621685243"/>
  <flow id="JF59281" begin="6200" fromJunction="J4" toJunction="J0" end="6260" vehsPerHour="9.221348147840864"/>
  <flow id="JF59282" begin="6200" fromJunction="J4" toJunction="J2" end="6260" vehsPerHour="61.31434426925294"/>
  <flow id="JF59283" begin="6260" fromJunction="J0" toJunction="J3" end="6320" vehsPerHour="71.15016345853283"/>
  <flow id="JF59284" begin="6260" fromJunction="J0" toJunction="J4" end="6320" vehsPerHour="58.66188133556415"/>
  <flow id="JF59285" begin="6260" fromJunction="J2" toJunction="J0" end="6320" vehsPerHour="20.723302866336827"/>
  <flow id="JF59286" begin="6260" fromJunction="J2" toJunction="J4" end="6320" vehsPerHour="50.49563725268674"/>
  <flow id="JF59287" begin="6260" fromJunction="J3" toJunction="J2" end="6320" vehsPerHour="10.046386864397698"/>
  <flow id="JF59288" begin="6260" fromJunction="J3" toJunction="J4" end="6320" vehsPerHour="7.798108232528532"/>
  <flow id="JF59289" begin="6260" fromJunction="J4" toJunction="J2" end="6320" vehsPerHour="107.02099681396456"/>
  <flow id="JF59290" begin="6260" fromJunction="J4" toJunction="J3" end="6320" vehsPerHour="36.20673845928742"/>
  <flow id="JF59291" begin="6320" fromJunction="J0" toJunction="J2" end="6380" vehsPerHour="8.244686579540982"/>
  <flow id="JF59292" begin="6320" fromJunction="J3" toJunction="J2" end="6380" vehsPerHour="113.25091700762032"/>
  <flow id="JF59293" begin="6320" fromJunction="J3" toJunction="J4" end="6380" vehsPerHour="103.66190959467858"/>
  <flow id="JF59294" begin="6320" fromJunction="J4" toJunction="J2" end="6380" vehsPerHour="79.6405072176817"/>
  <flow id="JF59295" begin="6320" fromJunction="J4" toJunction="J3" end="6380" vehsPerHour="41.1141483906564"/>
  <flow id="JF59296" begin="6380" fromJunction="J0" toJunction="J2" end="6440" vehsPerHour="133.01431360880923"/>
  <flow id="JF59297" begin="6380" fromJunction="J0" toJunction="J3" end="6440" vehsPerHour="77.06291917369303"/>
  <flow id="JF59298" begin="6380" fromJunction="J2" toJunction="J0" end="6440" vehsPerHour="13.458991909104572"/>
  <flow id="JF59299" begin="6380" fromJunction="J2" toJunction="J3" end="6440" vehsPerHour="25.8081996288496"/>
  <flow id="JF59300" begin="6380" fromJunction="J2" toJunction="J4" end="6440" vehsPerHour="35.47967797764876"/>
  <flow id="JF59301" begin="6380" fromJunction="J3" toJunction="J0" end="6440" vehsPerHour="118.49552445739073"/>
  <flow id="JF59302" begin="6380" fromJunction="J3" toJunction="J4" end="6440" vehsPerHour="52.488062629619236"/>
  <flow id="JF59303" begin="6380" fromJunction="J4" toJunction="J0" end="6440" vehsPerHour="14.02542245425594"/>
  <flow id="JF59304" begin="6440" fromJunction="J0" toJunction="J2" end="6500" vehsPerHour="36.29984814163967"/>
  <flow id="JF59305" begin="6440" fromJunction="J0" toJunction="J3" end="6500" vehsPerHour="76.13785156803725"/>
  <flow id="JF59306" begin="6440" fromJunction="J0" toJunction="J4" end="6500" vehsPerHour="109.343914599601"/>
  <flow id="JF59307" begin="6440" fromJunction="J2" toJunction="J4" end="6500" vehsPerHour="101.82958886506366"/>
  <flow id="JF59308" begin="6440" fromJunction="J3" toJunction="J0" end="6500" vehsPerHour="126.47911303325016"/>
  <flow id="JF59309" begin="6440" fromJunction="J3" toJunction="J2" end="6500" vehsPerHour="82.70854898627782"/>
  <flow id="JF59310" begin="6440" fromJunction="J3" toJunction="J4" end="6500" vehsPerHour="49.03742078826553"/>
  <flow id="JF59311" begin="6440" fromJunction="J4" toJunction="J0" end="6500" vehsPerHour="87.60910527974976"/>
  <flow id="JF59312" begin="6440" fromJunction="J4" toJunction="J2" end="6500" vehsPerHour="105.68825260489831"/>
  <flow id="JF59313" begin="6500" fromJunction="J0" toJunction="J3" end="6560" vehsPerHour="7.08541302749961"/>
  <flow id="JF59314" begin="6500" fromJunction="J0" toJunction="J4" end="6560" vehsPerHour="34.502481617840644"/>
  <flow id="JF59315" begin="6500" fromJunction="J2" toJunction="J4" end="6560" vehsPerHour="105.29213959738426"/>
  <flow id="JF59316" begin="6500" fromJunction="J3" toJunction="J0" end="6560" vehsPerHour="56.85261537677022"/>
  <flow id="JF59317" begin="6500" fromJunction="J3" toJunction="J2" end="6560" vehsPerHour="70.1844368879471"/>
  <flow id="JF59318" begin="6500" fromJunction="J3" toJunction="J4" end="6560" vehsPerHour="9.00347825525772"/>
  <flow id="JF59319" begin="6500" fromJunction="J4" toJunction="J2" end="6560" vehsPerHour="18.013381473704943"/>
  <flow id="JF59320" begin="6500" fromJunction="J4" toJunction="J3" end="6560" vehsPerHour="121.95117388987855"/>
  <flow id="JF59321" begin="6560" fromJunction="J0" toJunction="J3" end="6620" vehsPerHour="101.18171740193114"/>
  <flow id="JF59322" begin="6560" fromJunction="J0" toJunction="J4" end="6620" vehsPerHour="0.6893985549987577"/>
  <flow id="JF59323" begin="6560" fromJunction="J2" toJunction="J0" end="6620" vehsPerHour="79.80931785840572"/>
  <flow id="JF59324" begin="6560" fromJunction="J2" toJunction="J3" end="6620" vehsPerHour="48.995227181829236"/>
  <flow id="JF59325" begin="6560" fromJunction="J2" toJunction="J4" end="6620" vehsPerHour="134.75596613723394"/>
  <flow id="JF59326" begin="6560" fromJunction="J3" toJunction="J0" end="6620" vehsPerHour="76.79062482312804"/>
  <flow id="JF59327" begin="6560" fromJunction="J3" toJunction="J2" end="6620" vehsPerHour="133.2693213903864"/>
  <flow id="JF59328" begin="6560" fromJunction="J4" toJunction="J0" end="6620" vehsPerHour="65.85669849130429"/>
  <flow id="JF59329" begin="6560" fromJunction="J4" toJunction="J3" end="6620" vehsPerHour="24.742385804823293"/>
  <flow id="JF59330" begin="6620" fromJunction="J0" toJunction="J4" end="6680" vehsPerHour="11.254756313926437"/>
  <flow id="JF59331" begin="6620" fromJunction="J2" toJunction="J0" end="6680" vehsPerHour="11.676760126942913"/>
  <flow id="JF59332" begin="6620" fromJunction="J2" toJunction="J3" end="6680" vehsPerHour="136.76901906085993"/>
  <flow id="JF59333" begin="6620" fromJunction="J2" toJunction="J4" end="6680" vehsPerHour="54.49714218054228"/>
  <flow id="JF59334" begin="6620" fromJunction="J3" toJunction="J0" end="6680" vehsPerHour="119.12094827053636"/>
  <flow id="JF59335" begin="6620" fromJunction="J3" toJunction="J2" end="6680" vehsPerHour="69.76444885702266"/>
  <flow id="JF59336" begin="6620" fromJunction="J3" toJunction="J4" end="6680" vehsPerHour="30.451783704931838"/>
  <flow id="JF59337" begin="6620" fromJunction="J4" toJunction="J2" end="6680" vehsPerHour="58.032198162345544"/>
  <flow id="JF59338" begin="6680" fromJunction="J0" toJunction="J2" end="6740" vehsPerHour="30.337169699863544"/>
  <flow id="JF59339" begin="6680" fromJunction="J0" toJunction="J3" end="6740" vehsPerHour="23.40953718137091"/>
  <flow id="JF59340" begin="6680" fromJunction="J0" toJunction="J4" end="6740" vehsPerHour="89.95264584088982"/>
  <flow id="JF59341" begin="6680" fromJunction="J2" toJunction="J3" end="6740" vehsPerHour="14.706576006155116"/>
  <flow id="JF59342" begin="6680" fromJunction="J2" toJunction="J4" end="6740" vehsPerHour="112.41058478018029"/>
  <flow id="JF59343" begin="6680" fromJunction="J3" toJunction="J2" end="6740" vehsPerHour="88.32496838115091"/>
  <flow id="JF59344" begin="6680" fromJunction="J3" toJunction="J4" end="6740" vehsPerHour="136.2143486965005"/>
  <flow id="JF59345" begin="6680" fromJunction="J4" toJunction="J0" end="6740" vehsPerHour="98.79650847733505"/>
  <flow id="JF59346" begin="6680" fromJunction="J4" toJunction="J2" end="6740" vehsPerHour="125.9745047743134"/>
  <flow id="JF59347" begin="6740" fromJunction="J0" toJunction="J3" end="6800" vehsPerHour="66.82322898550613"/>
  <flow id="JF59348" begin="6740" fromJunction="J0" toJunction="J4" end="6800" vehsPerHour="71.7247728915511"/>
  <flow id="JF59349" begin="6740" fromJunction="J2" toJunction="J3" end="6800" vehsPerHour="79.87662891841173"/>
  <flow id="JF59350" begin="6740" fromJunction="J2" toJunction="J4" end="6800" vehsPerHour="124.97430135589795"/>
  <flow id="JF59351" begin="6740" fromJunction="J3" toJunction="J0" end="6800" vehsPerHour="4.167222236113712"/>
  <flow id="JF59352" begin="6740" fromJunction="J3" toJunction="J2" end="6800" vehsPerHour="47.805691425547664"/>
  <flow id="JF59353" begin="6740" fromJunction="J3" toJunction="J4" end="6800" vehsPerHour="82.89857409212215"/>
  <flow id="JF59354" begin="6740" fromJunction="J4" toJunction="J0" end="6800" vehsPerHour="8.017505002987837"/>
  <flow id="JF59355" begin="6740" fromJunction="J4" toJunction="J3" end="6800" vehsPerHour="24.24226551846514"/>
  <flow id="JF59356" begin="6800" fromJunction="J0" toJunction="J2" end="6860" vehsPerHour="131.45060927601781"/>
  <flow id="JF59357" begin="6800" fromJunction="J0" toJunction="J4" end="6860" vehsPerHour="132.1191367846287"/>
  <flow id="JF59358" begin="6800" fromJunction="J2" toJunction="J0" end="6860" vehsPerHour="17.338774414337518"/>
  <flow id="JF59359" begin="6800" fromJunction="J2" toJunction="J3" end="6860" vehsPerHour="53.58251193392369"/>
  <flow id="JF59360" begin="6800" fromJunction="J2" toJunction="J4" end="6860" vehsPerHour="126.14444690165541"/>
  <flow id="JF59361" begin="6800" fromJunction="J3" toJunction="J0" end="6860" vehsPerHour="83.12789412625672"/>
  <flow id="JF59362" begin="6800" fromJunction="J3" toJunction="J4" end="6860" vehsPerHour="31.388372495472492"/>
  <flow id="JF59363" begin="6800" fromJunction="J4" toJunction="J0" end="6860" vehsPerHour="48.30026070209666"/>
  <flow id="JF59364" begin="6800" fromJunction="J4" toJunction="J3" end="6860" vehsPerHour="1.1785383353461252"/>
  <flow id="JF59365" begin="6860" fromJunction="J0" toJunction="J2" end="6920" vehsPerHour="86.17115438691859"/>