<?xml version="1.0" encoding="UTF-8"?>
<routes xmlns:xsi="http://www.w3.org/2001/XMLSchema-instance" xsi:noNamespaceSchemaLocation="http://sumo.dlr.de/xsd/routes_file.xsd">
  <flow id="JF54208" begin="0" fromJunction="J3" toJunction="J0" end="5000" vehsPerHour="944.514041635784"/>
  <flow id="JF54209" begin="0" fromJunction="J0" toJunction="J3" end="5000" vehsPerHour="499.1785670927113"/>
  <flow id="JF54210" begin="0" fromJunction="J3" toJunction="J2" end="5000" vehsPerHour="42.15895863657677"/>
  <flow id="JF54211" begin="0" fromJunction="J3" toJunction="J4" end="5000" vehsPerHour="128.8004730455946"/>
  <flow id="JF54212" begin="0" fromJunction="J0" toJunction="J2" end="5000" vehsPerHour="118.70283539390743"/>
  <flow id="JF54213" begin="0" fromJunction="J0" toJunction="J4" end="5000" vehsPerHour="131.9318382929587"/>
  <flow id="JF54214" begin="0" fromJunction="J2" toJunction="J4" end="5000" vehsPerHour="512.8714205981375"/>
  <flow id="JF54215" begin="0" fromJunction="J4" toJunction="J2" end="5000" vehsPerHour="439.8778899203874"/>
  <flow id="JF54216" begin="0" fromJunction="J2" toJunction="J3" end="5000" vehsPerHour="26.106486583509717"/>
  <flow id="JF54217" begin="0" fromJunction="J2" toJunction="J0" end="5000" vehsPerHour="18.21628715640315"/>
  <flow id="JF54218" begin="0" fromJunction="J4" toJunction="J3" end="5000" vehsPerHour="31.511987829853965"/>
  <flow id="JF54219" begin="0" fromJunction="J4" toJunction="J0" end="5000" vehsPerHour="85.54304205471999"/>
  <flow id="JF54220" begin="5000" fromJunction="J0" toJunction="J2" end="5060" vehsPerHour="52.55398739873281"/>
  <flow id="JF54221" begin="5000" fromJunction="J0" toJunction="J3" end="5060" vehsPerHour="58.955452110913626"/>
  <flow id="JF54222" begin="5000" fromJunction="J0" toJunction="J4" end="5060" vehsPerHour="27.08145632362291"/>
  <flow id="JF54223" begin="5000" fromJunction="J2" toJunction="J0" end="5060" vehsPerHour="37.47840760104023"/>
  <flow id="JF54224" begin="5000" fromJunction="J2" toJunction="J3" end="5060" vehsPerHour="120.70416645620674"/>
  <flow id="JF54225" begin="5000" fromJunction="J3" toJunction="J0" end="5060" vehsPerHour="7.784535218736778"/>
  <flow id="JF54226" begin="5000" fromJunction="J3" toJunction="J2" end="5060" vehsPerHour="17.58353712826768"/>
  <flow id="JF54227" begin="5000" fromJunction="J4" toJunction="J0" end="5060" vehsPerHour="25.487745472353716"/>
  <flow id="JF54228" begin="5000" fromJunction="J4" toJunction="J3" end="5060" vehsPerHour="136.65766441903583"/>
  <flow id="JF54229" begin="5060" fromJunction="J0" toJunction="J2" end="5120" vehsPerHour="25.099260368834035"/>
  <flow id="JF54230" begin="5060" fromJunction="J0" toJunction="J3" end="5120" vehsPerHour="76.15529591080428"/>
  <flow id="JF54231" begin="5060" fromJunction="J0" toJunction="J4" end="5120" vehsPerHour="48.23999662213302"/>
  <flow id="JF54232" begin="5060" fromJunction="J2" toJunction="J0" end="5120" vehsPerHour="14.44518049803138"/>
  <flow id="JF54233" begin="5060" fromJunction="J2" toJunction="J4" end="5120" vehsPerHour="101.24550243065349"/>
  <flow id="JF54234" begin="5060" fromJunction="J3" toJunction="J0" end="5120" vehsPerHour="46.08022425855242"/>
  <flow id="JF54235" begin="5060" fromJunction="J3" toJunction="J2" end="5120" vehsPerHour="122.91967691197115"/>
  <flow id="JF54236" begin="5060" fromJunction="J3" toJunction="J4" end="5120" vehsPerHour="74.98831761659083"/>
  <flow id="JF54237" begin="5060" fromJunction="J4" toJunction="J2" end="5120" vehsPerHour="49.61740359241519"/>
  <flow id="JF54238" begin="5060" fromJunction="J4" toJunction="J3" end="5120" vehsPerHour="14.295027401162308"/>
  <flow id="JF54239" begin="5120" fromJunction="J0" toJunction="J3" end="5180" vehsPerHour="83.28622908162386"/>
  <flow id="JF54240" begin="5120" fromJunction="J0" toJunction="J4" end="5180" vehsPerHour="19.284233746802446"/>
  <flow id="JF54241" begin="5120" fromJunction="J2" toJunction="J0" end="5180" vehsPerHour="43.58279669907444"/>
  <flow id="JF54242" begin="5120" fromJunction="J2" toJunction="J3" end="5180" vehsPerHour="31.730287952142856"/>
  <flow id="JF54243" begin="5120" fromJunction="J2" toJunction="J4" end="5180" vehsPerHour="62.47332107453563"/>
  <flow id="JF54244" begin="5120" fromJunction="J3" toJunction="J0" end="5180" vehsPerHour="58.6168954180178"/>
  <flow id="JF54245" begin="5120" fromJunction="J3" toJunction="J2" end="5180" vehsPerHour="125.63062319584401"/>
  <flow id="JF54246" begin="5120" fromJunction="J3" toJunction="J4" end="5180" vehsPerHour="38.63652603570692"/>
  <flow id="JF54247" begin="5120" fromJunction="J4" toJunction="J0" end="5180" vehsPerHour="74.2608336100866"/>
  <flow id="JF54248" begin="5120" fromJunction="J4" toJunction="J2" end="5180" vehsPerHour="46.488943949820346"/>
  <flow id="JF54249" begin="5120" fromJunction="J4" toJunction="J3" end="5180" vehsPerHour="77.82071732841402"/>
  <flow id="JF54250" begin="5180" fromJunction="J0" toJunction="J2" end="5240" vehsPerHour="80.96955814252696"/>
  <flow id="JF54251" begin="5180" fromJunction="J0" toJunction="J3" end="5240" vehsPerHour="61.17555854751027"/>
  <flow id="JF54252" begin="5180" fromJunction="J0" toJunction="J4" end="5240" vehsPerHour="101.34288340701983"/>
  <flow id="JF54253" begin="5180" fromJunction="J2" toJunction="J0" end="5240" vehsPerHour="27.84554819495314"/>
  <flow id="JF54254" begin="5180" fromJunction="J2" toJunction="J4" end="5240" vehsPerHour="4.357502040483911"/>
  <flow id="JF54255" begin="5180" fromJunction="J3" toJunction="J2" end="5240" vehsPerHour="63.6645631152702"/>
  <flow id="JF54256" begin="5180" fromJunction="J4" toJunction="J3" end="5240" vehsPerHour="6.18138179457845"/>
  <flow id="JF54257" begin="5240" fromJunction="J0" toJunction="J3" end="5300" vehsPerHour="15.87213205338945"/>
  <flow id="JF54258" begin="5240" fromJunction="J2" toJunction="J0" end="5300" vehsPerHour="113.96239556221688"/>
  <flow id="JF54259" begin="5240" fromJunction="J2" toJunction="J3" end="5300" vehsPerHour="38.80288495836742"/>
  <flow id="JF54260" begin="5240" fromJunction="J2" toJunction="J4" end="5300" vehsPerHour="98.07558952453891"/>
  <flow id="JF54261" begin="5240" fromJunction="J3" toJunction="J0" end="5300" vehsPerHour="56.9238456929849"/>
  <flow id="JF54262" begin="5240" fromJunction="J4" toJunction="J0" end="5300" vehsPerHour="37.743958853301905"/>
  <flow id="JF54263" begin="5240" fromJunction="J4" toJunction="J3" end="5300" vehsPerHour="81.38286170253699"/>
  <flow id="JF54264" begin="5300" fromJunction="J0" toJunction="J2" end="5360" vehsPerHour="51.621095970509316"/>
  <flow id="JF54265" begin="5300" fromJunction="J0" toJunction="J4" end="5360" vehsPerHour="76.54849926825155"/>
  <flow id="JF54266" begin="5300" fromJunction="J2" toJunction="J3" end="5360" vehsPerHour="111.25777781749893"/>
  <flow id="JF54267" begin="5300" fromJunction="J2" toJunction="J4" end="5360" vehsPerHour="114.1729910311417"/>
  <flow id="JF54268" begin="5300" fromJunction="J3" toJunction="J4" end="5360" vehsPerHour="103.83857219587286"/>
  <flow id="JF54269" begin="5300" fromJunction="J4" toJunction="J0" end="5360" vehsPerHour="23.96948096541355"/>
  <flow id="JF54270" begin="5300" fromJunction="J4" toJunction="J2" end="5360" vehsPerHour="34.52936830607704"/>
  <flow id="JF54271" begin="5300" fromJunction="J4" toJunction="J3" end="5360" vehsPerHour="107.9052390372098"/>
  <flow id="JF54272" begin="5360" fromJunction="J0" toJunction="J2" end="5420" vehsPerHour="121.00627897076447"/>
  <flow id="JF54273" begin="5360" fromJunction="J0" toJunction="J3" end="5420" vehsPerHour="97.10969841572773"/>
  <flow id="JF54274" begin="5360" fromJunction="J0" toJunction="J4" end="5420" vehsPerHour="87.40143023817934"/>
  <flow id="JF54275" begin="5360" fromJunction="J2" toJunction="J0" end="5420" vehsPerHour="36.48949196359119"/>
  <flow id="JF54276" begin="5360" fromJunction="J2" toJunction="J3" end="5420" vehsPerHour="81.90699796624565"/>
  <flow id="JF54277" begin="5360" fromJunction="J2" toJunction="J4" end="5420" vehsPerHour="65.90851135355483"/>
  <flow id="JF54278" begin="5360" fromJunction="J3" toJunction="J2" end="5420" vehsPerHour="2.499751547312334"/>
  <flow id="JF54279" begin="5360" fromJunction="J3" toJunction="J4" end="5420" vehsPerHour="20.35616371767498"/>
  <flow id="JF54280" begin="5360" fromJunction="J4" toJunction="J2" end="5420" vehsPerHour="43.946200573988826"/>
  <flow id="JF54281" begin="5360" fromJunction="J4" toJunction="J3" end="5420" vehsPerHour="47.822894318894555"/>
  <flow id="JF54282" begin="5420" fromJunction="J0" toJunction="J2" end="5480" vehsPerHour="117.57510053775799"/>
  <flow id="JF54283" begin="5420" fromJunction="J0" toJunction="J3" end="5480" vehsPerHour="137.06239584088624"/>
  <flow id="JF54284" begin="5420" fromJunction="J0" toJunction="J4" end="5480" vehsPerHour="26.340134353053276"/>
  <flow id="JF54285" begin="5420" fromJunction="J2" toJunction="J3" end="5480" vehsPerHour="23.878513503365287"/>
  <flow id="JF54286" begin="5420" fromJunction="J3" toJunction="J0" end="5480" vehsPerHour="109.04272257602645"/>
  <flow id="JF54287" begin="5420" fromJunction="J3" toJunction="J2" end="5480" vehsPerHour="52.693490829709944"/>
  <flow id="JF54288" begin="5420" fromJunction="J3" toJunction="J4" end="5480" vehsPerHour="125.83953796964943"/>
  <flow id="JF54289" begin="5420" fromJunction="J4" toJunction="J2" end="5480" vehsPerHour="66.18397850462856"/>
  <flow id="JF54290" begin="5480" fromJunction="J0" toJunction="J2" end="5540" vehsPerHour="9.136601779379548"/>
  <flow id="JF54291" begin="5480" fromJunction="J0" toJunction="J3" end="5540" vehsPerHour="99.1953086911886"/>
  <flow id="JF54292" begin="5480" fromJunction="J0" toJunction="J4" end="5540" vehsPerHour="0.726831472850245"/>
  <flow id="JF54293" begin="5480" fromJunction="J2" toJunction="J3" end="5540" vehsPerHour="37.858373624103244"/>
  <flow id="JF54294" begin="5480" fromJunction="J2" toJunction="J4" end="5540" vehsPerHour="92.55151466009275"/>
  <flow id="JF54295" begin="5480" fromJunction="J3" toJunction="J2" end="5540" vehsPerHour="55.893248877463286"/>
  <flow id="JF54296" begin="5480" fromJunction="J4" toJunction="J2" end="5540" vehsPerHour="3.807890102241361"/>
  <flow id="JF54297" begin="5480" fromJunction="J4" toJunction="J3" end="5540" vehsPerHour="27.311315668218334"/>
  <flow id="JF54298" begin="5540" fromJunction="J0" toJunction="J3" end="5600" vehsPerHour="119.65386192873416"/>
  <flow id="JF54299" begin="5540" fromJunction="J0" toJunction="J4" end="5600" vehsPerHour="85.03773356388078"/>
  <flow id="JF54300" begin="5540" fromJunction="J2" toJunction="J0" end="5600" vehsPerHour="50.59416789667452"/>
  <flow id="JF54301" begin="5540" fromJunction="J2" toJunction="J3" end="5600" vehsPerHour="71.91533633670448"/>
  <flow id="JF54302" begin="5540" fromJunction="J3" toJunction="J0" end="5600" vehsPerHour="81.33195780545825"/>
  <flow id="JF54303" begin="5540" fromJunction="J3" toJunction="J2" end="5600" vehsPerHour="121.21040017351451"/>
  <flow id="JF54304" begin="5540" fromJunction="J3" toJunction="J4" end="5600" vehsPerHour="114.10792702603537"/>
  <flow id="JF54305" begin="5540" fromJunction="J4" toJunction="J2" end="5600" vehsPerHour="9.912369706203142"/>
  <flow id="JF54306" begin="5540" fromJunction="J4" toJunction="J3" end="5600" vehsPerHour="5.256139877122346"/>
  <flow id="JF54307" begin="5600" fromJunction="J0" toJunction="J3" end="5660" vehsPerHour="135.235201212482"/>
  <flow id="JF54308" begin="5600" fromJunction="J0" toJunction="J4" end="5660" vehsPerHour="5.329844799296948"/>
  <flow id="JF54309" begin="5600" fromJunction="J2" toJunction="J3" end="5660" vehsPerHour="0.5518542957687523"/>
  <flow id="JF54310" begin="5600" fromJunction="J3" toJunction="J0" end="5660" vehsPerHour="96.49048535563279"/>
  <flow id="JF54311" begin="5600" fromJunction="J3" toJunction="J2" end="5660" vehsPerHour="45.73813891609153"/>
  <flow id="JF54312" begin="5600" fromJunction="J3" toJunction="J4" end="5660" vehsPerHour="41.25456045412739"/>
  <flow id="JF54313" begin="5600" fromJunction="J4" toJunction="J0" end="5660" vehsPerHour="19.031835882245552"/>
  <flow id="JF54314" begin="5600" fromJunction="J4" toJunction="J2" end="5660" vehsPerHour="43.687373075680654"/>
  <flow id="JF54315" begin="5600" fromJunction="J4" toJunction="J3" end="5660" vehsPerHour="100.4793742702605"/>
  <flow id="JF54316" begin="5660" fromJunction="J0" toJunction="J2" end="5720" vehsPerHour="69.14333826082017"/>
  <flow id="JF54317" begin="5660" fromJunction="J0" toJunction="J3" end="5720" vehsPerHour="79.49698033472417"/>
  <flow id="JF54318" begin="5660" fromJunction="J0" toJunction="J4" end="5720" vehsPerHour="94.04848972514452"/>
  <flow id="JF54319" begin="5660" fromJunction="J2" toJunction="J0" end="5720" vehsPerHour="23.72078656372139"/>
  <flow id="JF54320" begin="5660" fromJunction="J2" toJunction="J4" end="5720" vehsPerHour="38.26867136119343"/>
  <flow id="JF54321" begin="5660" fromJunction="J3" toJunction="J0" end="5720" vehsPerHour="19.617760286750276"/>
  <flow id="JF54322" begin="5660" fromJunction="J3" toJunction="J2" end="5720" vehsPerHour="64.15844659224095"/>
  <flow id="JF54323" begin="5660" fromJunction="J4" toJunction="J0" end="5720" vehsPerHour="5.098247345606974"/>
  <flow id="JF54324" begin="5660" fromJunction="J4" toJunction="J2" end="5720" vehsPerHour="107.36133331544748"/>
  <flow id="JF54325" begin="5720" fromJunction="J0" toJunction="J2" end="5780" vehsPerHour="102.97922031177234"/>
  <flow id="JF54326" begin="5720" fromJunction="J0" toJunction="J3" end="5780" vehsPerHour="130.20047195259565"/>
  <flow id="JF54327" begin="5720" fromJunction="J0" toJunction="J4" end="5780" vehsPerHour="0.23659743237272754"/>
  <flow id="JF54328" begin="5720" fromJunction="J2" toJunction="J0" end="5780" vehsPerHour="54.58136659147855"/>
  <flow id="JF54329" begin="5720" fromJunction="J2" toJunction="J4" end="5780" vehsPerHour="14.011863334568362"/>
  <flow id="JF54330" begin="5720" fromJunction="J3" toJunction="J2" end="5780" vehsPerHour="107.24874472661459"/>
  <flow id="JF54331" begin="5720" fromJunction="J3" toJunction="J4" end="5780" vehsPerHour="60.766708583616094"/>
  <flow id="JF54332" begin="5720" fromJunction="J4" toJunction="J0" end="5780" vehsPerHour="44.83568589807972"/>
  <flow id="JF54333" begin="5720" fromJunction="J4" toJunction="J3" end="5780" vehsPerHour="79.93031911854025"/>
  <flow id="JF54334" begin="5780" fromJunction="J0" toJunction="J2" end="5840" vehsPerHour="0.0694102094641609"/>
  <flow id="JF54335" begin="5780" fromJunction="J0" toJunction="J4" end="5840" vehsPerHour="123.96769406216093"/>
  <flow id="JF54336" begin="5780" fromJunction="J2" toJunction="J0" end="5840" vehsPerHour="19.15982859738393"/>
  <flow id="JF54337" begin="5780" fromJunction="J2" toJunction="J3" end="5840" vehsPerHour="39.34899823025435"/>
  <flow id="JF54338" begin="5780" fromJunction="J3" toJunction="J0" end="5840" vehsPerHour="6.605103188672735"/>
  <flow id="JF54339" begin="5780" fromJunction="J3" toJunction="J2" end="5840" vehsPerHour="117.04719070923207"/>
  <flow id="JF54340" begin="5780" fromJunction="J3" toJunction="J4" end="5840" vehsPerHour="36.725707843000826"/>
  <flow id="JF54341" begin="5780" fromJunction="J4" toJunction="J0" end="5840" vehsPerHour="50.762886177108776"/>
  <flow id="JF54342" begin="5780" fromJunction="J4" toJunction="J2" end="5840" vehsPerHour="97.2507863818383"/>
  <flow id="JF54343" begin="5780" fromJunction="J4" toJunction="J3" end="5840" vehsPerHour="52.26617066403032"/>
  <flow id="JF54344" begin="5840" fromJunction="J0" toJunction="J2" end="5900" vehsPerHour="95.66170056761645"/>
  <flow id="JF54345" begin="5840" fromJunction="J0" toJunction="J4" end="5900" vehsPerHour="4.998650794973185"/>
  <flow id="JF54346" begin="5840" fromJunction="J2" toJunction="J3" end="5900" vehsPerHour="49.443698061577145"/>
  <flow id="JF54347" begin="5840" fromJunction="J3" toJunction="J2" end="5900" vehsPerHour="115.49054400420512"/>
  <flow id="JF54348" begin="5840" fromJunction="J3" toJunction="J4" end="5900" vehsPerHour="136.4503607016572"/>
  <flow id="JF54349" begin="5840" fromJunction="J4" toJunction="J2" end="5900" vehsPerHour="48.80053588674534"/>
  <flow id="JF54350" begin="5840" fromJunction="J4" toJunction="J3" end="5900" vehsPerHour="113.5587913527204"/>
  <flow id="JF54351" begin="5900" fromJunction="J0" toJunction="J2" end="5960" vehsPerHour="28.79730509416022"/>
  <flow id="JF54352" begin="5900" fromJunction="J0" toJunction="J3" end="5960" vehsPerHour="64.37818933039394"/>
  <flow id="JF54353" begin="5900" fromJunction="J0" toJunction="J4" end="5960" vehsPerHour="95.4124932283501"/>
  <flow id="JF54354" begin="5900" fromJunction="J2" toJunction="J3" end="5960" vehsPerHour="71.04038105070589"/>
  <flow id="JF54355" begin="5900" fromJunction="J2" toJunction="J4" end="5960" vehsPerHour="27.545761004694352"/>
  <flow id="JF54356" begin="5900" fromJunction="J3" toJunction="J2" end="5960" vehsPerHour="86.18935827812734"/>
  <flow id="JF54357" begin="5900" fromJunction="J3" toJunction="J4" end="5960" vehsPerHour="29.386075799363944"/>
  <flow id="JF54358" begin="5900" fromJunction="J4" toJunction="J2" end="5960" vehsPerHour="48.677464387745644"/>
  <flow id="JF54359" begin="5900" fromJunction="J4" toJunction="J3" end="5960" vehsPerHour="130.0715252350456"/>
  <flow id="JF54360" begin="5960" fromJunction="J0" toJunction="J2" end="6020" vehsPerHour="27.274479658898667"/>
  <flow id="JF54361" begin="5960" fromJunction="J0" toJunction="J3" end="6020" vehsPerHour="114.6576138487395"/>
  <flow id="JF54362" begin="5960" fromJunction="J0" toJunction="J4" end="6020" vehsPerHour="92.01338107560504"/>
  <flow id="JF54363" begin="5960" fromJunction="J2" toJunction="J0" end="6020" vehsPerHour="2.113559953117462"/>
  <flow id="JF54364" begin="5960" fromJunction="J2" toJunction="J3" end="6020" vehsPerHour="0.25792502267876627"/>
  <flow id="JF54365" begin="5960" fromJunction="J2" toJunction="J4" end="6020" vehsPerHour="98.08554801724706"/>
  <flow id="JF54366" begin="5960" fromJunction="J3" toJunction="J0" end="6020" vehsPerHour="104.0849405854496"/>
  <flow id="JF54367" begin="5960" fromJunction="J3" toJunction="J2" end="6020" vehsPerHour="68.7542557012157"/>
  <flow id="JF54368" begin="5960" fromJunction="J3" toJunction="J4" end="6020" vehsPerHour="77.87926257084617"/>
  <flow id="JF54369" begin="5960" fromJunction="J4" toJunction="J0" end="6020" vehsPerHour="108.17609339680597"/>
  <flow id="JF54370" begin="5960" fromJunction="J4" toJunction="J2" end="6020" vehsPerHour="4.939761244790266"/>
  <flow id="JF54371" begin="5960" fromJunction="J4" toJunction="J3" end="6020" vehsPerHour="68.16566811898065"/>
  <flow id="JF54372" begin="6020" fromJunction="J0" toJunction="J3" end="6080" vehsPerHour="3.149791011433855"/>
  <flow id="JF54373" begin="6020" fromJunction="J0" toJunction="J4" end="6080" vehsPerHour="64.00799566114154"/>
  <flow id="JF54374" begin="6020" fromJunction="J3" toJunction="J0" end="6080" vehsPerHour="91.0477643330441"/>
  <flow id="JF54375" begin="6020" fromJunction="J3" toJunction="J2" end="6080" vehsPerHour="137.39533544592686"/>
  <flow id="JF54376" begin="6020" fromJunction="J3" toJunction="J4" end="6080" vehsPerHour="81.17282487105878"/>
  <flow id="JF54377" begin="6020" fromJunction="J4" toJunction="J0" end="6080" vehsPerHour="45.500086179713385"/>
  <flow id="JF54378" begin="6080" fromJunction="J0" toJunction="J4" end="6140" vehsPerHour="6.106512820388983"/>
  <flow id="JF54379" begin="6080" fromJunction="J2" toJunction="J3" end="6140" vehsPerHour="63.482455695433124"/>
  <flow id="JF54380" begin="6080" fromJunction="J2" toJunction="J4" end="6140" vehsPerHour="130.4231057150267"/>
  <flow id="JF54381" begin="6080" fromJunction="J3" toJunction="J0" end="6140" vehsPerHour="88.34142484444199"/>
  <flow id="JF54382" begin="6080" fromJunction="J3" toJunction="J2" end="6140" vehsPerHour="31.222993612759584"/>
  <flow id="JF54383" begin="6080" fromJunction="J4" toJunction="J0" end="6140" vehsPerHour="90.82324514619555"/>
  <flow id="JF54384" begin="6080" fromJunction="J4" toJunction="J2" end="6140" vehsPerHour="57.75185852416601"/>
  <flow id="JF54385" begin="6140" fromJunction="J0" toJunction="J2" end="6200" vehsPerHour="45.27373362318878"/>
  <flow id="JF54386" begin="6140" fromJunction="J2" toJunction="J0" end="6200" vehsPerHour="136.83336354983197"/>
  <flow id="JF54387" begin="6140" fromJunction="J2" toJunction="J3" end="6200" vehsPerHour="81.7302091255645"/>
  <flow id="JF54388" begin="6140" fromJunction="J3" toJunction="J2" end="6200" vehsPerHour="71.20353179314004"/>
  <flow id="JF54389" begin="6140" fromJunction="J3" toJunction="J4" end="6200" vehsPerHour="44.573387875868015"/>
  <flow id="JF54390" begin="6140" fromJunction="J4" toJunction="J2" end="6200" vehsPerHour="76.33145264870143"/>
  <flow id="JF54391" begin="6200" fromJunction="J0" toJunction="J2" end="6260" vehsPerHour="122.54385859427946"/>
  <flow id="JF54392" begin="6200" fromJunction="J0" toJunction="J3" end="6260" vehsPerHour="102.13169175669564"/>
  <flow id="JF54393" begin="6200" fromJunction="J0" toJunction="J4" end="6260" vehsPerHour="27.744985859873825"/>
  <flow id="JF54394" begin="6200" fromJunction="J2" toJunction="J0" end="6260" vehsPerHour="82.23383641047859"/>
  <flow id="JF54395" begin="6200" fromJunction="J2" toJunction="J4" end="6260" vehsPerHour="11.299717381162765"/>
  <flow id="JF54396" begin="6200" fromJunction="J3" toJunction="J4" end="6260" vehsPerHour="21.914006469887216"/>
  <flow id="JF54397" begin="6200" fromJunction="J4" toJunction="J0" end="6260" vehsPerHour="104.13511800818166"/>
  <flow id="JF54398" begin="6200" fromJunction="J4" toJunction="J2" end="6260" vehsPerHour="133.29320867975144"/>
  <flow id="JF54399" begin="6260" fromJunction="J0" toJunction="J2" end="6320" vehsPerHour="18.579386011622773"/>
  <flow id="JF54400" begin="6260" fromJunction="J0" toJunction="J3" end="6320" vehsPerHour="8.040364316469182"/>
  <flow id="JF54401" begin="6260" fromJunction="J0" toJunction="J4" end="6320" vehsPerHour="77.88398361357683"/>
  <flow id="JF54402" begin="6260" fromJunction="J2" toJunction="J0" end="6320" vehsPerHour="55.531660048290654"/>
  <flow id="JF54403" begin="6260" fromJunction="J2" toJunction="J3" end="6320" vehsPerHour="6.477757018814325"/>
  <flow id="JF54404" begin="6260" fromJunction="J2" toJunction="J4" end="6320" vehsPerHour="13.071930401095488"/>
  <flow id="JF54405" begin="6260" fromJunction="J3" toJunction="J2" end="6320" vehsPerHour="114.39524188068872"/>
  <flow id="JF54406" begin="6260" fromJunction="J3" toJunction="J4" end="6320" vehsPerHour="22.05789435895468"/>
  <flow id="JF54407" begin="6260" fromJunction="J4" toJunction="J2" end="6320" vehsPerHour="10.804244321662676"/>
  <flow id="JF54408" begin="6260" fromJunction="J4" toJunction="J3" end="6320" vehsPerHour="90.7692435629521"/>
  <flow id="JF54409" begin="6320" fromJunction="J0" toJunction="J2" end="6380" vehsPerHour="80.105500568248"/>
  <flow id="JF54410" begin="6320" fromJunction="J0" toJunction="J3" end="6380" vehsPerHour="81.22550337727236"/>
  <flow id="JF54411" begin="6320" fromJunction="J2" toJunction="J3" end="6380" vehsPerHour="90.20819059674274"/>
  <flow id="JF54412" begin="6320" fromJunction="J2" toJunction="J4" end="6380" vehsPerHour="10.94937939147021"/>
  <flow id="JF54413" begin="6320" fromJunction="J3" toJunction="J0" end="6380" vehsPerHour="111.25980335926721"/>
  <flow id="JF54414" begin="6320" fromJunction="J3" toJunction="J2" end="6380" vehsPerHour="94.995192143644"/>
  <flow id="JF54415" begin="6320" fromJunction="J4" toJunction="J0" end="6380" vehsPerHour="84.19574174090364"/>
  <flow id="JF54416" begin="6320" fromJunction="J4" toJunction="J2" end="6380" vehsPerHour="50.83013807861838"/>
  <flow id="JF54417" begin="6320" fromJunction="J4" toJunction="J3" end="6380" vehsPerHour="5.98492569196177"/>
  <flow id="JF54418" begin="6380" fromJunction="J0" toJunction="J2" end="6440" vehsPerHour="14.120989382839298"/>
  <flow id="JF54419" begin="6380" fromJunction="J0" toJunction="J3" end="6440" vehsPerHour="108.91719603714182"/>
  <flow id="JF54420" begin="6380" fromJunction="J2" toJunction="J3" end="6440" vehsPerHour="34.28180905402665"/>
  <flow id="JF54421" begin="6380" fromJunction="J3" toJunction="J2" end="6440" vehsPerHour="73.17449279993379"/>
  <flow id="JF54422" begin="6380" fromJunction="J3" toJunction="J4" end="6440" vehsPerHour="88.7454719344391"/>
  <flow id="JF54423" begin="6380" fromJunction="J4" toJunction="J0" end="6440" vehsPerHour="34.28037810129945"/>
  <flow id="JF54424" begin="6380" fromJunction="J4" toJunction="J2" end="6440" vehsPerHour="43.24596620544567"/>
  <flow id="JF54425" begin="6380" fromJunction="J4" toJunction="J3" end="6440" vehsPerHour="92.41073036834207"/>
  <flow id="JF54426" begin="6440" fromJunction="J0" toJunction="J2" end="6500" vehsPerHour="60.90840862485778"/>
  <flow id="JF54427" begin="6440" fromJunction="J0" toJunction="J3" end="6500" vehsPerHour="61.47680721955709"/>
  <flow id="JF54428" begin="6440" fromJunction="J0" toJunction="J4" end="6500" vehsPerHour="97.96757365016458"/>
  <flow id="JF54429" begin="6440" fromJunction="J2" toJunction="J0" end="6500" vehsPerHour="31.271726729813707"/>
  <flow id="JF54430" begin="6440" fromJunction="J2" toJunction="J4" end="6500" vehsPerHour="36.2017972177366"/>
  <flow id="JF54431" begin="6440" fromJunction="J3" toJunction="J0" end="6500" vehsPerHour="32.72593418556478"/>
  <flow id="JF54432" begin="6440" fromJunction="J3" toJunction="J4" end="6500" vehsPerHour="96.80886142692432"/>
  <flow id="JF54433" begin="6440" fromJunction="J4" toJunction="J0" end="6500" vehsPerHour="55.533718823942124"/>
  <flow id="JF54434" begin="6440" fromJunction="J4" toJunction="J2" end="6500" vehsPerHour="76.8452998205741"/>
  <flow id="JF54435" begin="6440" fromJunction="J4" toJunction="J3" end="6500" vehsPerHour="10.70187031895896"/>
  <flow id="JF54436" begin="6500" fromJunction="J0" toJunction="J2" end="6560" vehsPerHour="16.41022639108999"/>
  <flow id="JF54437" begin="6500" fromJunction="J0" toJunction="J3" end="6560" vehsPerHour="109.1488585055921"/>
  <flow id="JF54438" begin="6500" fromJunction="J0" toJunction="J4" end="6560" vehsPerHour="127.32654613357634"/>
  <flow id="JF54439" begin="6500" fromJunction="J2" toJunction="J0" end="6560" vehsPerHour="107.45919649997921"/>
  <flow id="JF54440" begin="6500" fromJunction="J2" toJunction="J3" end="6560" vehsPerHour="126.32327151986641"/>
  <flow id="JF54441" begin="6500" fromJunction="J2" toJunction="J4" end="6560" vehsPerHour="126.31305786908972"/>
  <flow id="JF54442" begin="6500" fromJunction="J4" toJunction="J0" end="6560" vehsPerHour="127.17681511251877"/>
  <flow id="JF54443" begin="6500" fromJunction="J4" toJunction="J2" end="6560" vehsPerHour="97.97712815844676"/>
  <flow id="JF54444" begin="6500" fromJunction="J4" toJunction="J3" end="6560" vehsPerHour="17.785252169005876"/>
  <flow id="JF54445" begin="6560" fromJunction="J0" toJunction="J2" end="6620" vehsPerHour="120.61574438905842"/>
  <flow id="JF54446" begin="6560" fromJunction="J0" toJunction="J3" end="6620" vehsPerHour="114.14591985067781"/>
  <flow id="JF54447" begin="6560" fromJunction="J0" toJunction="J4" end="6620" vehsPerHour="61.44677698480316"/>
  <flow id="JF54448" begin="6560" fromJunction="J2" toJunction="J3" end="6620" vehsPerHour="48.36446286666106"/>
  <flow id="JF54449" begin="6560" fromJunction="J2" toJunction="J4" end="6620" vehsPerHour="11.401080131170556"/>
  <flow id="JF54450" begin="6560" fromJunction="J3" toJunction="J0" end="6620" vehsPerHour="20.108236643493484"/>
  <flow id="JF54451" begin="6560" fromJunction="J3" toJunction="J2" end="6620" vehsPerHour="80.35371396132228"/>
  <flow id="JF54452" begin="6560" fromJunction="J3" toJunction="J4" end="6620" vehsPerHour="87.47455256677259"/>
  <flow id="JF54453" begin="6560" fromJunction="J4" toJunction="J0" end="6620" vehsPerHour="33.68409316080826"/>
  <flow id="JF54454" begin="6560" fromJunction="J4" toJunction="J2" end="6620" vehsPerHour="73.42653702386174"/>
  <flow id="JF54455" begin="6620" fromJunction="J0" toJunction="J3" end="6680" vehsPerHour="11.389566450145702"/>
  <flow id="JF54456" begin="6620" fromJunction="J2" toJunction="J3" end="6680" vehsPerHour="116.89365939579773"/>
  <flow id="JF54457" begin="6620" fromJunction="J2" toJunction="J4" end="6680" vehsPerHour="5.790874660647967"/>
  <flow id="JF54458" begin="6620" fromJunction="J3" toJunction="J0" end="6680" vehsPerHour="133.02602237881948"/>
  <flow id="JF54459" begin="6620" fromJunction="J3" toJunction="J2" end="6680" vehsPerHour="45.95839665495777"/>
  <flow id="JF54460" begin="6620" fromJunction="J3" toJunction="J4" end="6680" vehsPerHour="94.51584957108702"/>
  <flow id="JF54461" begin="6620" fromJunction="J4" toJunction="J0" end="6680" vehsPerHour="26.228414480246702"/>
  <flow id="JF54462" begin="6620" fromJunction="J4" toJunction="J2" end="6680" vehsPerHour="92.1689029437216"/>
  <flow id="JF54463" begin="6620" fromJunction="J4" toJunction="J3" end="6680" vehsPerHour="5.176206304410406"/>
  <flow id="JF54464" begin="6680" fromJunction="J0" toJunction="J2" end="6740" vehsPerHour="67.73017444390628"/>
  <flow id="JF54465" begin="6680" fromJunction="J0" toJunction="J3" end="6740" vehsPerHour="43.520923471635484"/>
  <flow id="JF54466" begin="6680" fromJunction="J2" toJunction="J0" end="6740" vehsPerHour="115.15618271529672"/>
  <flow id="JF54467" begin="6680" fromJunction="J2" toJunction="J4" end="6740" vehsPerHour="7.637845159493057"/>
  <flow id="JF54468" begin="6680" fromJunction="J3" toJunction="J0" end="6740" vehsPerHour="104.53717102712922"/>
  <flow id="JF54469" begin="6680" fromJunction="J3" toJunction="J2" end="6740" vehsPerHour="89.19419149565458"/>
  <flow id="JF54470" begin="6680" fromJunction="J4" toJunction="J0" end="6740" vehsPerHour="46.599545055652904"/>