<?xml version="1.0" encoding="UTF-8"?>
<routes xmlns:xsi="http://www.w3.org/2001/XMLSchema-instance" xsi:noNamespaceSchemaLocation="http://sumo.dlr.de/xsd/routes_file.xsd">
  <flow id="JF56985" begin="0" fromJunction="J3" toJunction="J0" end="5000" vehsPerHour="211.37917960852525"/>
  <flow id="JF56986" begin="0" fromJunction="J0" toJunction="J3" end="5000" vehsPerHour="511.1854669109364"/>
  <flow id="JF56987" begin="0" fromJunction="J3" toJunction="J2" end="5000" vehsPerHour="51.91171564073352"/>
  <flow id="JF56988" begin="0" fromJunction="J3" toJunction="J4" end="5000" vehsPerHour="1.6200526634682677"/>
  <flow id="JF56989" begin="0" fromJunction="J0" toJunction="J2" end="5000" vehsPerHour="96.71872252823938"/>
  <flow id="JF56990" begin="0" fromJunction="J0" toJunction="J4" end="5000" vehsPerHour="10.226960270963302"/>
  <flow id="JF56991" begin="0" fromJunction="J2" toJunction="J4" end="5000" vehsPerHour="522.8402787812149"/>
  <flow id="JF56992" begin="0" fromJunction="J4" toJunction="J2" end="5000" vehsPerHour="531.303254366881"/>
  <flow id="JF56993" begin="0" fromJunction="J2" toJunction="J3" end="5000" vehsPerHour="121.06902612556934"/>
  <flow id="JF56994" begin="0" fromJunction="J2" toJunction="J0" end="5000" vehsPerHour="134.54448886430913"/>
  <flow id="JF56995" begin="0" fromJunction="J4" toJunction="J3" end="5000" vehsPerHour="70.57332830640436"/>
  <flow id="JF56996" begin="0" fromJunction="J4" toJunction="J0" end="5000" vehsPerHour="23.137423938687387"/>
  <flow id="JF56997" begin="5000" fromJunction="J0" toJunction="J2" end="5060" vehsPerHour="82.05587858912448"/>
  <flow id="JF56998" begin="5000" fromJunction="J0" toJunction="J4" end="5060" vehsPerHour="32.872320626536485"/>
  <flow id="JF56999" begin="5000" fromJunction="J2" toJunction="J0" end="5060" vehsPerHour="109.54301788469779"/>
  <flow id="JF57000" begin="5000" fromJunction="J2" toJunction="J3" end="5060" vehsPerHour="132.82856736699492"/>
  <flow id="JF57001" begin="5000" fromJunction="J2" toJunction="J4" end="5060" vehsPerHour="2.5133982164738113"/>
  <flow id="JF57002" begin="5000" fromJunction="J3" toJunction="J0" end="5060" vehsPerHour="73.62233542663839"/>
  <flow id="JF57003" begin="5000" fromJunction="J3" toJunction="J4" end="5060" vehsPerHour="96.37669155763145"/>
  <flow id="JF57004" begin="5000" fromJunction="J4" toJunction="J0" end="5060" vehsPerHour="42.6999385037757"/>
  <flow id="JF57005" begin="5000" fromJunction="J4" toJunction="J2" end="5060" vehsPerHour="36.46811243582846"/>
  <flow id="JF57006" begin="5000" fromJunction="J4" toJunction="J3" end="5060" vehsPerHour="94.56027747767918"/>
  <flow id="JF57007" begin="5060" fromJunction="J0" toJunction="J2" end="5120" vehsPerHour="135.39665758165674"/>
  <flow id="JF57008" begin="5060" fromJunction="J0" toJunction="J4" end="5120" vehsPerHour="33.75829246233817"/>
  <flow id="JF57009" begin="5060" fromJunction="J2" toJunction="J0" end="5120" vehsPerHour="132.84258871131527"/>
  <flow id="JF57010" begin="5060" fromJunction="J2" toJunction="J3" end="5120" vehsPerHour="40.2632943543517"/>
  <flow id="JF57011" begin="5060" fromJunction="J2" toJunction="J4" end="5120" vehsPerHour="65.36319341107409"/>
  <flow id="JF57012" begin="5060" fromJunction="J3" toJunction="J0" end="5120" vehsPerHour="52.16632974891036"/>
  <flow id="JF57013" begin="5060" fromJunction="J3" toJunction="J2" end="5120" vehsPerHour="12.872686240168555"/>
  <flow id="JF57014" begin="5060" fromJunction="J4" toJunction="J0" end="5120" vehsPerHour="99.6220762824385"/>
  <flow id="JF57015" begin="5060" fromJunction="J4" toJunction="J3" end="5120" vehsPerHour="121.48463530337835"/>
  <flow id="JF57016" begin="5120" fromJunction="J0" toJunction="J2" end="5180" vehsPerHour="31.882244767396244"/>
  <flow id="JF57017" begin="5120" fromJunction="J0" toJunction="J4" end="5180" vehsPerHour="89.66779823443508"/>
  <flow id="JF57018" begin="5120" fromJunction="J2" toJunction="J0" end="5180" vehsPerHour="24.65455892754457"/>
  <flow id="JF57019" begin="5120" fromJunction="J2" toJunction="J4" end="5180" vehsPerHour="111.6044703792597"/>
  <flow id="JF57020" begin="5120" fromJunction="J3" toJunction="J0" end="5180" vehsPerHour="130.5913476018507"/>
  <flow id="JF57021" begin="5120" fromJunction="J3" toJunction="J2" end="5180" vehsPerHour="86.77621018592838"/>
  <flow id="JF57022" begin="5120" fromJunction="J4" toJunction="J3" end="5180" vehsPerHour="42.09493765071943"/>
  <flow id="JF57023" begin="5180" fromJunction="J2" toJunction="J0" end="5240" vehsPerHour="30.68517042832947"/>
  <flow id="JF57024" begin="5180" fromJunction="J3" toJunction="J0" end="5240" vehsPerHour="99.48724578525454"/>
  <flow id="JF57025" begin="5180" fromJunction="J3" toJunction="J4" end="5240" vehsPerHour="93.30167718655845"/>
  <flow id="JF57026" begin="5180" fromJunction="J4" toJunction="J0" end="5240" vehsPerHour="79.71568601607159"/>
  <flow id="JF57027" begin="5180" fromJunction="J4" toJunction="J2" end="5240" vehsPerHour="37.60835561735534"/>
  <flow id="JF57028" begin="5180" fromJunction="J4" toJunction="J3" end="5240" vehsPerHour="47.094100536223955"/>
  <flow id="JF57029" begin="5240" fromJunction="J0" toJunction="J3" end="5300" vehsPerHour="34.84871628089341"/>
  <flow id="JF57030" begin="5240" fromJunction="J0" toJunction="J4" end="5300" vehsPerHour="120.2241428027143"/>
  <flow id="JF57031" begin="5240" fromJunction="J2" toJunction="J0" end="5300" vehsPerHour="45.658222605457716"/>
  <flow id="JF57032" begin="5240" fromJunction="J4" toJunction="J0" end="5300" vehsPerHour="116.01979836553399"/>
  <flow id="JF57033" begin="5300" fromJunction="J0" toJunction="J4" end="5360" vehsPerHour="112.10824831424252"/>
  <flow id="JF57034" begin="5300" fromJunction="J2" toJunction="J4" end="5360" vehsPerHour="121.79074157220047"/>
  <flow id="JF57035" begin="5300" fromJunction="J3" toJunction="J0" end="5360" vehsPerHour="96.99912246652309"/>
  <flow id="JF57036" begin="5300" fromJunction="J3" toJunction="J2" end="5360" vehsPerHour="101.28972698043697"/>
  <flow id="JF57037" begin="5300" fromJunction="J3" toJunction="J4" end="5360" vehsPerHour="27.83245234868712"/>
  <flow id="JF57038" begin="5300" fromJunction="J4" toJunction="J0" end="5360" vehsPerHour="82.87361108443058"/>
  <flow id="JF57039" begin="5300" fromJunction="J4" toJunction="J2" end="5360" vehsPerHour="96.44110625366771"/>
  <flow id="JF57040" begin="5300" fromJunction="J4" toJunction="J3" end="5360" vehsPerHour="45.04861172992769"/>
  <flow id="JF57041" begin="5360" fromJunction="J0" toJunction="J2" end="5420" vehsPerHour="120.17793748906796"/>
  <flow id="JF57042" begin="5360" fromJunction="J0" toJunction="J3" end="5420" vehsPerHour="91.1758210754062"/>
  <flow id="JF57043" begin="5360" fromJunction="J0" toJunction="J4" end="5420" vehsPerHour="86.92605923521052"/>
  <flow id="JF57044" begin="5360" fromJunction="J2" toJunction="J3" end="5420" vehsPerHour="29.18297156089807"/>
  <flow id="JF57045" begin="5360" fromJunction="J3" toJunction="J0" end="5420" vehsPerHour="39.83754820730458"/>
  <flow id="JF57046" begin="5360" fromJunction="J3" toJunction="J2" end="5420" vehsPerHour="5.638816584043192"/>
  <flow id="JF57047" begin="5360" fromJunction="J3" toJunction="J4" end="5420" vehsPerHour="136.77062990339772"/>
  <flow id="JF57048" begin="5360" fromJunction="J4" toJunction="J3" end="5420" vehsPerHour="104.06430433075995"/>
  <flow id="JF57049" begin="5420" fromJunction="J0" toJunction="J4" end="5480" vehsPerHour="19.641213282449062"/>
  <flow id="JF57050" begin="5420" fromJunction="J2" toJunction="J0" end="5480" vehsPerHour="134.8589893528568"/>
  <flow id="JF57051" begin="5420" fromJunction="J2" toJunction="J3" end="5480" vehsPerHour="116.55451641405446"/>
  <flow id="JF57052" begin="5420" fromJunction="J2" toJunction="J4" end="5480" vehsPerHour="94.92345599002991"/>
  <flow id="JF57053" begin="5420" fromJunction="J3" toJunction="J0" end="5480" vehsPerHour="89.85496230481343"/>
  <flow id="JF57054" begin="5420" fromJunction="J3" toJunction="J2" end="5480" vehsPerHour="35.44663219089769"/>
  <flow id="JF57055" begin="5420" fromJunction="J3" toJunction="J4" end="5480" vehsPerHour="36.46651286642358"/>
  <flow id="JF57056" begin="5420" fromJunction="J4" toJunction="J2" end="5480" vehsPerHour="74.09264679785358"/>
  <flow id="JF57057" begin="5420" fromJunction="J4" toJunction="J3" end="5480" vehsPerHour="29.583258119352287"/>
  <flow id="JF57058" begin="5480" fromJunction="J0" toJunction="J4" end="5540" vehsPerHour="68.30046351546851"/>
  <flow id="JF57059" begin="5480" fromJunction="J2" toJunction="J0" end="5540" vehsPerHour="97.13011951352827"/>
  <flow id="JF57060" begin="5480" fromJunction="J2" toJunction="J3" end="5540" vehsPerHour="116.98830061011327"/>
  <flow id="JF57061" begin="5480" fromJunction="J2" toJunction="J4" end="5540" vehsPerHour="114.3825007455329"/>
  <flow id="JF57062" begin="5480" fromJunction="J3" toJunction="J0" end="5540" vehsPerHour="90.34007360022052"/>
  <flow id="JF57063" begin="5480" fromJunction="J4" toJunction="J0" end="5540" vehsPerHour="98.13849511761158"/>
  <flow id="JF57064" begin="5480" fromJunction="J4" toJunction="J3" end="5540" vehsPerHour="52.967093068988255"/>
  <flow id="JF57065" begin="5540" fromJunction="J0" toJunction="J2" end="5600" vehsPerHour="32.23873718767199"/>
  <flow id="JF57066" begin="5540" fromJunction="J0" toJunction="J3" end="5600" vehsPerHour="129.59160922635192"/>
  <flow id="JF57067" begin="5540" fromJunction="J0" toJunction="J4" end="5600" vehsPerHour="132.93585766544285"/>
  <flow id="JF57068" begin="5540" fromJunction="J2" toJunction="J0" end="5600" vehsPerHour="127.69675127891124"/>
  <flow id="JF57069" begin="5540" fromJunction="J2" toJunction="J4" end="5600" vehsPerHour="63.66942115334898"/>
  <flow id="JF57070" begin="5540" fromJunction="J3" toJunction="J0" end="5600" vehsPerHour="20.83848092301566"/>
  <flow id="JF57071" begin="5540" fromJunction="J3" toJunction="J2" end="5600" vehsPerHour="108.04098187328016"/>
  <flow id="JF57072" begin="5540" fromJunction="J4" toJunction="J0" end="5600" vehsPerHour="129.37943585421408"/>
  <flow id="JF57073" begin="5540" fromJunction="J4" toJunction="J2" end="5600" vehsPerHour="111.76250704678512"/>
  <flow id="JF57074" begin="5540" fromJunction="J4" toJunction="J3" end="5600" vehsPerHour="7.289706484840114"/>
  <flow id="JF57075" begin="5600" fromJunction="J0" toJunction="J2" end="5660" vehsPerHour="69.30851292414589"/>
  <flow id="JF57076" begin="5600" fromJunction="J0" toJunction="J3" end="5660" vehsPerHour="33.79014973803337"/>
  <flow id="JF57077" begin="5600" fromJunction="J0" toJunction="J4" end="5660" vehsPerHour="91.30084674685942"/>
  <flow id="JF57078" begin="5600" fromJunction="J2" toJunction="J3" end="5660" vehsPerHour="61.61578135513367"/>
  <flow id="JF57079" begin="5600" fromJunction="J2" toJunction="J4" end="5660" vehsPerHour="73.92006515777302"/>
  <flow id="JF57080" begin="5600" fromJunction="J3" toJunction="J0" end="5660" vehsPerHour="96.57872290603565"/>
  <flow id="JF57081" begin="5600" fromJunction="J3" toJunction="J4" end="5660" vehsPerHour="117.04236332551005"/>
  <flow id="JF57082" begin="5600" fromJunction="J4" toJunction="J0" end="5660" vehsPerHour="83.26527945102028"/>
  <flow id="JF57083" begin="5600" fromJunction="J4" toJunction="J2" end="5660" vehsPerHour="10.605360083812691"/>
  <flow id="JF57084" begin="5600" fromJunction="J4" toJunction="J3" end="5660" vehsPerHour="123.1468282193053"/>
  <flow id="JF57085" begin="5660" fromJunction="J0" toJunction="J3" end="5720" vehsPerHour="35.31544052430124"/>
  <flow id="JF57086" begin="5660" fromJunction="J0" toJunction="J4" end="5720" vehsPerHour="1.174928558063106"/>
  <flow id="JF57087" begin="5660" fromJunction="J2" toJunction="J0" end="5720" vehsPerHour="76.65969807170697"/>
  <flow id="JF57088" begin="5660" fromJunction="J2" toJunction="J3" end="5720" vehsPerHour="24.53305191296775"/>
  <flow id="JF57089" begin="5660" fromJunction="J3" toJunction="J0" end="5720" vehsPerHour="73.08125586869194"/>
  <flow id="JF57090" begin="5660" fromJunction="J3" toJunction="J4" end="5720" vehsPerHour="18.345490071855163"/>
  <flow id="JF57091" begin="5660" fromJunction="J4" toJunction="J2" end="5720" vehsPerHour="126.25303951382341"/>
  <flow id="JF57092" begin="5720" fromJunction="J0" toJunction="J2" end="5780" vehsPerHour="69.02760654926854"/>
  <flow id="JF57093" begin="5720" fromJunction="J0" toJunction="J3" end="5780" vehsPerHour="132.6947969547049"/>
  <flow id="JF57094" begin="5720" fromJunction="J0" toJunction="J4" end="5780" vehsPerHour="129.96363570540527"/>
  <flow id="JF57095" begin="5720" fromJunction="J2" toJunction="J4" end="5780" vehsPerHour="61.92895813436514"/>
  <flow id="JF57096" begin="5720" fromJunction="J3" toJunction="J0" end="5780" vehsPerHour="95.15843487251976"/>
  <flow id="JF57097" begin="5720" fromJunction="J3" toJunction="J2" end="5780" vehsPerHour="27.946027515499576"/>
  <flow id="JF57098" begin="5720" fromJunction="J3" toJunction="J4" end="5780" vehsPerHour="68.73118804938964"/>
  <flow id="JF57099" begin="5720" fromJunction="J4" toJunction="J0" end="5780" vehsPerHour="128.13673676891807"/>
  <flow id="JF57100" begin="5720" fromJunction="J4" toJunction="J2" end="5780" vehsPerHour="129.5247757160554"/>
  <flow id="JF57101" begin="5780" fromJunction="J0" toJunction="J2" end="5840" vehsPerHour="128.95507895368704"/>
  <flow id="JF57102" begin="5780" fromJunction="J0" toJunction="J3" end="5840" vehsPerHour="122.48199151654688"/>
  <flow id="JF57103" begin="5780" fromJunction="J2" toJunction="J0" end="5840" vehsPerHour="25.251844640386985"/>
  <flow id="JF57104" begin="5780" fromJunction="J2" toJunction="J3" end="5840" vehsPerHour="119.29410831254489"/>
  <flow id="JF57105" begin="5780" fromJunction="J2" toJunction="J4" end="5840" vehsPerHour="111.12186779038664"/>
  <flow id="JF57106" begin="5780" fromJunction="J3" toJunction="J0" end="5840" vehsPerHour="45.56063517475939"/>
  <flow id="JF57107" begin="5780" fromJunction="J3" toJunction="J2" end="5840" vehsPerHour="114.44284355645858"/>
  <flow id="JF57108" begin="5780" fromJunction="J4" toJunction="J0" end="5840" vehsPerHour="49.36044471376576"/>
  <flow id="JF57109" begin="5780" fromJunction="J4" toJunction="J2" end="5840" vehsPerHour="45.104621667669036"/>
  <flow id="JF57110" begin="5780" fromJunction="J4" toJunction="J3" end="5840" vehsPerHour="1.605822664002391"/>
  <flow id="JF57111" begin="5840" fromJunction="J0" toJunction="J2" end="5900" vehsPerHour="42.886921922979624"/>
  <flow id="JF57112" begin="5840" fromJunction="J0" toJunction="J3" end="5900" vehsPerHour="135.53017882028524"/>
  <flow id="JF57113" begin="5840" fromJunction="J0" toJunction="J4" end="5900" vehsPerHour="78.78330543102477"/>
  <flow id="JF57114" begin="5840" fromJunction="J2" toJunction="J0" end="5900" vehsPerHour="2.1063772848306126"/>
  <flow id="JF57115" begin="5840" fromJunction="J2" toJunction="J3" end="5900" vehsPerHour="31.595279111894538"/>
  <flow id="JF57116" begin="5840" fromJunction="J2" toJunction="J4" end="5900" vehsPerHour="116.73833363165551"/>
  <flow id="JF57117" begin="5840" fromJunction="J3" toJunction="J0" end="5900" vehsPerHour="134.9384354361681"/>
  <flow id="JF57118" begin="5840" fromJunction="J3" toJunction="J2" end="5900" vehsPerHour="120.62289282630127"/>
  <flow id="JF57119" begin="5840" fromJunction="J4" toJunction="J2" end="5900" vehsPerHour="135.75299551133423"/>
  <flow id="JF57120" begin="5900" fromJunction="J0" toJunction="J4" end="5960" vehsPerHour="85.01363374603336"/>
  <flow id="JF57121" begin="5900" fromJunction="J2" toJunction="J0" end="5960" vehsPerHour="31.74328883977268"/>
  <flow id="JF57122" begin="5900" fromJunction="J2" toJunction="J4" end="5960" vehsPerHour="11.048212260267855"/>
  <flow id="JF57123" begin="5900" fromJunction="J3" toJunction="J2" end="5960" vehsPerHour="38.99786151841608"/>
  <flow id="JF57124" begin="5900" fromJunction="J3" toJunction="J4" end="5960" vehsPerHour="66.84433265016895"/>
  <flow id="JF57125" begin="5900" fromJunction="J4" toJunction="J3" end="5960" vehsPerHour="42.95210716798416"/>
  <flow id="JF57126" begin="5960" fromJunction="J0" toJunction="J2" end="6020" vehsPerHour="129.43513764943265"/>
  <flow id="JF57127" begin="5960" fromJunction="J0" toJunction="J3" end="6020" vehsPerHour="28.144514050245082"/>
  <flow id="JF57128" begin="5960" fromJunction="J2" toJunction="J4" end="6020" vehsPerHour="53.65353578179295"/>
  <flow id="JF57129" begin="5960" fromJunction="J3" toJunction="J0" end="6020" vehsPerHour="129.3311208252003"/>
  <flow id="JF57130" begin="5960" fromJunction="J3" toJunction="J2" end="6020" vehsPerHour="26.2556746197459"/>
  <flow id="JF57131" begin="5960" fromJunction="J3" toJunction="J4" end="6020" vehsPerHour="14.91770144185444"/>
  <flow id="JF57132" begin="5960" fromJunction="J4" toJunction="J0" end="6020" vehsPerHour="124.26553269012386"/>
  <flow id="JF57133" begin="5960" fromJunction="J4" toJunction="J3" end="6020" vehsPerHour="132.44288923811789"/>
  <flow id="JF57134" begin="6020" fromJunction="J0" toJunction="J2" end="6080" vehsPerHour="47.27716173145477"/>
  <flow id="JF57135" begin="6020" fromJunction="J2" toJunction="J0" end="6080" vehsPerHour="80.39531471438488"/>
  <flow id="JF57136" begin="6020" fromJunction="J2" toJunction="J3" end="6080" vehsPerHour="52.2826626625649"/>
  <flow id="JF57137" begin="6020" fromJunction="J2" toJunction="J4" end="6080" vehsPerHour="105.80162884147357"/>
  <flow id="JF57138" begin="6020" fromJunction="J3" toJunction="J0" end="6080" vehsPerHour="60.65250079284124"/>
  <flow id="JF57139" begin="6020" fromJunction="J3" toJunction="J2" end="6080" vehsPerHour="5.378674511682112"/>
  <flow id="JF57140" begin="6020" fromJunction="J3" toJunction="J4" end="6080" vehsPerHour="7.8324259835521675"/>
  <flow id="JF57141" begin="6020" fromJunction="J4" toJunction="J3" end="6080" vehsPerHour="16.260901711219617"/>
  <flow id="JF57142" begin="6080" fromJunction="J0" toJunction="J2" end="6140" vehsPerHour="47.08429012871756"/>
  <flow id="JF57143" begin="6080" fromJunction="J2" toJunction="J0" end="6140" vehsPerHour="36.0276069322239"/>
  <flow id="JF57144" begin="6080" fromJunction="J2" toJunction="J3" end="6140" vehsPerHour="40.59104105117956"/>
  <flow id="JF57145" begin="6080" fromJunction="J3" toJunction="J0" end="6140" vehsPerHour="87.65293374947699"/>
  <flow id="JF57146" begin="6080" fromJunction="J3" toJunction="J2" end="6140" vehsPerHour="114.5680453835009"/>
  <flow id="JF57147" begin="6080" fromJunction="J3" toJunction="J4" end="6140" vehsPerHour="6.307901535965178"/>
  <flow id="JF57148" begin="6080" fromJunction="J4" toJunction="J0" end="6140" vehsPerHour="39.21961731432064"/>
  <flow id="JF57149" begin="6080" fromJunction="J4" toJunction="J2" end="6140" vehsPerHour="137.00485210764893"/>
  <flow id="JF57150" begin="6080" fromJunction="J4" toJunction="J3" end="6140" vehsPerHour="80.85170516628631"/>
  <flow id="JF57151" begin="6140" fromJunction="J0" toJunction="J3" end="6200" vehsPerHour="96.35131782584006"/>
  <flow id="JF57152" begin="6140" fromJunction="J2" toJunction="J0" end="6200" vehsPerHour="94.36278740015541"/>
  <flow id="JF57153" begin="6140" fromJunction="J2" toJunction="J3" end="6200" vehsPerHour="125.29306276970425"/>
  <flow id="JF57154" begin="6140" fromJunction="J3" toJunction="J2" end="6200" vehsPerHour="102.42449215677102"/>
  <flow id="JF57155" begin="6140" fromJunction="J4" toJunction="J0" end="6200" vehsPerHour="18.285310561553075"/>
  <flow id="JF57156" begin="6140" fromJunction="J4" toJunction="J3" end="6200" vehsPerHour="24.69373878950092"/>
  <flow id="JF57157" begin="6200" fromJunction="J0" toJunction="J2" end="6260" vehsPerHour="39.182884672078536"/>
  <flow id="JF57158" begin="6200" fromJunction="J0" toJunction="J3" end="6260" vehsPerHour="91.32742666026782"/>
  <flow id="JF57159" begin="6200" fromJunction="J0" toJunction="J4" end="6260" vehsPerHour="134.30968257330238"/>
  <flow id="JF57160" begin="6200" fromJunction="J2" toJunction="J0" end="6260" vehsPerHour="90.64858108913793"/>
  <flow id="JF57161" begin="6200" fromJunction="J2" toJunction="J4" end="6260" vehsPerHour="122.93608138819744"/>
  <flow id="JF57162" begin="6200" fromJunction="J3" toJunction="J0" end="6260" vehsPerHour="58.06871563885041"/>
  <flow id="JF57163" begin="6200" fromJunction="J3" toJunction="J4" end="6260" vehsPerHour="21.64996301100431"/>
  <flow id="JF57164" begin="6200" fromJunction="J4" toJunction="J2" end="6260" vehsPerHour="113.53149619270839"/>
  <flow id="JF57165" begin="6260" fromJunction="J0" toJunction="J2" end="6320" vehsPerHour="47.5844850778416"/>
  <flow id="JF57166" begin="6260" fromJunction="J0" toJunction="J3" end="6320" vehsPerHour="118.75056439804128"/>
  <flow id="JF57167" begin="6260" fromJunction="J0" toJunction="J4" end="6320" vehsPerHour="93.72750378583301"/>
  <flow id="JF57168" begin="6260" fromJunction="J2" toJunction="J0" end="6320" vehsPerHour="122.56400157988375"/>
  <flow id="JF57169" begin="6260" fromJunction="J2" toJunction="J4" end="6320" vehsPerHour="60.203385146226694"/>
  <flow id="JF57170" begin="6260" fromJunction="J3" toJunction="J4" end="6320" vehsPerHour="32.08875627853138"/>
  <flow id="JF57171" begin="6260" fromJunction="J4" toJunction="J0" end="6320" vehsPerHour="91.42411278069173"/>
  <flow id="JF57172" begin="6320" fromJunction="J0" toJunction="J2" end="6380" vehsPerHour="102.78212631073006"/>
  <flow id="JF57173" begin="6320" fromJunction="J0" toJunction="J3" end="6380" vehsPerHour="65.43693918221845"/>
  <flow id="JF57174" begin="6320" fromJunction="J2" toJunction="J3" end="6380" vehsPerHour="50.88251962099749"/>
  <flow id="JF57175" begin="6320" fromJunction="J2" toJunction="J4" end="6380" vehsPerHour="46.297478554581915"/>
  <flow id="JF57176" begin="6320" fromJunction="J3" toJunction="J0" end="6380" vehsPerHour="66.2010554737941"/>
  <flow id="JF57177" begin="6320" fromJunction="J3" toJunction="J2" end="6380" vehsPerHour="107.90612984963455"/>
  <flow id="JF57178" begin="6320" fromJunction="J3" toJunction="J4" end="6380" vehsPerHour="58.231538854481585"/>
  <flow id="JF57179" begin="6320" fromJunction="J4" toJunction="J2" end="6380" vehsPerHour="94.87417585544442"/>
  <flow id="JF57180" begin="6380" fromJunction="J0" toJunction="J2" end="6440" vehsPerHour="72.2172491344665"/>
  <flow id="JF57181" begin="6380" fromJunction="J0" toJunction="J3" end="6440" vehsPerHour="0.8310276524764141"/>
  <flow id="JF57182" begin="6380" fromJunction="J0" toJunction="J4" end="6440" vehsPerHour="16.55804628176374"/>
  <flow id="JF57183" begin="6380" fromJunction="J2" toJunction="J0" end="6440" vehsPerHour="106.08871113029667"/>
  <flow id="JF57184" begin="6380" fromJunction="J2" toJunction="J3" end="6440" vehsPerHour="110.8145957736271"/>
  <flow id="JF57185" begin="6380" fromJunction="J3" toJunction="J4" end="6440" vehsPerHour="62.07763866860064"/>
  <flow id="JF57186" begin="6380" fromJunction="J4" toJunction="J2" end="6440" vehsPerHour="61.38877141074218"/>
  <flow id="JF57187" begin="6380" fromJunction="J4" toJunction="J3" end="6440" vehsPerHour="64.29686691560127"/>
  <flow id="JF57188" begin="6440" fromJunction="J0" toJunction="J2" end="6500" vehsPerHour="15.993620931526955"/>
  <flow id="JF57189" begin="6440" fromJunction="J0" toJunction="J3" end="6500" vehsPerHour="58.40364983177487"/>
  <flow id="JF57190" begin="6440" fromJunction="J0" toJunction="J4" end="6500" vehsPerHour="1.7146331762960452"/>
  <flow id="JF57191" begin="6440" fromJunction="J2" toJunction="J3" end="6500" vehsPerHour="26.06310921113704"/>
  <flow id="JF57192" begin="6440" fromJunction="J3" toJunction="J0" end="6500" vehsPerHour="25.829167308822576"/>
  <flow id="JF57193" begin="6440" fromJunction="J3" toJunction="J2" end="6500" vehsPerHour="41.831384695766225"/>
  <flow id="JF57194" begin="6440" fromJunction="J3" toJunction="J4" end="6500" vehsPerHour="45.45291669803865"/>
  <flow id="JF57195" begin="6440" fromJunction="J4" toJunction="J2" end="6500" vehsPerHour="21.892247417520615"/>
  <flow id="JF57196" begin="6500" fromJunction="J0" toJunction="J2" end="6560" vehsPerHour="99.1353802200179"/>
  <flow id="JF57197" begin="6500" fromJunction="J2" toJunction="J3" end="6560" vehsPerHour="130.6777723708782"/>
  <flow id="JF57198" begin="6500" fromJunction="J3" toJunction="J0" end="6560" vehsPerHour="81.69119315716424"/>
  <flow id="JF57199" begin="6500" fromJunction="J3" toJunction="J2" end="6560" vehsPerHour="49.12626270640049"/>
  <flow id="JF57200" begin="6500" fromJunction="J3" toJunction="J4" end="6560" vehsPerHour="38.02767198178343"/>
  <flow id="JF57201" begin="6500" fromJunction="J4" toJunction="J0" end="6560" vehsPerHour="22.74296561536656"/>
  <flow id="JF57202" begin="6500" fromJunction="J4" toJunction="J3" end="6560" vehsPerHour="122.80877244059977"/>
  <flow id="JF57203" begin="6560" fromJunction="J0" toJunction="J3" end="6620" vehsPerHour="68.0843387995544"/>
  <flow id="JF57204" begin="6560" fromJunction="J0" toJunction="J4" end="6620" vehsPerHour="1.0940234432770728"/>
  <flow id="JF57205" begin="6560" fromJunction="J2" toJunction="J3" end="6620" vehsPerHour="27.767796868196363"/>
  <flow id="JF57206" begin="6560" fromJunction="J3" toJunction="J2" end="6620" vehsPerHour="91.34901395019207"/>
  <flow id="JF57207" begin="6560" fromJunction="J4" toJunction="J2" end="6620" vehsPerHour="2.060396483720519"/>
  <flow id="JF57208" begin="6560" fromJunction="J4" toJunction="J3" end="6620" vehsPerHour="66.73257462376772"/>
  <flow id="JF57209" begin="6620" fromJunction="J0" toJunction="J4" end="6680" vehsPerHour="2.396925923872882"/>
  <flow id="JF57210" begin="6620" fromJunction="J2" toJunction="J0" end="6680" vehsPerHour="71.83512242434382"/>
  <flow id="JF57211" begin="6620" fromJunction="J2" toJunction="J3" end="6680" vehsPerHour="125.64017693363125"/>
  <flow id="JF57212" begin="6620" fromJunction="J3" toJunction="J0" end="6680" vehsPerHour="71.12241367148508"/>
  <flow id="JF57213" begin="6620" fromJunction="J3" toJunction="J2" end="6680" vehsPerHour="95.33246706198004"/>
  <flow id="JF57214" begin="6620" fromJunction="J3" toJunction="J4" end="6680" vehsPerHour="56.50443770946021"/>
  <flow id="JF57215" begin="6620" fromJunction="J4" toJunction="J3" end="6680" vehsPerHour="82.92317233206134"/>
  <flow id="JF57216" begin="6680" fromJunction="J0" toJunction="J2" end="6740" vehsPerHour="113.99076442448143"/>
  <flow id="JF57217" begin="6680" fromJunction="J0" toJunction="J3" end="6740" vehsPerHour="121.8663052181542"/>
  <flow id="JF57218" begin="6680" fromJunction="J0" toJunction="J4" end="6740" vehsPerHour="35.54772058449716"/>
  <flow id="JF57219" begin="6680" fromJunction="J2" toJunction="J0" end="6740" vehsPerHour="132.78906061993803"/>
  <flow id="JF57220" begin="6680" fromJunction="J2" toJunction="J3" end="6740" vehsPerHour="58.83426715576987"/>
  <flow id="JF57221" begin="6680" fromJunction="J2" toJunction="J4" end="6740" vehsPerHour="88.09964657100217"/>
  <flow id="JF57222" begin="6680" fromJunction="J3" toJunction="J2" end="6740" vehsPerHour="47.18273882810683"/>
  <flow id="JF57223" begin="6680" fromJunction="J3" toJunction="J4" end="6740" vehsPerHour="107.84679750486565"/>
  <flow id="JF57224" begin="6680" fromJunction="J4" toJunction="J0" end="6740" vehsPerHour="132.0063411697034"/>
  <flow id="JF57225" begin="6740" fromJunction="J0" toJunction="J2" end="6800" vehsPerHour="129.86147534368337"/>
  <flow id="JF57226" begin="6740" fromJunction="J0" toJunction="J3" end="6800" vehsPerHour="126.61638064684992"/>
  <flow id="JF57227" begin="6740" fromJunction="J0" toJunction="J4" end="6800" vehsPerHour="45.1395578240805"/>
  <flow id="JF57228" begin="6740" fromJunction="J2" toJunction="J0" end="6800" vehsPerHour="52.459033691100835"/>
  <flow id="JF57229" begin="6740" fromJunction="J3" toJunction="J0" end="6800" vehsPerHour="50.055167151766646"/>
  <flow id="JF57230" begin="6740" fromJunction="J3" toJunction="J2" end="6800" vehsPerHour="40.98919160945917"/>
  <flow id="JF57231" begin="6740" fromJunction="J3" toJunction="J4" end="6800" vehsPerHour="71.89607274759948"/>
  <flow id="JF57232" begin="6740" fromJunction="J4" toJunction="J0" end="6800" vehsPerHour="74.52978373746758"/>
  <flow id="JF57233" begin="6740" fromJunction="J4" toJunction="J2" end="6800" vehsPerHour="22.924997847158007"/>
  <flow id="JF57234" begin="6740" fromJunction="J4" toJunction="J3" end="6800" vehsPerHour="26.654997939173988"/>
  <flow id="JF57235" begin="6800" fromJunction="J0" toJunction="J2" end="6860" vehsPerHour="83.14604205616106"/>
  <flow id="JF57236" begin="6800" fromJunction="J0" toJunction="J3" end="6860" vehsPerHour="31.147870949901364"/>
  <flow id="JF57237" begin="6800" fromJunction="J2" toJunction="J3" end="6860" vehsPerHour="56.530053740437964"/>
  <flow id="JF57238" begin="6800" fromJunction="J2" toJunction="J4" end="6860" vehsPerHour="114.70960194829063"/>
  <flow id="JF57239" begin="6800" fromJunction="J3" toJunction="J0" end="6860" vehsPerHour="119.9596684589174"/>
  <flow id="JF57240" begin="6800" fromJunction="J3" toJunction="J2" end="6860" vehsPerHour="24.62680814666126"/>
  <flow id="JF57241" begin="6800" fromJunction="J3" toJunction="J4" end="6860" vehsPerHour="129.79103591946455"/>
  <flow id="JF57242" begin="6800" fromJunction="J4" toJunction="J0" end="6860" vehsPerHour="84.02501725994227"/>
  <flow id="JF57243" begin="6800" fromJunction="J4" toJunction="J2" end="6860" vehsPerHour="118.1401882757105"/>
  <flow id="JF57244" begin="6800" fromJunction="J4" toJunction="J3" end="6860" vehsPerHour="2.188588524432458"/>
  <flow id="JF57245" begin="6860" fromJunction="J0" toJunction="J2" end="6920" vehsPerHour="12.896423510711816"/>
  <flow id="JF57246" begin="6860" fromJunction="J0" toJunction="J3" end="6920" vehsPerHour="69.49517473677375"/>
  <flow id="JF57247" begin="6860" fromJunction="J0" toJunction="J4" end="6920" vehsPerHour="46.47689172607618"/>