<?xml version="1.0" encoding="UTF-8"?>
<routes xmlns:xsi="http://www.w3.org/2001/XMLSchema-instance" xsi:noNamespaceSchemaLocation="http://sumo.dlr.de/xsd/routes_file.xsd">
  <flow id="JF56274" begin="0" fromJunction="J3" toJunction="J0" end="5000" vehsPerHour="953.9830123319895"/>
  <flow id="JF56275" begin="0" fromJunction="J0" toJunction="J3" end="5000" vehsPerHour="606.4936770657001"/>
  <flow id="JF56276" begin="0" fromJunction="J3" toJunction="J2" end="5000" vehsPerHour="135.67280651401046"/>
  <flow id="JF56277" begin="0" fromJunction="J3" toJunction="J4" end="5000" vehsPerHour="2.957940312991969"/>
  <flow id="JF56278" begin="0" fromJunction="J0" toJunction="J2" end="5000" vehsPerHour="58.043894668865896"/>
  <flow id="JF56279" begin="0" fromJunction="J0" toJunction="J4" end="5000" vehsPerHour="81.6421434620001"/>
  <flow id="JF56280" begin="0" fromJunction="J2" toJunction="J4" end="5000" vehsPerHour="338.57201802875903"/>
  <flow id="JF56281" begin="0" fromJunction="J4" toJunction="J2" end="5000" vehsPerHour="452.584584124175"/>
  <flow id="JF56282" begin="0" fromJunction="J2" toJunction="J3" end="5000" vehsPerHour="28.468620993557167"/>
  <flow id="JF56283" begin="0" fromJunction="J2" toJunction="J0" end="5000" vehsPerHour="133.43737151273655"/>
  <flow id="JF56284" begin="0" fromJunction="J4" toJunction="J3" end="5000" vehsPerHour="111.80119745872025"/>
  <flow id="JF56285" begin="0" fromJunction="J4" toJunction="J0" end="5000" vehsPerHour="90.68559791725988"/>
  <flow id="JF56286" begin="5000" fromJunction="J0" toJunction="J4" end="5060" vehsPerHour="59.27900098127801"/>
  <flow id="JF56287" begin="5000" fromJunction="J2" toJunction="J0" end="5060" vehsPerHour="89.9041409517887"/>
  <flow id="JF56288" begin="5000" fromJunction="J2" toJunction="J3" end="5060" vehsPerHour="113.38253914303898"/>
  <flow id="JF56289" begin="5000" fromJunction="J3" toJunction="J0" end="5060" vehsPerHour="132.15123964199046"/>
  <flow id="JF56290" begin="5000" fromJunction="J3" toJunction="J2" end="5060" vehsPerHour="79.71197543201973"/>
  <flow id="JF56291" begin="5000" fromJunction="J3" toJunction="J4" end="5060" vehsPerHour="87.30087973818327"/>
  <flow id="JF56292" begin="5000" fromJunction="J4" toJunction="J0" end="5060" vehsPerHour="110.96583278191294"/>
  <flow id="JF56293" begin="5000" fromJunction="J4" toJunction="J2" end="5060" vehsPerHour="66.73644064941412"/>
  <flow id="JF56294" begin="5000" fromJunction="J4" toJunction="J3" end="5060" vehsPerHour="36.63385295247128"/>
  <flow id="JF56295" begin="5060" fromJunction="J0" toJunction="J3" end="5120" vehsPerHour="73.7105007817213"/>
  <flow id="JF56296" begin="5060" fromJunction="J0" toJunction="J4" end="5120" vehsPerHour="123.92605750995244"/>
  <flow id="JF56297" begin="5060" fromJunction="J2" toJunction="J0" end="5120" vehsPerHour="89.91462626300013"/>
  <flow id="JF56298" begin="5060" fromJunction="J2" toJunction="J4" end="5120" vehsPerHour="22.20667134857907"/>
  <flow id="JF56299" begin="5060" fromJunction="J3" toJunction="J0" end="5120" vehsPerHour="135.14620288939085"/>
  <flow id="JF56300" begin="5060" fromJunction="J3" toJunction="J2" end="5120" vehsPerHour="16.091249706482547"/>
  <flow id="JF56301" begin="5060" fromJunction="J3" toJunction="J4" end="5120" vehsPerHour="40.339995791210576"/>
  <flow id="JF56302" begin="5060" fromJunction="J4" toJunction="J3" end="5120" vehsPerHour="73.19465037232557"/>
  <flow id="JF56303" begin="5120" fromJunction="J0" toJunction="J2" end="5180" vehsPerHour="107.04534684317764"/>
  <flow id="JF56304" begin="5120" fromJunction="J0" toJunction="J3" end="5180" vehsPerHour="83.34832833200642"/>
  <flow id="JF56305" begin="5120" fromJunction="J2" toJunction="J0" end="5180" vehsPerHour="70.69130526386353"/>
  <flow id="JF56306" begin="5120" fromJunction="J2" toJunction="J4" end="5180" vehsPerHour="59.343273764227455"/>
  <flow id="JF56307" begin="5120" fromJunction="J3" toJunction="J0" end="5180" vehsPerHour="54.19943325738758"/>
  <flow id="JF56308" begin="5120" fromJunction="J3" toJunction="J2" end="5180" vehsPerHour="100.89085472482525"/>
  <flow id="JF56309" begin="5120" fromJunction="J3" toJunction="J4" end="5180" vehsPerHour="17.05724371329202"/>
  <flow id="JF56310" begin="5120" fromJunction="J4" toJunction="J0" end="5180" vehsPerHour="19.158388848766986"/>
  <flow id="JF56311" begin="5120" fromJunction="J4" toJunction="J2" end="5180" vehsPerHour="109.30979041549793"/>
  <flow id="JF56312" begin="5120" fromJunction="J4" toJunction="J3" end="5180" vehsPerHour="78.91859064969451"/>
  <flow id="JF56313" begin="5180" fromJunction="J0" toJunction="J2" end="5240" vehsPerHour="129.3250034987897"/>
  <flow id="JF56314" begin="5180" fromJunction="J2" toJunction="J0" end="5240" vehsPerHour="38.10233628549888"/>
  <flow id="JF56315" begin="5180" fromJunction="J3" toJunction="J2" end="5240" vehsPerHour="17.963504984237645"/>
  <flow id="JF56316" begin="5180" fromJunction="J4" toJunction="J0" end="5240" vehsPerHour="57.76392178191792"/>
  <flow id="JF56317" begin="5240" fromJunction="J0" toJunction="J2" end="5300" vehsPerHour="136.9049587839664"/>
  <flow id="JF56318" begin="5240" fromJunction="J0" toJunction="J3" end="5300" vehsPerHour="15.270850266801409"/>
  <flow id="JF56319" begin="5240" fromJunction="J0" toJunction="J4" end="5300" vehsPerHour="88.76196299759924"/>
  <flow id="JF56320" begin="5240" fromJunction="J2" toJunction="J0" end="5300" vehsPerHour="64.34583273892754"/>
  <flow id="JF56321" begin="5240" fromJunction="J2" toJunction="J3" end="5300" vehsPerHour="125.64339499885025"/>
  <flow id="JF56322" begin="5240" fromJunction="J2" toJunction="J4" end="5300" vehsPerHour="16.48383904546974"/>
  <flow id="JF56323" begin="5240" fromJunction="J3" toJunction="J2" end="5300" vehsPerHour="18.849176804203683"/>
  <flow id="JF56324" begin="5240" fromJunction="J3" toJunction="J4" end="5300" vehsPerHour="24.43595125883254"/>
  <flow id="JF56325" begin="5240" fromJunction="J4" toJunction="J0" end="5300" vehsPerHour="121.11780852057659"/>
  <flow id="JF56326" begin="5240" fromJunction="J4" toJunction="J2" end="5300" vehsPerHour="98.13171682202425"/>
  <flow id="JF56327" begin="5300" fromJunction="J0" toJunction="J2" end="5360" vehsPerHour="94.08045743797618"/>
  <flow id="JF56328" begin="5300" fromJunction="J0" toJunction="J3" end="5360" vehsPerHour="135.8778982559334"/>
  <flow id="JF56329" begin="5300" fromJunction="J0" toJunction="J4" end="5360" vehsPerHour="109.96580093169375"/>
  <flow id="JF56330" begin="5300" fromJunction="J2" toJunction="J0" end="5360" vehsPerHour="45.00061939604325"/>
  <flow id="JF56331" begin="5300" fromJunction="J3" toJunction="J0" end="5360" vehsPerHour="124.45685017076539"/>
  <flow id="JF56332" begin="5300" fromJunction="J3" toJunction="J2" end="5360" vehsPerHour="74.3100610743988"/>
  <flow id="JF56333" begin="5300" fromJunction="J3" toJunction="J4" end="5360" vehsPerHour="123.78299376681993"/>
  <flow id="JF56334" begin="5300" fromJunction="J4" toJunction="J0" end="5360" vehsPerHour="22.504954228060303"/>
  <flow id="JF56335" begin="5300" fromJunction="J4" toJunction="J2" end="5360" vehsPerHour="30.751333144282583"/>
  <flow id="JF56336" begin="5300" fromJunction="J4" toJunction="J3" end="5360" vehsPerHour="45.01079424593158"/>
  <flow id="JF56337" begin="5360" fromJunction="J0" toJunction="J2" end="5420" vehsPerHour="91.83323640344467"/>
  <flow id="JF56338" begin="5360" fromJunction="J2" toJunction="J0" end="5420" vehsPerHour="54.75519814171971"/>
  <flow id="JF56339" begin="5360" fromJunction="J2" toJunction="J3" end="5420" vehsPerHour="43.35074214038007"/>
  <flow id="JF56340" begin="5360" fromJunction="J2" toJunction="J4" end="5420" vehsPerHour="66.66105563614069"/>
  <flow id="JF56341" begin="5360" fromJunction="J3" toJunction="J0" end="5420" vehsPerHour="24.434826370991537"/>
  <flow id="JF56342" begin="5360" fromJunction="J3" toJunction="J2" end="5420" vehsPerHour="13.094291191749482"/>
  <flow id="JF56343" begin="5360" fromJunction="J3" toJunction="J4" end="5420" vehsPerHour="127.09307372999909"/>
  <flow id="JF56344" begin="5360" fromJunction="J4" toJunction="J0" end="5420" vehsPerHour="130.57648004595998"/>
  <flow id="JF56345" begin="5360" fromJunction="J4" toJunction="J2" end="5420" vehsPerHour="36.10187456896517"/>
  <flow id="JF56346" begin="5360" fromJunction="J4" toJunction="J3" end="5420" vehsPerHour="55.936130800568606"/>
  <flow id="JF56347" begin="5420" fromJunction="J0" toJunction="J2" end="5480" vehsPerHour="34.31937502980363"/>
  <flow id="JF56348" begin="5420" fromJunction="J2" toJunction="J0" end="5480" vehsPerHour="97.10598121855969"/>
  <flow id="JF56349" begin="5420" fromJunction="J2" toJunction="J3" end="5480" vehsPerHour="105.96636051696363"/>
  <flow id="JF56350" begin="5420" fromJunction="J2" toJunction="J4" end="5480" vehsPerHour="54.544343035874306"/>
  <flow id="JF56351" begin="5420" fromJunction="J3" toJunction="J2" end="5480" vehsPerHour="57.83315510931314"/>
  <flow id="JF56352" begin="5420" fromJunction="J3" toJunction="J4" end="5480" vehsPerHour="47.60070439123709"/>
  <flow id="JF56353" begin="5420" fromJunction="J4" toJunction="J0" end="5480" vehsPerHour="23.288668646295342"/>
  <flow id="JF56354" begin="5420" fromJunction="J4" toJunction="J2" end="5480" vehsPerHour="9.091196085215788"/>
  <flow id="JF56355" begin="5420" fromJunction="J4" toJunction="J3" end="5480" vehsPerHour="35.50925413108616"/>
  <flow id="JF56356" begin="5480" fromJunction="J0" toJunction="J3" end="5540" vehsPerHour="39.33507629023136"/>
  <flow id="JF56357" begin="5480" fromJunction="J2" toJunction="J0" end="5540" vehsPerHour="55.702350387775006"/>
  <flow id="JF56358" begin="5480" fromJunction="J2" toJunction="J3" end="5540" vehsPerHour="26.05972246724693"/>
  <flow id="JF56359" begin="5480" fromJunction="J3" toJunction="J4" end="5540" vehsPerHour="84.75485603385914"/>
  <flow id="JF56360" begin="5480" fromJunction="J4" toJunction="J0" end="5540" vehsPerHour="104.74488659860319"/>
  <flow id="JF56361" begin="5480" fromJunction="J4" toJunction="J2" end="5540" vehsPerHour="55.554161867351105"/>
  <flow id="JF56362" begin="5480" fromJunction="J4" toJunction="J3" end="5540" vehsPerHour="71.48579642465214"/>
  <flow id="JF56363" begin="5540" fromJunction="J0" toJunction="J2" end="5600" vehsPerHour="106.57889155837529"/>
  <flow id="JF56364" begin="5540" fromJunction="J0" toJunction="J4" end="5600" vehsPerHour="100.7752168247319"/>
  <flow id="JF56365" begin="5540" fromJunction="J2" toJunction="J0" end="5600" vehsPerHour="103.84435943344053"/>
  <flow id="JF56366" begin="5540" fromJunction="J2" toJunction="J3" end="5600" vehsPerHour="2.56615443348922"/>
  <flow id="JF56367" begin="5540" fromJunction="J2" toJunction="J4" end="5600" vehsPerHour="89.1794081637321"/>
  <flow id="JF56368" begin="5540" fromJunction="J3" toJunction="J2" end="5600" vehsPerHour="35.05802949964794"/>
  <flow id="JF56369" begin="5540" fromJunction="J4" toJunction="J0" end="5600" vehsPerHour="56.37562110733653"/>
  <flow id="JF56370" begin="5540" fromJunction="J4" toJunction="J3" end="5600" vehsPerHour="35.079168766477856"/>
  <flow id="JF56371" begin="5600" fromJunction="J0" toJunction="J3" end="5660" vehsPerHour="120.30120038997322"/>
  <flow id="JF56372" begin="5600" fromJunction="J0" toJunction="J4" end="5660" vehsPerHour="98.87778003254404"/>
  <flow id="JF56373" begin="5600" fromJunction="J2" toJunction="J4" end="5660" vehsPerHour="134.00884020951375"/>
  <flow id="JF56374" begin="5600" fromJunction="J3" toJunction="J0" end="5660" vehsPerHour="109.32300750293868"/>
  <flow id="JF56375" begin="5600" fromJunction="J3" toJunction="J4" end="5660" vehsPerHour="109.01713804625534"/>
  <flow id="JF56376" begin="5600" fromJunction="J4" toJunction="J0" end="5660" vehsPerHour="45.94361682854397"/>
  <flow id="JF56377" begin="5600" fromJunction="J4" toJunction="J2" end="5660" vehsPerHour="115.6689096035826"/>
  <flow id="JF56378" begin="5600" fromJunction="J4" toJunction="J3" end="5660" vehsPerHour="133.15301379586944"/>
  <flow id="JF56379" begin="5660" fromJunction="J0" toJunction="J2" end="5720" vehsPerHour="97.7788831028278"/>
  <flow id="JF56380" begin="5660" fromJunction="J0" toJunction="J4" end="5720" vehsPerHour="31.117588077087003"/>
  <flow id="JF56381" begin="5660" fromJunction="J2" toJunction="J0" end="5720" vehsPerHour="81.96040288707968"/>
  <flow id="JF56382" begin="5660" fromJunction="J3" toJunction="J2" end="5720" vehsPerHour="30.784617688659417"/>
  <flow id="JF56383" begin="5660" fromJunction="J3" toJunction="J4" end="5720" vehsPerHour="80.07957660022387"/>
  <flow id="JF56384" begin="5660" fromJunction="J4" toJunction="J2" end="5720" vehsPerHour="22.820197684156128"/>
  <flow id="JF56385" begin="5720" fromJunction="J0" toJunction="J4" end="5780" vehsPerHour="35.38561675492167"/>
  <flow id="JF56386" begin="5720" fromJunction="J2" toJunction="J0" end="5780" vehsPerHour="56.906391588560005"/>
  <flow id="JF56387" begin="5720" fromJunction="J2" toJunction="J4" end="5780" vehsPerHour="27.079702337486903"/>
  <flow id="JF56388" begin="5720" fromJunction="J3" toJunction="J0" end="5780" vehsPerHour="40.6281810176009"/>
  <flow id="JF56389" begin="5720" fromJunction="J3" toJunction="J4" end="5780" vehsPerHour="104.09628366767953"/>
  <flow id="JF56390" begin="5720" fromJunction="J4" toJunction="J0" end="5780" vehsPerHour="95.90651225658533"/>
  <flow id="JF56391" begin="5720" fromJunction="J4" toJunction="J3" end="5780" vehsPerHour="59.972035424782035"/>
  <flow id="JF56392" begin="5780" fromJunction="J0" toJunction="J3" end="5840" vehsPerHour="15.647025315412307"/>
  <flow id="JF56393" begin="5780" fromJunction="J0" toJunction="J4" end="5840" vehsPerHour="40.40125511290522"/>
  <flow id="JF56394" begin="5780" fromJunction="J2" toJunction="J0" end="5840" vehsPerHour="23.581816740933895"/>
  <flow id="JF56395" begin="5780" fromJunction="J3" toJunction="J0" end="5840" vehsPerHour="4.619355301335727"/>
  <flow id="JF56396" begin="5780" fromJunction="J3" toJunction="J2" end="5840" vehsPerHour="109.71277536054707"/>
  <flow id="JF56397" begin="5780" fromJunction="J3" toJunction="J4" end="5840" vehsPerHour="40.405432339715254"/>
  <flow id="JF56398" begin="5780" fromJunction="J4" toJunction="J0" end="5840" vehsPerHour="124.65403619819746"/>
  <flow id="JF56399" begin="5780" fromJunction="J4" toJunction="J3" end="5840" vehsPerHour="60.88272718221259"/>
  <flow id="JF56400" begin="5840" fromJunction="J0" toJunction="J2" end="5900" vehsPerHour="24.61188195605306"/>
  <flow id="JF56401" begin="5840" fromJunction="J0" toJunction="J3" end="5900" vehsPerHour="78.20717166712075"/>
  <flow id="JF56402" begin="5840" fromJunction="J0" toJunction="J4" end="5900" vehsPerHour="52.377356217983596"/>
  <flow id="JF56403" begin="5840" fromJunction="J2" toJunction="J0" end="5900" vehsPerHour="113.68864388711125"/>
  <flow id="JF56404" begin="5840" fromJunction="J2" toJunction="J3" end="5900" vehsPerHour="57.3919037992936"/>
  <flow id="JF56405" begin="5840" fromJunction="J2" toJunction="J4" end="5900" vehsPerHour="104.63370186151101"/>
  <flow id="JF56406" begin="5840" fromJunction="J3" toJunction="J4" end="5900" vehsPerHour="74.28014473374886"/>
  <flow id="JF56407" begin="5840" fromJunction="J4" toJunction="J0" end="5900" vehsPerHour="6.271602124605035"/>
  <flow id="JF56408" begin="5840" fromJunction="J4" toJunction="J3" end="5900" vehsPerHour="62.0824048603703"/>
  <flow id="JF56409" begin="5900" fromJunction="J0" toJunction="J2" end="5960" vehsPerHour="93.18742024815263"/>
  <flow id="JF56410" begin="5900" fromJunction="J0" toJunction="J3" end="5960" vehsPerHour="66.67639268390475"/>
  <flow id="JF56411" begin="5900" fromJunction="J0" toJunction="J4" end="5960" vehsPerHour="62.43258056627239"/>
  <flow id="JF56412" begin="5900" fromJunction="J2" toJunction="J0" end="5960" vehsPerHour="96.73150749680322"/>
  <flow id="JF56413" begin="5900" fromJunction="J2" toJunction="J4" end="5960" vehsPerHour="22.38953018977853"/>
  <flow id="JF56414" begin="5900" fromJunction="J3" toJunction="J0" end="5960" vehsPerHour="113.50436580598586"/>
  <flow id="JF56415" begin="5900" fromJunction="J3" toJunction="J2" end="5960" vehsPerHour="18.291101358437782"/>
  <flow id="JF56416" begin="5900" fromJunction="J3" toJunction="J4" end="5960" vehsPerHour="14.300466706747791"/>
  <flow id="JF56417" begin="5900" fromJunction="J4" toJunction="J2" end="5960" vehsPerHour="3.5858161268820163"/>
  <flow id="JF56418" begin="5900" fromJunction="J4" toJunction="J3" end="5960" vehsPerHour="106.66022489389731"/>
  <flow id="JF56419" begin="5960" fromJunction="J0" toJunction="J3" end="6020" vehsPerHour="117.84115073247538"/>
  <flow id="JF56420" begin="5960" fromJunction="J2" toJunction="J3" end="6020" vehsPerHour="61.811768656656575"/>
  <flow id="JF56421" begin="5960" fromJunction="J2" toJunction="J4" end="6020" vehsPerHour="59.35938625277587"/>
  <flow id="JF56422" begin="5960" fromJunction="J3" toJunction="J0" end="6020" vehsPerHour="23.21131947655825"/>
  <flow id="JF56423" begin="5960" fromJunction="J3" toJunction="J2" end="6020" vehsPerHour="44.877433172842956"/>
  <flow id="JF56424" begin="5960" fromJunction="J3" toJunction="J4" end="6020" vehsPerHour="80.89504834922793"/>
  <flow id="JF56425" begin="5960" fromJunction="J4" toJunction="J0" end="6020" vehsPerHour="118.29488574066804"/>
  <flow id="JF56426" begin="5960" fromJunction="J4" toJunction="J2" end="6020" vehsPerHour="4.260881178864908"/>
  <flow id="JF56427" begin="5960" fromJunction="J4" toJunction="J3" end="6020" vehsPerHour="0.12119253382454742"/>
  <flow id="JF56428" begin="6020" fromJunction="J0" toJunction="J3" end="6080" vehsPerHour="87.27732428488021"/>
  <flow id="JF56429" begin="6020" fromJunction="J0" toJunction="J4" end="6080" vehsPerHour="93.76674633716766"/>
  <flow id="JF56430" begin="6020" fromJunction="J2" toJunction="J0" end="6080" vehsPerHour="73.80137404252564"/>
  <flow id="JF56431" begin="6020" fromJunction="J2" toJunction="J3" end="6080" vehsPerHour="11.642137188150539"/>
  <flow id="JF56432" begin="6020" fromJunction="J3" toJunction="J2" end="6080" vehsPerHour="137.13988589953922"/>
  <flow id="JF56433" begin="6020" fromJunction="J4" toJunction="J0" end="6080" vehsPerHour="40.0277062126611"/>
  <flow id="JF56434" begin="6020" fromJunction="J4" toJunction="J2" end="6080" vehsPerHour="5.215794925293055"/>
  <flow id="JF56435" begin="6020" fromJunction="J4" toJunction="J3" end="6080" vehsPerHour="39.72101441730881"/>
  <flow id="JF56436" begin="6080" fromJunction="J0" toJunction="J2" end="6140" vehsPerHour="59.287977469221815"/>
  <flow id="JF56437" begin="6080" fromJunction="J0" toJunction="J4" end="6140" vehsPerHour="69.87847264458163"/>
  <flow id="JF56438" begin="6080" fromJunction="J2" toJunction="J4" end="6140" vehsPerHour="37.820814237459324"/>
  <flow id="JF56439" begin="6080" fromJunction="J3" toJunction="J0" end="6140" vehsPerHour="7.22889053448318"/>
  <flow id="JF56440" begin="6080" fromJunction="J3" toJunction="J4" end="6140" vehsPerHour="23.23616065318713"/>
  <flow id="JF56441" begin="6080" fromJunction="J4" toJunction="J0" end="6140" vehsPerHour="118.96108080531624"/>
  <flow id="JF56442" begin="6080" fromJunction="J4" toJunction="J2" end="6140" vehsPerHour="128.05260317595145"/>
  <flow id="JF56443" begin="6140" fromJunction="J0" toJunction="J2" end="6200" vehsPerHour="38.783502725027496"/>
  <flow id="JF56444" begin="6140" fromJunction="J0" toJunction="J3" end="6200" vehsPerHour="103.76954909989163"/>
  <flow id="JF56445" begin="6140" fromJunction="J2" toJunction="J4" end="6200" vehsPerHour="17.60057576049274"/>
  <flow id="JF56446" begin="6140" fromJunction="J3" toJunction="J0" end="6200" vehsPerHour="33.924577526302045"/>
  <flow id="JF56447" begin="6140" fromJunction="J3" toJunction="J4" end="6200" vehsPerHour="19.090078128609385"/>
  <flow id="JF56448" begin="6140" fromJunction="J4" toJunction="J0" end="6200" vehsPerHour="111.0500120430157"/>
  <flow id="JF56449" begin="6140" fromJunction="J4" toJunction="J2" end="6200" vehsPerHour="133.30546010790468"/>
  <flow id="JF56450" begin="6140" fromJunction="J4" toJunction="J3" end="6200" vehsPerHour="43.4010782971304"/>
  <flow id="JF56451" begin="6200" fromJunction="J0" toJunction="J2" end="6260" vehsPerHour="117.65383959705008"/>
  <flow id="JF56452" begin="6200" fromJunction="J0" toJunction="J3" end="6260" vehsPerHour="68.43388313500519"/>
  <flow id="JF56453" begin="6200" fromJunction="J0" toJunction="J4" end="6260" vehsPerHour="23.880527403059926"/>
  <flow id="JF56454" begin="6200" fromJunction="J2" toJunction="J0" end="6260" vehsPerHour="11.28187212209493"/>
  <flow id="JF56455" begin="6200" fromJunction="J3" toJunction="J0" end="6260" vehsPerHour="32.165500776985105"/>
  <flow id="JF56456" begin="6200" fromJunction="J3" toJunction="J2" end="6260" vehsPerHour="65.53113904066868"/>
  <flow id="JF56457" begin="6200" fromJunction="J4" toJunction="J0" end="6260" vehsPerHour="127.32758591599746"/>
  <flow id="JF56458" begin="6200" fromJunction="J4" toJunction="J2" end="6260" vehsPerHour="66.40572737103703"/>
  <flow id="JF56459" begin="6200" fromJunction="J4" toJunction="J3" end="6260" vehsPerHour="28.36119684429972"/>
  <flow id="JF56460" begin="6260" fromJunction="J0" toJunction="J2" end="6320" vehsPerHour="66.91476057697975"/>
  <flow id="JF56461" begin="6260" fromJunction="J0" toJunction="J3" end="6320" vehsPerHour="33.64931691200427"/>
  <flow id="JF56462" begin="6260" fromJunction="J0" toJunction="J4" end="6320" vehsPerHour="104.83423545397339"/>
  <flow id="JF56463" begin="6260" fromJunction="J2" toJunction="J0" end="6320" vehsPerHour="9.80346820634185"/>
  <flow id="JF56464" begin="6260" fromJunction="J2" toJunction="J3" end="6320" vehsPerHour="29.033530532618933"/>
  <flow id="JF56465" begin="6260" fromJunction="J3" toJunction="J0" end="6320" vehsPerHour="79.39444853154318"/>
  <flow id="JF56466" begin="6260" fromJunction="J3" toJunction="J2" end="6320" vehsPerHour="75.7072453110547"/>
  <flow id="JF56467" begin="6260" fromJunction="J3" toJunction="J4" end="6320" vehsPerHour="78.09801397253719"/>
  <flow id="JF56468" begin="6260" fromJunction="J4" toJunction="J3" end="6320" vehsPerHour="118.4419935823689"/>
  <flow id="JF56469" begin="6320" fromJunction="J0" toJunction="J2" end="6380" vehsPerHour="100.13828106696828"/>
  <flow id="JF56470" begin="6320" fromJunction="J0" toJunction="J3" end="6380" vehsPerHour="29.00981373597927"/>
  <flow id="JF56471" begin="6320" fromJunction="J0" toJunction="J4" end="6380" vehsPerHour="28.08885865066102"/>
  <flow id="JF56472" begin="6320" fromJunction="J2" toJunction="J4" end="6380" vehsPerHour="96.71194856103274"/>
  <flow id="JF56473" begin="6320" fromJunction="J3" toJunction="J0" end="6380" vehsPerHour="104.17018671886177"/>
  <flow id="JF56474" begin="6320" fromJunction="J3" toJunction="J2" end="6380" vehsPerHour="78.02297241798348"/>
  <flow id="JF56475" begin="6320" fromJunction="J4" toJunction="J0" end="6380" vehsPerHour="5.694927641123456"/>
  <flow id="JF56476" begin="6320" fromJunction="J4" toJunction="J2" end="6380" vehsPerHour="52.62638960715868"/>
  <flow id="JF56477" begin="6320" fromJunction="J4" toJunction="J3" end="6380" vehsPerHour="14.995482150798162"/>
  <flow id="JF56478" begin="6380" fromJunction="J0" toJunction="J2" end="6440" vehsPerHour="82.58090180174037"/>
  <flow id="JF56479" begin="6380" fromJunction="J0" toJunction="J3" end="6440" vehsPerHour="102.01332986123232"/>
  <flow id="JF56480" begin="6380" fromJunction="J0" toJunction="J4" end="6440" vehsPerHour="91.79894586153928"/>
  <flow id="JF56481" begin="6380" fromJunction="J2" toJunction="J3" end="6440" vehsPerHour="45.6428887330562"/>
  <flow id="JF56482" begin="6380" fromJunction="J2" toJunction="J4" end="6440" vehsPerHour="66.67212552520346"/>
  <flow id="JF56483" begin="6380" fromJunction="J3" toJunction="J0" end="6440" vehsPerHour="8.541979561265928"/>
  <flow id="JF56484" begin="6380" fromJunction="J3" toJunction="J4" end="6440" vehsPerHour="14.405213237078781"/>
  <flow id="JF56485" begin="6380" fromJunction="J4" toJunction="J2" end="6440" vehsPerHour="128.96247527131982"/>
  <flow id="JF56486" begin="6380" fromJunction="J4" toJunction="J3" end="6440" vehsPerHour="135.50027214755238"/>
  <flow id="JF56487" begin="6440" fromJunction="J0" toJunction="J4" end="6500" vehsPerHour="115.04894320372178"/>
  <flow id="JF56488" begin="6440" fromJunction="J2" toJunction="J3" end="6500" vehsPerHour="10.386596859613826"/>
  <flow id="JF56489" begin="6440" fromJunction="J2" toJunction="J4" end="6500" vehsPerHour="115.80941307257352"/>
  <flow id="JF56490" begin="6440" fromJunction="J3" toJunction="J2" end="6500" vehsPerHour="95.94169578320856"/>
  <flow id="JF56491" begin="6440" fromJunction="J3" toJunction="J4" end="6500" vehsPerHour="17.96725164835074"/>
  <flow id="JF56492" begin="6440" fromJunction="J4" toJunction="J0" end="6500" vehsPerHour="12.554282262904676"/>
  <flow id="JF56493" begin="6440" fromJunction="J4" toJunction="J2" end="6500" vehsPerHour="3.686324154561714"/>
  <flow id="JF56494" begin="6440" fromJunction="J4" toJunction="J3" end="6500" vehsPerHour="85.75353164881344"/>
  <flow id="JF56495" begin="6500" fromJunction="J0" toJunction="J4" end="6560" vehsPerHour="115.5357902269962"/>
  <flow id="JF56496" begin="6500" fromJunction="J2" toJunction="J0" end="6560" vehsPerHour="132.88209285241723"/>
  <flow id="JF56497" begin="6500" fromJunction="J2" toJunction="J3" end="6560" vehsPerHour="47.147476727162804"/>
  <flow id="JF56498" begin="6500" fromJunction="J3" toJunction="J0" end="6560" vehsPerHour="15.2408488016926"/>
  <flow id="JF56499" begin="6500" fromJunction="J3" toJunction="J2" end="6560" vehsPerHour="78.70867135218148"/>
  <flow id="JF56500" begin="6500" fromJunction="J3" toJunction="J4" end="6560" vehsPerHour="105.46526185821673"/>
  <flow id="JF56501" begin="6500" fromJunction="J4" toJunction="J0" end="6560" vehsPerHour="100.32339583246653"/>
  <flow id="JF56502" begin="6500" fromJunction="J4" toJunction="J2" end="6560" vehsPerHour="21.841027392319504"/>
  <flow id="JF56503" begin="6500" fromJunction="J4" toJunction="J3" end="6560" vehsPerHour="104.19526523038094"/>
  <flow id="JF56504" begin="6560" fromJunction="J0" toJunction="J2" end="6620" vehsPerHour="51.59422033684969"/>
  <flow id="JF56505" begin="6560" fromJunction="J0" toJunction="J3" end="6620" vehsPerHour="100.03801858736344"/>
  <flow id="JF56506" begin="6560" fromJunction="J0" toJunction="J4" end="6620" vehsPerHour="63.66752152044499"/>
  <flow id="JF56507" begin="6560" fromJunction="J2" toJunction="J4" end="6620" vehsPerHour="48.966960914940145"/>
  <flow id="JF56508" begin="6560" fromJunction="J3" toJunction="J0" end="6620" vehsPerHour="94.44846778106474"/>
  <flow id="JF56509" begin="6560" fromJunction="J3" toJunction="J2" end="6620" vehsPerHour="20.60479274444068"/>
  <flow id="JF56510" begin="6560" fromJunction="J3" toJunction="J4" end="6620" vehsPerHour="16.39174082979124"/>
  <flow id="JF56511" begin="6560" fromJunction="J4" toJunction="J2" end="6620" vehsPerHour="54.173972734441556"/>
  <flow id="JF56512" begin="6560" fromJunction="J4" toJunction="J3" end="6620" vehsPerHour="100.9096905531667"/>
  <flow id="JF56513" begin="6620" fromJunction="J0" toJunction="J3" end="6680" vehsPerHour="66.16963645641182"/>
  <flow id="JF56514" begin="6620" fromJunction="J0" toJunction="J4" end="6680" vehsPerHour="8.408384514413363"/>
  <flow id="JF56515" begin="6620" fromJunction="J2" toJunction="J0" end="6680" vehsPerHour="98.32424290399226"/>
  <flow id="JF56516" begin="6620" fromJunction="J2" toJunction="J4" end="6680" vehsPerHour="126.95992932957502"/>
  <flow id="JF56517" begin="6620" fromJunction="J3" toJunction="J0" end="6680" vehsPerHour="20.40038846400103"/>
  <flow id="JF56518" begin="6620" fromJunction="J3" toJunction="J2" end="6680" vehsPerHour="0.36508955586456354"/>
  <flow id="JF56519" begin="6620" fromJunction="J4" toJunction="J0" end="6680" vehsPerHour="7.834147102548685"/>
  <flow id="JF56520" begin="6620" fromJunction="J4" toJunction="J2" end="6680" vehsPerHour="117.35737060049787"/>
  <flow id="JF56521" begin="6620" fromJunction="J4" toJunction="J3" end="6680" vehsPerHour="116.97128370119587"/>
  <flow id="JF56522" begin="6680" fromJunction="J0" toJunction="J2" end="6740" vehsPerHour="77.02737215425887"/>
  <flow id="JF56523" begin="6680" fromJunction="J0" toJunction="J3" end="6740" vehsPerHour="68.77150512887741"/>
  <flow id="JF56524" begin="6680" fromJunction="J0" toJunction="J4" end="6740" vehsPerHour="71.35484377066814"/>
  <flow id="JF56525" begin="6680" fromJunction="J2" toJunction="J3" end="6740" vehsPerHour="132.02173090952135"/>
  <flow id="JF56526" begin="6680" fromJunction="J2" toJunction="J4" end="6740" vehsPerHour="32.32200561726539"/>
  <flow id="JF56527" begin="6680" fromJunction="J3" toJunction="J0" end="6740" vehsPerHour="111.9681785582119"/>
  <flow id="JF56528" begin="6680" fromJunction="J3" toJunction="J2" end="6740" vehsPerHour="109.31966383724563"/>
  <flow id="JF56529" begin="6680" fromJunction="J3" toJunction="J4" end="6740" vehsPerHour="47.81285402102718"/>
  <flow id="JF56530" begin="6680" fromJunction="J4" toJunction="J0" end="6740" vehsPerHour="6.7991963735261285"/>
  <flow id="JF56531" begin="6680" fromJunction="J4" toJunction="J2" end="6740" vehsPerHour="26.625732743094616"/>
  <flow id="JF56532" begin="6680" fromJunction="J4" toJunction="J3" end="6740" vehsPerHour="79.93190536296594"/>
  <flow id="JF56533" begin="6740" fromJunction="J0" toJunction="J2" end="6800" vehsPerHour="52.699391231175866"/>
  <flow id="JF56534" begin="6740" fromJunction="J0" toJunction="J3" end="6800" vehsPerHour="115.48794833134491"/>
  <flow id="JF56535" begin="6740" fromJunction="J2" toJunction="J3" end="6800" vehsPerHour="6.857671286675961"/>
  <flow id="JF56536" begin="6740" fromJunction="J2" toJunction="J4" end="6800" vehsPerHour="26.269823259076404"/>