<?xml version="1.0" encoding="UTF-8"?>
<routes xmlns:xsi="http://www.w3.org/2001/XMLSchema-instance" xsi:noNamespaceSchemaLocation="http://sumo.dlr.de/xsd/routes_file.xsd">
  <flow id="JF59791" begin="0" fromJunction="J3" toJunction="J0" end="5000" vehsPerHour="698.7533109037817"/>
  <flow id="JF59792" begin="0" fromJunction="J0" toJunction="J3" end="5000" vehsPerHour="825.7693892647114"/>
  <flow id="JF59793" begin="0" fromJunction="J3" toJunction="J2" end="5000" vehsPerHour="32.83561102712379"/>
  <flow id="JF59794" begin="0" fromJunction="J3" toJunction="J4" end="5000" vehsPerHour="4.990096756166932"/>
  <flow id="JF59795" begin="0" fromJunction="J0" toJunction="J2" end="5000" vehsPerHour="85.36535260617319"/>
  <flow id="JF59796" begin="0" fromJunction="J0" toJunction="J4" end="5000" vehsPerHour="19.109805761658496"/>
  <flow id="JF59797" begin="0" fromJunction="J2" toJunction="J4" end="5000" vehsPerHour="391.0286537278472"/>
  <flow id="JF59798" begin="0" fromJunction="J4" toJunction="J2" end="5000" vehsPerHour="229.37304431187962"/>
  <flow id="JF59799" begin="0" fromJunction="J2" toJunction="J3" end="5000" vehsPerHour="13.43713883941681"/>
  <flow id="JF59800" begin="0" fromJunction="J2" toJunction="J0" end="5000" vehsPerHour="11.087512929124069"/>
  <flow id="JF59801" begin="0" fromJunction="J4" toJunction="J3" end="5000" vehsPerHour="59.78591726831828"/>
  <flow id="JF59802" begin="0" fromJunction="J4" toJunction="J0" end="5000" vehsPerHour="52.09009482040914"/>
  <flow id="JF59803" begin="5000" fromJunction="J0" toJunction="J2" end="5060" vehsPerHour="119.901144899322"/>
  <flow id="JF59804" begin="5000" fromJunction="J0" toJunction="J3" end="5060" vehsPerHour="35.363321689881936"/>
  <flow id="JF59805" begin="5000" fromJunction="J0" toJunction="J4" end="5060" vehsPerHour="10.756569584091327"/>
  <flow id="JF59806" begin="5000" fromJunction="J2" toJunction="J0" end="5060" vehsPerHour="81.94959363632721"/>
  <flow id="JF59807" begin="5000" fromJunction="J2" toJunction="J3" end="5060" vehsPerHour="43.0697740196296"/>
  <flow id="JF59808" begin="5000" fromJunction="J2" toJunction="J4" end="5060" vehsPerHour="36.96170528651586"/>
  <flow id="JF59809" begin="5000" fromJunction="J3" toJunction="J0" end="5060" vehsPerHour="85.31998329788027"/>
  <flow id="JF59810" begin="5000" fromJunction="J3" toJunction="J2" end="5060" vehsPerHour="17.489034723618342"/>
  <flow id="JF59811" begin="5000" fromJunction="J4" toJunction="J3" end="5060" vehsPerHour="87.20795756829777"/>
  <flow id="JF59812" begin="5060" fromJunction="J0" toJunction="J3" end="5120" vehsPerHour="43.97255187284887"/>
  <flow id="JF59813" begin="5060" fromJunction="J0" toJunction="J4" end="5120" vehsPerHour="49.76445274558436"/>
  <flow id="JF59814" begin="5060" fromJunction="J2" toJunction="J0" end="5120" vehsPerHour="127.4576003536747"/>
  <flow id="JF59815" begin="5060" fromJunction="J2" toJunction="J3" end="5120" vehsPerHour="2.4938146147513303"/>
  <flow id="JF59816" begin="5060" fromJunction="J2" toJunction="J4" end="5120" vehsPerHour="7.632756410658576"/>
  <flow id="JF59817" begin="5060" fromJunction="J3" toJunction="J0" end="5120" vehsPerHour="44.212215975560554"/>
  <flow id="JF59818" begin="5060" fromJunction="J3" toJunction="J4" end="5120" vehsPerHour="109.53210030077717"/>
  <flow id="JF59819" begin="5060" fromJunction="J4" toJunction="J0" end="5120" vehsPerHour="96.519728267885"/>
  <flow id="JF59820" begin="5060" fromJunction="J4" toJunction="J3" end="5120" vehsPerHour="80.50506982177208"/>
  <flow id="JF59821" begin="5120" fromJunction="J0" toJunction="J2" end="5180" vehsPerHour="24.76200542738364"/>
  <flow id="JF59822" begin="5120" fromJunction="J0" toJunction="J4" end="5180" vehsPerHour="61.3434400453407"/>
  <flow id="JF59823" begin="5120" fromJunction="J2" toJunction="J3" end="5180" vehsPerHour="28.975520845400105"/>
  <flow id="JF59824" begin="5120" fromJunction="J2" toJunction="J4" end="5180" vehsPerHour="84.4512902003612"/>
  <flow id="JF59825" begin="5120" fromJunction="J3" toJunction="J0" end="5180" vehsPerHour="122.04799553860379"/>
  <flow id="JF59826" begin="5120" fromJunction="J3" toJunction="J2" end="5180" vehsPerHour="78.81512701448344"/>
  <flow id="JF59827" begin="5120" fromJunction="J4" toJunction="J0" end="5180" vehsPerHour="77.51521643598018"/>
  <flow id="JF59828" begin="5120" fromJunction="J4" toJunction="J3" end="5180" vehsPerHour="86.8239210070251"/>
  <flow id="JF59829" begin="5180" fromJunction="J0" toJunction="J2" end="5240" vehsPerHour="31.276359879428934"/>
  <flow id="JF59830" begin="5180" fromJunction="J0" toJunction="J3" end="5240" vehsPerHour="123.71332043244803"/>
  <flow id="JF59831" begin="5180" fromJunction="J0" toJunction="J4" end="5240" vehsPerHour="26.57788539469576"/>
  <flow id="JF59832" begin="5180" fromJunction="J2" toJunction="J0" end="5240" vehsPerHour="83.67154849218639"/>
  <flow id="JF59833" begin="5180" fromJunction="J2" toJunction="J3" end="5240" vehsPerHour="1.8909514503658287"/>
  <flow id="JF59834" begin="5180" fromJunction="J2" toJunction="J4" end="5240" vehsPerHour="6.990714078728758"/>
  <flow id="JF59835" begin="5180" fromJunction="J3" toJunction="J0" end="5240" vehsPerHour="61.82418343473233"/>
  <flow id="JF59836" begin="5180" fromJunction="J3" toJunction="J4" end="5240" vehsPerHour="64.18403448090005"/>
  <flow id="JF59837" begin="5180" fromJunction="J4" toJunction="J0" end="5240" vehsPerHour="54.19331154059027"/>
  <flow id="JF59838" begin="5180" fromJunction="J4" toJunction="J2" end="5240" vehsPerHour="30.81301445074679"/>
  <flow id="JF59839" begin="5180" fromJunction="J4" toJunction="J3" end="5240" vehsPerHour="114.55291621293179"/>
  <flow id="JF59840" begin="5240" fromJunction="J0" toJunction="J2" end="5300" vehsPerHour="0.08415339244249645"/>
  <flow id="JF59841" begin="5240" fromJunction="J0" toJunction="J3" end="5300" vehsPerHour="43.67872494117873"/>
  <flow id="JF59842" begin="5240" fromJunction="J0" toJunction="J4" end="5300" vehsPerHour="125.07147452437407"/>
  <flow id="JF59843" begin="5240" fromJunction="J2" toJunction="J4" end="5300" vehsPerHour="10.822108676008128"/>
  <flow id="JF59844" begin="5240" fromJunction="J3" toJunction="J2" end="5300" vehsPerHour="23.68892830846035"/>
  <flow id="JF59845" begin="5240" fromJunction="J3" toJunction="J4" end="5300" vehsPerHour="62.558505055104305"/>
  <flow id="JF59846" begin="5240" fromJunction="J4" toJunction="J0" end="5300" vehsPerHour="22.44523020719715"/>
  <flow id="JF59847" begin="5240" fromJunction="J4" toJunction="J2" end="5300" vehsPerHour="136.15534697245258"/>
  <flow id="JF59848" begin="5240" fromJunction="J4" toJunction="J3" end="5300" vehsPerHour="33.855833316700036"/>
  <flow id="JF59849" begin="5300" fromJunction="J0" toJunction="J3" end="5360" vehsPerHour="30.302727220611494"/>
  <flow id="JF59850" begin="5300" fromJunction="J2" toJunction="J4" end="5360" vehsPerHour="113.74909185246527"/>
  <flow id="JF59851" begin="5300" fromJunction="J3" toJunction="J2" end="5360" vehsPerHour="67.98904598611924"/>
  <flow id="JF59852" begin="5300" fromJunction="J3" toJunction="J4" end="5360" vehsPerHour="121.85665094494489"/>
  <flow id="JF59853" begin="5300" fromJunction="J4" toJunction="J0" end="5360" vehsPerHour="100.82854150903717"/>
  <flow id="JF59854" begin="5300" fromJunction="J4" toJunction="J3" end="5360" vehsPerHour="96.7257135012437"/>
  <flow id="JF59855" begin="5360" fromJunction="J0" toJunction="J2" end="5420" vehsPerHour="1.3423454387918168"/>
  <flow id="JF59856" begin="5360" fromJunction="J0" toJunction="J3" end="5420" vehsPerHour="18.149597317117223"/>
  <flow id="JF59857" begin="5360" fromJunction="J2" toJunction="J3" end="5420" vehsPerHour="54.40391760028112"/>
  <flow id="JF59858" begin="5360" fromJunction="J2" toJunction="J4" end="5420" vehsPerHour="8.250763395217536"/>
  <flow id="JF59859" begin="5360" fromJunction="J3" toJunction="J0" end="5420" vehsPerHour="26.564621437911324"/>
  <flow id="JF59860" begin="5360" fromJunction="J3" toJunction="J2" end="5420" vehsPerHour="102.52142518475382"/>
  <flow id="JF59861" begin="5360" fromJunction="J3" toJunction="J4" end="5420" vehsPerHour="54.11458025554311"/>
  <flow id="JF59862" begin="5360" fromJunction="J4" toJunction="J0" end="5420" vehsPerHour="37.9642280652595"/>
  <flow id="JF59863" begin="5360" fromJunction="J4" toJunction="J3" end="5420" vehsPerHour="84.59522440807716"/>
  <flow id="JF59864" begin="5420" fromJunction="J0" toJunction="J2" end="5480" vehsPerHour="99.9245523589081"/>
  <flow id="JF59865" begin="5420" fromJunction="J0" toJunction="J3" end="5480" vehsPerHour="87.40502629925564"/>
  <flow id="JF59866" begin="5420" fromJunction="J2" toJunction="J0" end="5480" vehsPerHour="45.163081972360345"/>
  <flow id="JF59867" begin="5420" fromJunction="J2" toJunction="J4" end="5480" vehsPerHour="103.33930756996328"/>
  <flow id="JF59868" begin="5420" fromJunction="J3" toJunction="J0" end="5480" vehsPerHour="36.39054037166704"/>
  <flow id="JF59869" begin="5420" fromJunction="J3" toJunction="J4" end="5480" vehsPerHour="38.890538407213974"/>
  <flow id="JF59870" begin="5420" fromJunction="J4" toJunction="J2" end="5480" vehsPerHour="112.65433044789295"/>
  <flow id="JF59871" begin="5420" fromJunction="J4" toJunction="J3" end="5480" vehsPerHour="77.03479200287092"/>
  <flow id="JF59872" begin="5480" fromJunction="J0" toJunction="J2" end="5540" vehsPerHour="96.67663390640718"/>
  <flow id="JF59873" begin="5480" fromJunction="J0" toJunction="J3" end="5540" vehsPerHour="62.14593427793287"/>
  <flow id="JF59874" begin="5480" fromJunction="J0" toJunction="J4" end="5540" vehsPerHour="85.4114258577063"/>
  <flow id="JF59875" begin="5480" fromJunction="J2" toJunction="J0" end="5540" vehsPerHour="128.78623246824708"/>
  <flow id="JF59876" begin="5480" fromJunction="J2" toJunction="J3" end="5540" vehsPerHour="85.1826320428708"/>
  <flow id="JF59877" begin="5480" fromJunction="J2" toJunction="J4" end="5540" vehsPerHour="104.26275128594122"/>
  <flow id="JF59878" begin="5480" fromJunction="J3" toJunction="J0" end="5540" vehsPerHour="74.94047503694121"/>
  <flow id="JF59879" begin="5480" fromJunction="J3" toJunction="J2" end="5540" vehsPerHour="71.80059093971784"/>
  <flow id="JF59880" begin="5480" fromJunction="J4" toJunction="J2" end="5540" vehsPerHour="108.72791960002652"/>
  <flow id="JF59881" begin="5480" fromJunction="J4" toJunction="J3" end="5540" vehsPerHour="96.49357517247053"/>
  <flow id="JF59882" begin="5540" fromJunction="J0" toJunction="J3" end="5600" vehsPerHour="54.05987224755233"/>
  <flow id="JF59883" begin="5540" fromJunction="J0" toJunction="J4" end="5600" vehsPerHour="48.60464328296346"/>
  <flow id="JF59884" begin="5540" fromJunction="J2" toJunction="J0" end="5600" vehsPerHour="101.52578839760028"/>
  <flow id="JF59885" begin="5540" fromJunction="J2" toJunction="J3" end="5600" vehsPerHour="132.74751105164958"/>
  <flow id="JF59886" begin="5540" fromJunction="J2" toJunction="J4" end="5600" vehsPerHour="85.12350503706708"/>
  <flow id="JF59887" begin="5540" fromJunction="J3" toJunction="J0" end="5600" vehsPerHour="133.45428378290774"/>
  <flow id="JF59888" begin="5540" fromJunction="J3" toJunction="J2" end="5600" vehsPerHour="13.031854578353087"/>
  <flow id="JF59889" begin="5540" fromJunction="J3" toJunction="J4" end="5600" vehsPerHour="15.213832319326166"/>
  <flow id="JF59890" begin="5540" fromJunction="J4" toJunction="J0" end="5600" vehsPerHour="44.51054931923725"/>
  <flow id="JF59891" begin="5540" fromJunction="J4" toJunction="J2" end="5600" vehsPerHour="8.417184550374058"/>
  <flow id="JF59892" begin="5540" fromJunction="J4" toJunction="J3" end="5600" vehsPerHour="81.08231175046217"/>
  <flow id="JF59893" begin="5600" fromJunction="J0" toJunction="J2" end="5660" vehsPerHour="122.04123170387305"/>
  <flow id="JF59894" begin="5600" fromJunction="J0" toJunction="J3" end="5660" vehsPerHour="95.99342679409688"/>
  <flow id="JF59895" begin="5600" fromJunction="J0" toJunction="J4" end="5660" vehsPerHour="63.13555258354196"/>
  <flow id="JF59896" begin="5600" fromJunction="J2" toJunction="J0" end="5660" vehsPerHour="58.342205900491365"/>
  <flow id="JF59897" begin="5600" fromJunction="J2" toJunction="J4" end="5660" vehsPerHour="0.15109596542972234"/>
  <flow id="JF59898" begin="5600" fromJunction="J3" toJunction="J0" end="5660" vehsPerHour="108.43636279543283"/>
  <flow id="JF59899" begin="5600" fromJunction="J3" toJunction="J2" end="5660" vehsPerHour="88.947272642073"/>
  <flow id="JF59900" begin="5600" fromJunction="J4" toJunction="J0" end="5660" vehsPerHour="82.84395444600901"/>
  <flow id="JF59901" begin="5660" fromJunction="J0" toJunction="J3" end="5720" vehsPerHour="40.79503326264387"/>
  <flow id="JF59902" begin="5660" fromJunction="J0" toJunction="J4" end="5720" vehsPerHour="6.166536817230025"/>
  <flow id="JF59903" begin="5660" fromJunction="J2" toJunction="J0" end="5720" vehsPerHour="107.94364739655195"/>
  <flow id="JF59904" begin="5660" fromJunction="J2" toJunction="J3" end="5720" vehsPerHour="129.72580874767425"/>
  <flow id="JF59905" begin="5660" fromJunction="J2" toJunction="J4" end="5720" vehsPerHour="106.20440154471648"/>
  <flow id="JF59906" begin="5660" fromJunction="J3" toJunction="J2" end="5720" vehsPerHour="42.547377190323814"/>
  <flow id="JF59907" begin="5660" fromJunction="J4" toJunction="J0" end="5720" vehsPerHour="135.92772225572384"/>
  <flow id="JF59908" begin="5660" fromJunction="J4" toJunction="J3" end="5720" vehsPerHour="88.26945268168313"/>
  <flow id="JF59909" begin="5720" fromJunction="J0" toJunction="J2" end="5780" vehsPerHour="78.5399869236444"/>
  <flow id="JF59910" begin="5720" fromJunction="J0" toJunction="J4" end="5780" vehsPerHour="45.97310857530294"/>
  <flow id="JF59911" begin="5720" fromJunction="J2" toJunction="J3" end="5780" vehsPerHour="102.49063826251276"/>
  <flow id="JF59912" begin="5720" fromJunction="J3" toJunction="J0" end="5780" vehsPerHour="113.02929429140221"/>
  <flow id="JF59913" begin="5720" fromJunction="J3" toJunction="J4" end="5780" vehsPerHour="23.464505600636304"/>
  <flow id="JF59914" begin="5720" fromJunction="J4" toJunction="J0" end="5780" vehsPerHour="49.43707313133688"/>
  <flow id="JF59915" begin="5720" fromJunction="J4" toJunction="J2" end="5780" vehsPerHour="22.714504619448324"/>
  <flow id="JF59916" begin="5720" fromJunction="J4" toJunction="J3" end="5780" vehsPerHour="70.89453578102712"/>
  <flow id="JF59917" begin="5780" fromJunction="J0" toJunction="J3" end="5840" vehsPerHour="79.17105810191619"/>
  <flow id="JF59918" begin="5780" fromJunction="J2" toJunction="J0" end="5840" vehsPerHour="121.5124111376441"/>
  <flow id="JF59919" begin="5780" fromJunction="J2" toJunction="J4" end="5840" vehsPerHour="40.351130316866154"/>
  <flow id="JF59920" begin="5780" fromJunction="J3" toJunction="J4" end="5840" vehsPerHour="35.689709933588766"/>
  <flow id="JF59921" begin="5780" fromJunction="J4" toJunction="J0" end="5840" vehsPerHour="38.73225737745504"/>
  <flow id="JF59922" begin="5780" fromJunction="J4" toJunction="J2" end="5840" vehsPerHour="99.96307087818494"/>
  <flow id="JF59923" begin="5780" fromJunction="J4" toJunction="J3" end="5840" vehsPerHour="51.02301409142534"/>
  <flow id="JF59924" begin="5840" fromJunction="J0" toJunction="J2" end="5900" vehsPerHour="130.13099926085636"/>
  <flow id="JF59925" begin="5840" fromJunction="J0" toJunction="J4" end="5900" vehsPerHour="97.12942451802847"/>
  <flow id="JF59926" begin="5840" fromJunction="J2" toJunction="J0" end="5900" vehsPerHour="63.28445799957427"/>
  <flow id="JF59927" begin="5840" fromJunction="J2" toJunction="J3" end="5900" vehsPerHour="52.44927614762338"/>
  <flow id="JF59928" begin="5840" fromJunction="J2" toJunction="J4" end="5900" vehsPerHour="67.02368870573274"/>
  <flow id="JF59929" begin="5840" fromJunction="J3" toJunction="J0" end="5900" vehsPerHour="55.769389740056454"/>
  <flow id="JF59930" begin="5840" fromJunction="J3" toJunction="J2" end="5900" vehsPerHour="124.06556474302369"/>
  <flow id="JF59931" begin="5840" fromJunction="J3" toJunction="J4" end="5900" vehsPerHour="7.282490148696401"/>
  <flow id="JF59932" begin="5840" fromJunction="J4" toJunction="J0" end="5900" vehsPerHour="22.101195588915093"/>
  <flow id="JF59933" begin="5840" fromJunction="J4" toJunction="J2" end="5900" vehsPerHour="22.038794511879797"/>
  <flow id="JF59934" begin="5840" fromJunction="J4" toJunction="J3" end="5900" vehsPerHour="19.45737528366166"/>
  <flow id="JF59935" begin="5900" fromJunction="J0" toJunction="J2" end="5960" vehsPerHour="78.99992365954829"/>
  <flow id="JF59936" begin="5900" fromJunction="J0" toJunction="J3" end="5960" vehsPerHour="75.406727455448"/>
  <flow id="JF59937" begin="5900" fromJunction="J0" toJunction="J4" end="5960" vehsPerHour="85.75170228091076"/>
  <flow id="JF59938" begin="5900" fromJunction="J2" toJunction="J0" end="5960" vehsPerHour="73.07856221832517"/>
  <flow id="JF59939" begin="5900" fromJunction="J2" toJunction="J3" end="5960" vehsPerHour="65.38613178263313"/>
  <flow id="JF59940" begin="5900" fromJunction="J2" toJunction="J4" end="5960" vehsPerHour="93.50951855995096"/>
  <flow id="JF59941" begin="5900" fromJunction="J3" toJunction="J0" end="5960" vehsPerHour="75.21960111272296"/>
  <flow id="JF59942" begin="5900" fromJunction="J3" toJunction="J2" end="5960" vehsPerHour="68.91083797887586"/>
  <flow id="JF59943" begin="5900" fromJunction="J3" toJunction="J4" end="5960" vehsPerHour="70.80890047219197"/>
  <flow id="JF59944" begin="5900" fromJunction="J4" toJunction="J2" end="5960" vehsPerHour="35.28408718500319"/>
  <flow id="JF59945" begin="5900" fromJunction="J4" toJunction="J3" end="5960" vehsPerHour="44.11920084594355"/>
  <flow id="JF59946" begin="5960" fromJunction="J0" toJunction="J3" end="6020" vehsPerHour="68.41880011272723"/>
  <flow id="JF59947" begin="5960" fromJunction="J0" toJunction="J4" end="6020" vehsPerHour="45.08127158105441"/>
  <flow id="JF59948" begin="5960" fromJunction="J2" toJunction="J0" end="6020" vehsPerHour="94.00191920826805"/>
  <flow id="JF59949" begin="5960" fromJunction="J2" toJunction="J4" end="6020" vehsPerHour="69.56731306607047"/>
  <flow id="JF59950" begin="5960" fromJunction="J3" toJunction="J2" end="6020" vehsPerHour="66.44588792951416"/>
  <flow id="JF59951" begin="5960" fromJunction="J3" toJunction="J4" end="6020" vehsPerHour="52.11940624287067"/>
  <flow id="JF59952" begin="5960" fromJunction="J4" toJunction="J0" end="6020" vehsPerHour="85.01400863788344"/>
  <flow id="JF59953" begin="5960" fromJunction="J4" toJunction="J3" end="6020" vehsPerHour="53.03674003794407"/>
  <flow id="JF59954" begin="6020" fromJunction="J0" toJunction="J2" end="6080" vehsPerHour="113.96859320690224"/>
  <flow id="JF59955" begin="6020" fromJunction="J0" toJunction="J3" end="6080" vehsPerHour="26.888648894082365"/>
  <flow id="JF59956" begin="6020" fromJunction="J0" toJunction="J4" end="6080" vehsPerHour="131.5560329504141"/>
  <flow id="JF59957" begin="6020" fromJunction="J2" toJunction="J3" end="6080" vehsPerHour="127.12143736452205"/>
  <flow id="JF59958" begin="6020" fromJunction="J2" toJunction="J4" end="6080" vehsPerHour="19.31915335619818"/>
  <flow id="JF59959" begin="6020" fromJunction="J3" toJunction="J0" end="6080" vehsPerHour="65.95417624280807"/>
  <flow id="JF59960" begin="6020" fromJunction="J3" toJunction="J4" end="6080" vehsPerHour="50.3044196683229"/>
  <flow id="JF59961" begin="6020" fromJunction="J4" toJunction="J2" end="6080" vehsPerHour="41.48546207776728"/>
  <flow id="JF59962" begin="6080" fromJunction="J0" toJunction="J3" end="6140" vehsPerHour="0.46452197107210924"/>
  <flow id="JF59963" begin="6080" fromJunction="J0" toJunction="J4" end="6140" vehsPerHour="40.00661963680289"/>
  <flow id="JF59964" begin="6080" fromJunction="J2" toJunction="J0" end="6140" vehsPerHour="84.51577005596928"/>
  <flow id="JF59965" begin="6080" fromJunction="J2" toJunction="J3" end="6140" vehsPerHour="98.0232899646183"/>
  <flow id="JF59966" begin="6080" fromJunction="J3" toJunction="J0" end="6140" vehsPerHour="89.41970809887052"/>
  <flow id="JF59967" begin="6080" fromJunction="J3" toJunction="J2" end="6140" vehsPerHour="86.39283016681874"/>
  <flow id="JF59968" begin="6080" fromJunction="J3" toJunction="J4" end="6140" vehsPerHour="0.3376547901707625"/>
  <flow id="JF59969" begin="6080" fromJunction="J4" toJunction="J2" end="6140" vehsPerHour="114.65683266101341"/>
  <flow id="JF59970" begin="6080" fromJunction="J4" toJunction="J3" end="6140" vehsPerHour="53.41157140857023"/>
  <flow id="JF59971" begin="6140" fromJunction="J0" toJunction="J2" end="6200" vehsPerHour="95.18450694630152"/>
  <flow id="JF59972" begin="6140" fromJunction="J0" toJunction="J3" end="6200" vehsPerHour="81.80119548705794"/>
  <flow id="JF59973" begin="6140" fromJunction="J0" toJunction="J4" end="6200" vehsPerHour="78.79686415657983"/>
  <flow id="JF59974" begin="6140" fromJunction="J2" toJunction="J4" end="6200" vehsPerHour="59.12431467447521"/>
  <flow id="JF59975" begin="6140" fromJunction="J3" toJunction="J0" end="6200" vehsPerHour="18.706165798388305"/>
  <flow id="JF59976" begin="6140" fromJunction="J3" toJunction="J2" end="6200" vehsPerHour="67.70696490674433"/>
  <flow id="JF59977" begin="6200" fromJunction="J0" toJunction="J4" end="6260" vehsPerHour="36.95629055432944"/>
  <flow id="JF59978" begin="6200" fromJunction="J2" toJunction="J4" end="6260" vehsPerHour="37.26930058976488"/>
  <flow id="JF59979" begin="6200" fromJunction="J3" toJunction="J0" end="6260" vehsPerHour="14.739642030298318"/>
  <flow id="JF59980" begin="6200" fromJunction="J3" toJunction="J2" end="6260" vehsPerHour="53.03689351720457"/>
  <flow id="JF59981" begin="6200" fromJunction="J3" toJunction="J4" end="6260" vehsPerHour="108.02776730511586"/>
  <flow id="JF59982" begin="6200" fromJunction="J4" toJunction="J0" end="6260" vehsPerHour="25.0598517264077"/>
  <flow id="JF59983" begin="6260" fromJunction="J0" toJunction="J2" end="6320" vehsPerHour="62.30656341346007"/>
  <flow id="JF59984" begin="6260" fromJunction="J0" toJunction="J3" end="6320" vehsPerHour="120.52263667151381"/>
  <flow id="JF59985" begin="6260" fromJunction="J0" toJunction="J4" end="6320" vehsPerHour="78.03245553372648"/>
  <flow id="JF59986" begin="6260" fromJunction="J2" toJunction="J3" end="6320" vehsPerHour="76.01701568852899"/>
  <flow id="JF59987" begin="6260" fromJunction="J2" toJunction="J4" end="6320" vehsPerHour="107.83726539480367"/>
  <flow id="JF59988" begin="6260" fromJunction="J3" toJunction="J0" end="6320" vehsPerHour="32.9077611957575"/>
  <flow id="JF59989" begin="6260" fromJunction="J3" toJunction="J2" end="6320" vehsPerHour="48.81614153626114"/>
  <flow id="JF59990" begin="6260" fromJunction="J3" toJunction="J4" end="6320" vehsPerHour="12.651140611723237"/>
  <flow id="JF59991" begin="6260" fromJunction="J4" toJunction="J0" end="6320" vehsPerHour="29.50955620097043"/>
  <flow id="JF59992" begin="6260" fromJunction="J4" toJunction="J2" end="6320" vehsPerHour="39.20468305513559"/>
  <flow id="JF59993" begin="6260" fromJunction="J4" toJunction="J3" end="6320" vehsPerHour="97.31944018003092"/>
  <flow id="JF59994" begin="6320" fromJunction="J0" toJunction="J2" end="6380" vehsPerHour="131.82272135476225"/>
  <flow id="JF59995" begin="6320" fromJunction="J0" toJunction="J3" end="6380" vehsPerHour="52.082013922254305"/>
  <flow id="JF59996" begin="6320" fromJunction="J0" toJunction="J4" end="6380" vehsPerHour="50.350834089723406"/>
  <flow id="JF59997" begin="6320" fromJunction="J2" toJunction="J4" end="6380" vehsPerHour="4.195019415518413"/>
  <flow id="JF59998" begin="6320" fromJunction="J3" toJunction="J2" end="6380" vehsPerHour="100.64601684628651"/>
  <flow id="JF59999" begin="6320" fromJunction="J3" toJunction="J4" end="6380" vehsPerHour="115.44862458717115"/>
  <flow id="JF60000" begin="6320" fromJunction="J4" toJunction="J0" end="6380" vehsPerHour="38.90915522425978"/>
  <flow id="JF60001" begin="6320" fromJunction="J4" toJunction="J2" end="6380" vehsPerHour="50.103177634462064"/>
  <flow id="JF60002" begin="6320" fromJunction="J4" toJunction="J3" end="6380" vehsPerHour="32.894537464188474"/>
  <flow id="JF60003" begin="6380" fromJunction="J0" toJunction="J2" end="6440" vehsPerHour="51.86805167050563"/>
  <flow id="JF60004" begin="6380" fromJunction="J0" toJunction="J3" end="6440" vehsPerHour="55.87387035864568"/>
  <flow id="JF60005" begin="6380" fromJunction="J0" toJunction="J4" end="6440" vehsPerHour="104.913493218015"/>
  <flow id="JF60006" begin="6380" fromJunction="J2" toJunction="J0" end="6440" vehsPerHour="73.41268041554177"/>
  <flow id="JF60007" begin="6380" fromJunction="J2" toJunction="J3" end="6440" vehsPerHour="22.57870807724303"/>
  <flow id="JF60008" begin="6380" fromJunction="J2" toJunction="J4" end="6440" vehsPerHour="102.6087811629447"/>
  <flow id="JF60009" begin="6380" fromJunction="J3" toJunction="J4" end="6440" vehsPerHour="5.4044620649366655"/>
  <flow id="JF60010" begin="6380" fromJunction="J4" toJunction="J0" end="6440" vehsPerHour="71.76189173695467"/>
  <flow id="JF60011" begin="6380" fromJunction="J4" toJunction="J2" end="6440" vehsPerHour="65.93795703363506"/>
  <flow id="JF60012" begin="6380" fromJunction="J4" toJunction="J3" end="6440" vehsPerHour="12.324700984155259"/>
  <flow id="JF60013" begin="6440" fromJunction="J0" toJunction="J3" end="6500" vehsPerHour="7.090540546267763"/>
  <flow id="JF60014" begin="6440" fromJunction="J0" toJunction="J4" end="6500" vehsPerHour="7.257460541291147"/>
  <flow id="JF60015" begin="6440" fromJunction="J2" toJunction="J0" end="6500" vehsPerHour="18.45261206951794"/>
  <flow id="JF60016" begin="6440" fromJunction="J2" toJunction="J3" end="6500" vehsPerHour="34.99208451784745"/>
  <flow id="JF60017" begin="6440" fromJunction="J2" toJunction="J4" end="6500" vehsPerHour="82.17596376306817"/>
  <flow id="JF60018" begin="6440" fromJunction="J3" toJunction="J0" end="6500" vehsPerHour="134.97909573341624"/>
  <flow id="JF60019" begin="6440" fromJunction="J3" toJunction="J2" end="6500" vehsPerHour="22.171573455696077"/>
  <flow id="JF60020" begin="6440" fromJunction="J3" toJunction="J4" end="6500" vehsPerHour="134.62879118700513"/>
  <flow id="JF60021" begin="6440" fromJunction="J4" toJunction="J2" end="6500" vehsPerHour="135.55173000612018"/>
  <flow id="JF60022" begin="6440" fromJunction="J4" toJunction="J3" end="6500" vehsPerHour="112.91951108776217"/>
  <flow id="JF60023" begin="6500" fromJunction="J0" toJunction="J2" end="6560" vehsPerHour="5.195043199787053"/>
  <flow id="JF60024" begin="6500" fromJunction="J0" toJunction="J3" end="6560" vehsPerHour="4.364555391632064"/>
  <flow id="JF60025" begin="6500" fromJunction="J2" toJunction="J3" end="6560" vehsPerHour="93.7091444098246"/>
  <flow id="JF60026" begin="6500" fromJunction="J3" toJunction="J2" end="6560" vehsPerHour="61.02555293854259"/>
  <flow id="JF60027" begin="6500" fromJunction="J4" toJunction="J0" end="6560" vehsPerHour="82.84965979895341"/>
  <flow id="JF60028" begin="6500" fromJunction="J4" toJunction="J2" end="6560" vehsPerHour="64.87834060063426"/>
  <flow id="JF60029" begin="6560" fromJunction="J0" toJunction="J2" end="6620" vehsPerHour="74.40579842079592"/>
  <flow id="JF60030" begin="6560" fromJunction="J0" toJunction="J3" end="6620" vehsPerHour="36.855056109392734"/>
  <flow id="JF60031" begin="6560" fromJunction="J2" toJunction="J0" end="6620" vehsPerHour="104.76432399680503"/>
  <flow id="JF60032" begin="6560" fromJunction="J2" toJunction="J3" end="6620" vehsPerHour="109.22447336637376"/>
  <flow id="JF60033" begin="6560" fromJunction="J2" toJunction="J4" end="6620" vehsPerHour="62.53042179533723"/>
  <flow id="JF60034" begin="6560" fromJunction="J3" toJunction="J2" end="6620" vehsPerHour="14.143988301690866"/>
  <flow id="JF60035" begin="6560" fromJunction="J3" toJunction="J4" end="6620" vehsPerHour="64.28676822774989"/>
  <flow id="JF60036" begin="6560" fromJunction="J4" toJunction="J0" end="6620" vehsPerHour="125.84755020733868"/>
  <flow id="JF60037" begin="6620" fromJunction="J0" toJunction="J2" end="6680" vehsPerHour="73.03457509652712"/>
  <flow id="JF60038" begin="6620" fromJunction="J0" toJunction="J3" end="6680" vehsPerHour="84.9571189874559"/>
  <flow id="JF60039" begin="6620" fromJunction="J2" toJunction="J0" end="6680" vehsPerHour="131.7237519464801"/>
  <flow id="JF60040" begin="6620" fromJunction="J2" toJunction="J3" end="6680" vehsPerHour="22.60959167208278"/>
  <flow id="JF60041" begin="6620" fromJunction="J2" toJunction="J4" end="6680" vehsPerHour="21.636827990150728"/>
  <flow id="JF60042" begin="6620" fromJunction="J3" toJunction="J0" end="6680" vehsPerHour="36.551036125083996"/>
  <flow id="JF60043" begin="6620" fromJunction="J3" toJunction="J2" end="6680" vehsPerHour="57.95698790151138"/>
  <flow id="JF60044" begin="6620" fromJunction="J4" toJunction="J0" end="6680" vehsPerHour="134.6168241480846"/>
  <flow id="JF60045" begin="6620" fromJunction="J4" toJunction="J2" end="6680" vehsPerHour="80.95143148174736"/>
  <flow id="JF60046" begin="6620" fromJunction="J4" toJunction="J3" end="6680" vehsPerHour="63.341635853714685"/>
  <flow id="JF60047" begin="6680" fromJunction="J0" toJunction="J4" end="6740" vehsPerHour="134.98747382773826"/>
  <flow id="JF60048" begin="6680" fromJunction="J2" toJunction="J0" end="6740" vehsPerHour="49.92133786061444"/>
  <flow id="JF60049" begin="6680" fromJunction="J2" toJunction="J4" end="6740" vehsPerHour="69.64328877731761"/>
  <flow id="JF60050" begin="6680" fromJunction="J3" toJunction="J0" end="6740" vehsPerHour="99.95928746587494"/>
  <flow id="JF60051" begin="6680" fromJunction="J3" toJunction="J4" end="6740" vehsPerHour="18.533557860445413"/>
  <flow id="JF60052" begin="6680" fromJunction="J4" toJunction="J0" end="6740" vehsPerHour="41.85789627463216"/>
  <flow id="JF60053" begin="6680" fromJunction="J4" toJunction="J2" end="6740" vehsPerHour="94.39527959818288"/>