<?xml version="1.0" encoding="UTF-8"?>
<routes xmlns:xsi="http://www.w3.org/2001/XMLSchema-instance" xsi:noNamespaceSchemaLocation="http://sumo.dlr.de/xsd/routes_file.xsd">
  <flow id="JF57694" begin="0" fromJunction="J3" toJunction="J0" end="5000" vehsPerHour="192.4536711296105"/>
  <flow id="JF57695" begin="0" fromJunction="J0" toJunction="J3" end="5000" vehsPerHour="1192.1630343287716"/>
  <flow id="JF57696" begin="0" fromJunction="J3" toJunction="J2" end="5000" vehsPerHour="119.69307478993959"/>
  <flow id="JF57697" begin="0" fromJunction="J3" toJunction="J4" end="5000" vehsPerHour="35.38779127606667"/>
  <flow id="JF57698" begin="0" fromJunction="J0" toJunction="J2" end="5000" vehsPerHour="6.528468841523381"/>
  <flow id="JF57699" begin="0" fromJunction="J0" toJunction="J4" end="5000" vehsPerHour="96.63216860086554"/>
  <flow id="JF57700" begin="0" fromJunction="J2" toJunction="J4" end="5000" vehsPerHour="262.76949837772645"/>
  <flow id="JF57701" begin="0" fromJunction="J4" toJunction="J2" end="5000" vehsPerHour="281.6805111700867"/>
  <flow id="JF57702" begin="0" fromJunction="J2" toJunction="J3" end="5000" vehsPerHour="57.548230228483924"/>
  <flow id="JF57703" begin="0" fromJunction="J2" toJunction="J0" end="5000" vehsPerHour="104.53396968758821"/>
  <flow id="JF57704" begin="0" fromJunction="J4" toJunction="J3" end="5000" vehsPerHour="28.825405987674664"/>
  <flow id="JF57705" begin="0" fromJunction="J4" toJunction="J0" end="5000" vehsPerHour="119.575399760268"/>
  <flow id="JF57706" begin="5000" fromJunction="J0" toJunction="J2" end="5060" vehsPerHour="115.60266674240735"/>
  <flow id="JF57707" begin="5000" fromJunction="J3" toJunction="J2" end="5060" vehsPerHour="39.02783962930328"/>
  <flow id="JF57708" begin="5000" fromJunction="J4" toJunction="J3" end="5060" vehsPerHour="16.29104978906305"/>
  <flow id="JF57709" begin="5060" fromJunction="J0" toJunction="J3" end="5120" vehsPerHour="55.85153902970904"/>
  <flow id="JF57710" begin="5060" fromJunction="J0" toJunction="J4" end="5120" vehsPerHour="85.2509274755807"/>
  <flow id="JF57711" begin="5060" fromJunction="J2" toJunction="J0" end="5120" vehsPerHour="129.82808100803572"/>
  <flow id="JF57712" begin="5060" fromJunction="J2" toJunction="J3" end="5120" vehsPerHour="22.459973741202752"/>
  <flow id="JF57713" begin="5060" fromJunction="J2" toJunction="J4" end="5120" vehsPerHour="114.48653246528771"/>
  <flow id="JF57714" begin="5060" fromJunction="J3" toJunction="J0" end="5120" vehsPerHour="104.09868806796405"/>
  <flow id="JF57715" begin="5060" fromJunction="J3" toJunction="J2" end="5120" vehsPerHour="128.39738263705632"/>
  <flow id="JF57716" begin="5060" fromJunction="J3" toJunction="J4" end="5120" vehsPerHour="112.67775981757623"/>
  <flow id="JF57717" begin="5060" fromJunction="J4" toJunction="J3" end="5120" vehsPerHour="33.40703547394153"/>
  <flow id="JF57718" begin="5120" fromJunction="J0" toJunction="J2" end="5180" vehsPerHour="47.50033503879371"/>
  <flow id="JF57719" begin="5120" fromJunction="J0" toJunction="J3" end="5180" vehsPerHour="20.094267886210396"/>
  <flow id="JF57720" begin="5120" fromJunction="J0" toJunction="J4" end="5180" vehsPerHour="23.159410628028485"/>
  <flow id="JF57721" begin="5120" fromJunction="J2" toJunction="J3" end="5180" vehsPerHour="29.735940963071325"/>
  <flow id="JF57722" begin="5120" fromJunction="J2" toJunction="J4" end="5180" vehsPerHour="76.15222499330811"/>
  <flow id="JF57723" begin="5120" fromJunction="J3" toJunction="J2" end="5180" vehsPerHour="66.71377309264524"/>
  <flow id="JF57724" begin="5120" fromJunction="J3" toJunction="J4" end="5180" vehsPerHour="127.65530582341351"/>
  <flow id="JF57725" begin="5120" fromJunction="J4" toJunction="J0" end="5180" vehsPerHour="77.64816793536008"/>
  <flow id="JF57726" begin="5120" fromJunction="J4" toJunction="J2" end="5180" vehsPerHour="86.53168829220928"/>
  <flow id="JF57727" begin="5180" fromJunction="J0" toJunction="J4" end="5240" vehsPerHour="43.80421826156143"/>
  <flow id="JF57728" begin="5180" fromJunction="J2" toJunction="J0" end="5240" vehsPerHour="61.15576384787464"/>
  <flow id="JF57729" begin="5180" fromJunction="J2" toJunction="J4" end="5240" vehsPerHour="6.134349299013123"/>
  <flow id="JF57730" begin="5180" fromJunction="J3" toJunction="J0" end="5240" vehsPerHour="44.20452470525407"/>
  <flow id="JF57731" begin="5180" fromJunction="J3" toJunction="J4" end="5240" vehsPerHour="49.10380911242186"/>
  <flow id="JF57732" begin="5180" fromJunction="J4" toJunction="J0" end="5240" vehsPerHour="1.592227724790431"/>
  <flow id="JF57733" begin="5180" fromJunction="J4" toJunction="J2" end="5240" vehsPerHour="106.58643695345528"/>
  <flow id="JF57734" begin="5180" fromJunction="J4" toJunction="J3" end="5240" vehsPerHour="44.65741564568036"/>
  <flow id="JF57735" begin="5240" fromJunction="J0" toJunction="J2" end="5300" vehsPerHour="15.293035110950816"/>
  <flow id="JF57736" begin="5240" fromJunction="J0" toJunction="J3" end="5300" vehsPerHour="33.457392760887004"/>
  <flow id="JF57737" begin="5240" fromJunction="J0" toJunction="J4" end="5300" vehsPerHour="56.91492780603404"/>
  <flow id="JF57738" begin="5240" fromJunction="J2" toJunction="J3" end="5300" vehsPerHour="92.37356859647858"/>
  <flow id="JF57739" begin="5240" fromJunction="J3" toJunction="J0" end="5300" vehsPerHour="106.77310202275551"/>
  <flow id="JF57740" begin="5240" fromJunction="J3" toJunction="J4" end="5300" vehsPerHour="21.90589671984392"/>
  <flow id="JF57741" begin="5300" fromJunction="J0" toJunction="J2" end="5360" vehsPerHour="19.415980281925258"/>
  <flow id="JF57742" begin="5300" fromJunction="J2" toJunction="J0" end="5360" vehsPerHour="88.70464393046403"/>
  <flow id="JF57743" begin="5300" fromJunction="J2" toJunction="J3" end="5360" vehsPerHour="48.16331732174139"/>
  <flow id="JF57744" begin="5300" fromJunction="J2" toJunction="J4" end="5360" vehsPerHour="77.23965796878845"/>
  <flow id="JF57745" begin="5300" fromJunction="J3" toJunction="J0" end="5360" vehsPerHour="24.718435716079505"/>
  <flow id="JF57746" begin="5300" fromJunction="J3" toJunction="J2" end="5360" vehsPerHour="80.76920960959005"/>
  <flow id="JF57747" begin="5300" fromJunction="J3" toJunction="J4" end="5360" vehsPerHour="65.38011445118187"/>
  <flow id="JF57748" begin="5300" fromJunction="J4" toJunction="J0" end="5360" vehsPerHour="8.05754404506962"/>
  <flow id="JF57749" begin="5300" fromJunction="J4" toJunction="J3" end="5360" vehsPerHour="79.30600233527996"/>
  <flow id="JF57750" begin="5360" fromJunction="J0" toJunction="J2" end="5420" vehsPerHour="5.879752678095203"/>
  <flow id="JF57751" begin="5360" fromJunction="J0" toJunction="J3" end="5420" vehsPerHour="70.39919917940632"/>
  <flow id="JF57752" begin="5360" fromJunction="J0" toJunction="J4" end="5420" vehsPerHour="107.98872463124617"/>
  <flow id="JF57753" begin="5360" fromJunction="J2" toJunction="J0" end="5420" vehsPerHour="40.032748131048145"/>
  <flow id="JF57754" begin="5360" fromJunction="J2" toJunction="J4" end="5420" vehsPerHour="108.58807159914942"/>
  <flow id="JF57755" begin="5360" fromJunction="J3" toJunction="J0" end="5420" vehsPerHour="33.96104591398968"/>
  <flow id="JF57756" begin="5360" fromJunction="J3" toJunction="J2" end="5420" vehsPerHour="126.96508045784886"/>
  <flow id="JF57757" begin="5360" fromJunction="J3" toJunction="J4" end="5420" vehsPerHour="51.38424796334871"/>
  <flow id="JF57758" begin="5420" fromJunction="J0" toJunction="J2" end="5480" vehsPerHour="110.18390160156274"/>
  <flow id="JF57759" begin="5420" fromJunction="J0" toJunction="J3" end="5480" vehsPerHour="88.32018736612987"/>
  <flow id="JF57760" begin="5420" fromJunction="J0" toJunction="J4" end="5480" vehsPerHour="94.3257795255545"/>
  <flow id="JF57761" begin="5420" fromJunction="J2" toJunction="J0" end="5480" vehsPerHour="29.101401837311887"/>
  <flow id="JF57762" begin="5420" fromJunction="J2" toJunction="J3" end="5480" vehsPerHour="17.460961118427708"/>
  <flow id="JF57763" begin="5420" fromJunction="J3" toJunction="J0" end="5480" vehsPerHour="69.6080448701216"/>
  <flow id="JF57764" begin="5420" fromJunction="J3" toJunction="J2" end="5480" vehsPerHour="10.600993279011591"/>
  <flow id="JF57765" begin="5420" fromJunction="J3" toJunction="J4" end="5480" vehsPerHour="55.74885693803815"/>
  <flow id="JF57766" begin="5420" fromJunction="J4" toJunction="J2" end="5480" vehsPerHour="117.31913497900037"/>
  <flow id="JF57767" begin="5420" fromJunction="J4" toJunction="J3" end="5480" vehsPerHour="31.210496505690468"/>
  <flow id="JF57768" begin="5480" fromJunction="J0" toJunction="J2" end="5540" vehsPerHour="85.17722573148508"/>
  <flow id="JF57769" begin="5480" fromJunction="J0" toJunction="J3" end="5540" vehsPerHour="119.02302939862334"/>
  <flow id="JF57770" begin="5480" fromJunction="J0" toJunction="J4" end="5540" vehsPerHour="110.89095210273128"/>
  <flow id="JF57771" begin="5480" fromJunction="J2" toJunction="J0" end="5540" vehsPerHour="103.30389012573846"/>
  <flow id="JF57772" begin="5480" fromJunction="J2" toJunction="J3" end="5540" vehsPerHour="37.54702064200254"/>
  <flow id="JF57773" begin="5480" fromJunction="J2" toJunction="J4" end="5540" vehsPerHour="129.73251462245176"/>
  <flow id="JF57774" begin="5480" fromJunction="J3" toJunction="J0" end="5540" vehsPerHour="66.4106701218334"/>
  <flow id="JF57775" begin="5480" fromJunction="J3" toJunction="J2" end="5540" vehsPerHour="23.720052173189497"/>
  <flow id="JF57776" begin="5480" fromJunction="J3" toJunction="J4" end="5540" vehsPerHour="45.40734236425133"/>
  <flow id="JF57777" begin="5480" fromJunction="J4" toJunction="J0" end="5540" vehsPerHour="73.45248345076712"/>
  <flow id="JF57778" begin="5480" fromJunction="J4" toJunction="J2" end="5540" vehsPerHour="14.662450746032519"/>
  <flow id="JF57779" begin="5540" fromJunction="J0" toJunction="J2" end="5600" vehsPerHour="19.12448339731212"/>
  <flow id="JF57780" begin="5540" fromJunction="J0" toJunction="J3" end="5600" vehsPerHour="100.92766668990355"/>
  <flow id="JF57781" begin="5540" fromJunction="J2" toJunction="J0" end="5600" vehsPerHour="112.84838379324387"/>
  <flow id="JF57782" begin="5540" fromJunction="J2" toJunction="J3" end="5600" vehsPerHour="126.04202851548663"/>
  <flow id="JF57783" begin="5540" fromJunction="J3" toJunction="J2" end="5600" vehsPerHour="75.76787787300549"/>
  <flow id="JF57784" begin="5540" fromJunction="J3" toJunction="J4" end="5600" vehsPerHour="86.0805459969968"/>
  <flow id="JF57785" begin="5540" fromJunction="J4" toJunction="J0" end="5600" vehsPerHour="39.99564375146914"/>
  <flow id="JF57786" begin="5540" fromJunction="J4" toJunction="J3" end="5600" vehsPerHour="128.07423296783554"/>
  <flow id="JF57787" begin="5600" fromJunction="J0" toJunction="J3" end="5660" vehsPerHour="72.09175053581842"/>
  <flow id="JF57788" begin="5600" fromJunction="J0" toJunction="J4" end="5660" vehsPerHour="13.860463186825818"/>
  <flow id="JF57789" begin="5600" fromJunction="J2" toJunction="J0" end="5660" vehsPerHour="124.34310209687857"/>
  <flow id="JF57790" begin="5600" fromJunction="J2" toJunction="J4" end="5660" vehsPerHour="39.621645994175495"/>
  <flow id="JF57791" begin="5600" fromJunction="J3" toJunction="J0" end="5660" vehsPerHour="115.25901999507026"/>
  <flow id="JF57792" begin="5600" fromJunction="J3" toJunction="J4" end="5660" vehsPerHour="40.719245490470385"/>
  <flow id="JF57793" begin="5600" fromJunction="J4" toJunction="J2" end="5660" vehsPerHour="49.162419217555126"/>
  <flow id="JF57794" begin="5660" fromJunction="J0" toJunction="J2" end="5720" vehsPerHour="135.39558620501603"/>
  <flow id="JF57795" begin="5660" fromJunction="J0" toJunction="J4" end="5720" vehsPerHour="11.9726018556381"/>
  <flow id="JF57796" begin="5660" fromJunction="J2" toJunction="J4" end="5720" vehsPerHour="48.80107315766978"/>
  <flow id="JF57797" begin="5660" fromJunction="J3" toJunction="J2" end="5720" vehsPerHour="81.56542496635728"/>
  <flow id="JF57798" begin="5660" fromJunction="J3" toJunction="J4" end="5720" vehsPerHour="26.595510369566412"/>
  <flow id="JF57799" begin="5660" fromJunction="J4" toJunction="J0" end="5720" vehsPerHour="7.850215946482631"/>
  <flow id="JF57800" begin="5660" fromJunction="J4" toJunction="J3" end="5720" vehsPerHour="31.24688940076092"/>
  <flow id="JF57801" begin="5720" fromJunction="J0" toJunction="J2" end="5780" vehsPerHour="26.567518000202263"/>
  <flow id="JF57802" begin="5720" fromJunction="J0" toJunction="J3" end="5780" vehsPerHour="44.139570804969615"/>
  <flow id="JF57803" begin="5720" fromJunction="J0" toJunction="J4" end="5780" vehsPerHour="135.02909339096232"/>
  <flow id="JF57804" begin="5720" fromJunction="J2" toJunction="J0" end="5780" vehsPerHour="65.2603208527058"/>
  <flow id="JF57805" begin="5720" fromJunction="J2" toJunction="J4" end="5780" vehsPerHour="22.532274668324348"/>
  <flow id="JF57806" begin="5780" fromJunction="J0" toJunction="J2" end="5840" vehsPerHour="95.66540651793113"/>
  <flow id="JF57807" begin="5780" fromJunction="J0" toJunction="J3" end="5840" vehsPerHour="54.993512799125384"/>
  <flow id="JF57808" begin="5780" fromJunction="J0" toJunction="J4" end="5840" vehsPerHour="65.79991117809904"/>
  <flow id="JF57809" begin="5780" fromJunction="J2" toJunction="J0" end="5840" vehsPerHour="54.02478216548779"/>
  <flow id="JF57810" begin="5780" fromJunction="J2" toJunction="J3" end="5840" vehsPerHour="29.436475953739613"/>
  <flow id="JF57811" begin="5780" fromJunction="J2" toJunction="J4" end="5840" vehsPerHour="26.085260149414907"/>
  <flow id="JF57812" begin="5780" fromJunction="J3" toJunction="J0" end="5840" vehsPerHour="101.63428769077498"/>
  <flow id="JF57813" begin="5780" fromJunction="J3" toJunction="J2" end="5840" vehsPerHour="84.55364583924634"/>
  <flow id="JF57814" begin="5780" fromJunction="J4" toJunction="J3" end="5840" vehsPerHour="125.22992275286607"/>
  <flow id="JF57815" begin="5840" fromJunction="J0" toJunction="J2" end="5900" vehsPerHour="14.991978983906803"/>
  <flow id="JF57816" begin="5840" fromJunction="J0" toJunction="J3" end="5900" vehsPerHour="136.98265001924753"/>
  <flow id="JF57817" begin="5840" fromJunction="J0" toJunction="J4" end="5900" vehsPerHour="112.76095611616047"/>
  <flow id="JF57818" begin="5840" fromJunction="J2" toJunction="J0" end="5900" vehsPerHour="71.99624939621874"/>
  <flow id="JF57819" begin="5840" fromJunction="J2" toJunction="J3" end="5900" vehsPerHour="48.12346526055843"/>
  <flow id="JF57820" begin="5840" fromJunction="J2" toJunction="J4" end="5900" vehsPerHour="91.34166909775249"/>
  <flow id="JF57821" begin="5840" fromJunction="J3" toJunction="J0" end="5900" vehsPerHour="61.348070715080475"/>
  <flow id="JF57822" begin="5840" fromJunction="J3" toJunction="J4" end="5900" vehsPerHour="104.99412768041265"/>
  <flow id="JF57823" begin="5840" fromJunction="J4" toJunction="J0" end="5900" vehsPerHour="5.976896889766345"/>
  <flow id="JF57824" begin="5840" fromJunction="J4" toJunction="J2" end="5900" vehsPerHour="62.70137020173603"/>
  <flow id="JF57825" begin="5840" fromJunction="J4" toJunction="J3" end="5900" vehsPerHour="11.008440458771743"/>
  <flow id="JF57826" begin="5900" fromJunction="J0" toJunction="J2" end="5960" vehsPerHour="43.647618226864225"/>
  <flow id="JF57827" begin="5900" fromJunction="J0" toJunction="J3" end="5960" vehsPerHour="71.78839292663287"/>
  <flow id="JF57828" begin="5900" fromJunction="J0" toJunction="J4" end="5960" vehsPerHour="80.05093693467305"/>
  <flow id="JF57829" begin="5900" fromJunction="J2" toJunction="J0" end="5960" vehsPerHour="54.37818135949277"/>
  <flow id="JF57830" begin="5900" fromJunction="J2" toJunction="J4" end="5960" vehsPerHour="133.80714603380193"/>
  <flow id="JF57831" begin="5900" fromJunction="J3" toJunction="J2" end="5960" vehsPerHour="90.90228103385934"/>
  <flow id="JF57832" begin="5900" fromJunction="J4" toJunction="J2" end="5960" vehsPerHour="87.56758711576425"/>
  <flow id="JF57833" begin="5960" fromJunction="J0" toJunction="J2" end="6020" vehsPerHour="94.15578562263423"/>
  <flow id="JF57834" begin="5960" fromJunction="J0" toJunction="J3" end="6020" vehsPerHour="118.16089090179639"/>
  <flow id="JF57835" begin="5960" fromJunction="J0" toJunction="J4" end="6020" vehsPerHour="67.96063709768417"/>
  <flow id="JF57836" begin="5960" fromJunction="J2" toJunction="J4" end="6020" vehsPerHour="102.49150053096442"/>
  <flow id="JF57837" begin="5960" fromJunction="J3" toJunction="J0" end="6020" vehsPerHour="114.72346141372634"/>
  <flow id="JF57838" begin="5960" fromJunction="J3" toJunction="J2" end="6020" vehsPerHour="89.55503795765354"/>
  <flow id="JF57839" begin="5960" fromJunction="J4" toJunction="J0" end="6020" vehsPerHour="79.79157848960567"/>
  <flow id="JF57840" begin="5960" fromJunction="J4" toJunction="J3" end="6020" vehsPerHour="1.816012478627068"/>
  <flow id="JF57841" begin="6020" fromJunction="J0" toJunction="J2" end="6080" vehsPerHour="136.5189455254317"/>
  <flow id="JF57842" begin="6020" fromJunction="J0" toJunction="J3" end="6080" vehsPerHour="51.36009296646461"/>
  <flow id="JF57843" begin="6020" fromJunction="J0" toJunction="J4" end="6080" vehsPerHour="82.24582108805288"/>
  <flow id="JF57844" begin="6020" fromJunction="J2" toJunction="J0" end="6080" vehsPerHour="40.25957533073888"/>
  <flow id="JF57845" begin="6020" fromJunction="J2" toJunction="J3" end="6080" vehsPerHour="93.5858340005123"/>
  <flow id="JF57846" begin="6020" fromJunction="J3" toJunction="J2" end="6080" vehsPerHour="126.40986046065053"/>
  <flow id="JF57847" begin="6020" fromJunction="J4" toJunction="J0" end="6080" vehsPerHour="58.116303833194614"/>
  <flow id="JF57848" begin="6020" fromJunction="J4" toJunction="J2" end="6080" vehsPerHour="68.76863246568169"/>
  <flow id="JF57849" begin="6080" fromJunction="J0" toJunction="J4" end="6140" vehsPerHour="55.871760720912654"/>
  <flow id="JF57850" begin="6080" fromJunction="J3" toJunction="J0" end="6140" vehsPerHour="56.14441561174622"/>
  <flow id="JF57851" begin="6080" fromJunction="J3" toJunction="J2" end="6140" vehsPerHour="85.59709408500032"/>
  <flow id="JF57852" begin="6080" fromJunction="J3" toJunction="J4" end="6140" vehsPerHour="58.496757024107715"/>
  <flow id="JF57853" begin="6080" fromJunction="J4" toJunction="J0" end="6140" vehsPerHour="44.997627632350884"/>
  <flow id="JF57854" begin="6080" fromJunction="J4" toJunction="J2" end="6140" vehsPerHour="17.639220073182354"/>
  <flow id="JF57855" begin="6080" fromJunction="J4" toJunction="J3" end="6140" vehsPerHour="74.64250847505525"/>
  <flow id="JF57856" begin="6140" fromJunction="J0" toJunction="J2" end="6200" vehsPerHour="114.95728038591334"/>
  <flow id="JF57857" begin="6140" fromJunction="J2" toJunction="J0" end="6200" vehsPerHour="108.82225037881427"/>
  <flow id="JF57858" begin="6140" fromJunction="J2" toJunction="J3" end="6200" vehsPerHour="36.14929646159224"/>
  <flow id="JF57859" begin="6140" fromJunction="J2" toJunction="J4" end="6200" vehsPerHour="98.58599384108028"/>
  <flow id="JF57860" begin="6140" fromJunction="J3" toJunction="J0" end="6200" vehsPerHour="37.91033501269279"/>
  <flow id="JF57861" begin="6140" fromJunction="J3" toJunction="J2" end="6200" vehsPerHour="52.803242661690206"/>
  <flow id="JF57862" begin="6140" fromJunction="J3" toJunction="J4" end="6200" vehsPerHour="27.920277141250565"/>
  <flow id="JF57863" begin="6140" fromJunction="J4" toJunction="J0" end="6200" vehsPerHour="40.10662833611518"/>
  <flow id="JF57864" begin="6140" fromJunction="J4" toJunction="J2" end="6200" vehsPerHour="75.79929069488027"/>
  <flow id="JF57865" begin="6140" fromJunction="J4" toJunction="J3" end="6200" vehsPerHour="127.98148249720846"/>
  <flow id="JF57866" begin="6200" fromJunction="J0" toJunction="J2" end="6260" vehsPerHour="104.24616792736569"/>
  <flow id="JF57867" begin="6200" fromJunction="J0" toJunction="J3" end="6260" vehsPerHour="91.14423130093907"/>
  <flow id="JF57868" begin="6200" fromJunction="J0" toJunction="J4" end="6260" vehsPerHour="4.872244991239598"/>
  <flow id="JF57869" begin="6200" fromJunction="J2" toJunction="J0" end="6260" vehsPerHour="65.1098019134081"/>
  <flow id="JF57870" begin="6200" fromJunction="J2" toJunction="J3" end="6260" vehsPerHour="77.55231311205826"/>
  <flow id="JF57871" begin="6200" fromJunction="J2" toJunction="J4" end="6260" vehsPerHour="55.52422394105955"/>
  <flow id="JF57872" begin="6200" fromJunction="J3" toJunction="J0" end="6260" vehsPerHour="77.7568748938889"/>
  <flow id="JF57873" begin="6200" fromJunction="J3" toJunction="J2" end="6260" vehsPerHour="80.13191230173555"/>
  <flow id="JF57874" begin="6200" fromJunction="J3" toJunction="J4" end="6260" vehsPerHour="48.509379556282425"/>
  <flow id="JF57875" begin="6200" fromJunction="J4" toJunction="J0" end="6260" vehsPerHour="105.48098607277691"/>
  <flow id="JF57876" begin="6200" fromJunction="J4" toJunction="J3" end="6260" vehsPerHour="122.04366504995994"/>
  <flow id="JF57877" begin="6260" fromJunction="J0" toJunction="J2" end="6320" vehsPerHour="117.06796504603362"/>
  <flow id="JF57878" begin="6260" fromJunction="J0" toJunction="J3" end="6320" vehsPerHour="126.75154156120557"/>
  <flow id="JF57879" begin="6260" fromJunction="J0" toJunction="J4" end="6320" vehsPerHour="102.17436824784082"/>
  <flow id="JF57880" begin="6260" fromJunction="J2" toJunction="J4" end="6320" vehsPerHour="52.988548670248385"/>
  <flow id="JF57881" begin="6260" fromJunction="J3" toJunction="J2" end="6320" vehsPerHour="51.42640535124754"/>
  <flow id="JF57882" begin="6260" fromJunction="J3" toJunction="J4" end="6320" vehsPerHour="47.654783383711674"/>
  <flow id="JF57883" begin="6260" fromJunction="J4" toJunction="J0" end="6320" vehsPerHour="97.07024335833619"/>
  <flow id="JF57884" begin="6260" fromJunction="J4" toJunction="J3" end="6320" vehsPerHour="128.5120467625538"/>
  <flow id="JF57885" begin="6320" fromJunction="J0" toJunction="J2" end="6380" vehsPerHour="51.94926009060991"/>
  <flow id="JF57886" begin="6320" fromJunction="J0" toJunction="J4" end="6380" vehsPerHour="47.078840324490535"/>
  <flow id="JF57887" begin="6320" fromJunction="J2" toJunction="J4" end="6380" vehsPerHour="129.34520623111527"/>
  <flow id="JF57888" begin="6320" fromJunction="J3" toJunction="J0" end="6380" vehsPerHour="104.1373280257715"/>
  <flow id="JF57889" begin="6320" fromJunction="J3" toJunction="J4" end="6380" vehsPerHour="53.30377742259739"/>
  <flow id="JF57890" begin="6320" fromJunction="J4" toJunction="J0" end="6380" vehsPerHour="3.436342671584614"/>
  <flow id="JF57891" begin="6320" fromJunction="J4" toJunction="J2" end="6380" vehsPerHour="104.27439978555046"/>
  <flow id="JF57892" begin="6320" fromJunction="J4" toJunction="J3" end="6380" vehsPerHour="116.38677485987414"/>
  <flow id="JF57893" begin="6380" fromJunction="J0" toJunction="J4" end="6440" vehsPerHour="130.2470208717546"/>
  <flow id="JF57894" begin="6380" fromJunction="J2" toJunction="J4" end="6440" vehsPerHour="14.074127603321749"/>
  <flow id="JF57895" begin="6380" fromJunction="J3" toJunction="J0" end="6440" vehsPerHour="71.30774919767005"/>
  <flow id="JF57896" begin="6380" fromJunction="J3" toJunction="J2" end="6440" vehsPerHour="28.469030437254986"/>
  <flow id="JF57897" begin="6380" fromJunction="J4" toJunction="J2" end="6440" vehsPerHour="91.78088596500281"/>
  <flow id="JF57898" begin="6380" fromJunction="J4" toJunction="J3" end="6440" vehsPerHour="33.008981852942824"/>
  <flow id="JF57899" begin="6440" fromJunction="J0" toJunction="J2" end="6500" vehsPerHour="86.828680800129"/>
  <flow id="JF57900" begin="6440" fromJunction="J0" toJunction="J3" end="6500" vehsPerHour="79.9501274754371"/>
  <flow id="JF57901" begin="6440" fromJunction="J2" toJunction="J3" end="6500" vehsPerHour="27.068003153974395"/>
  <flow id="JF57902" begin="6440" fromJunction="J3" toJunction="J0" end="6500" vehsPerHour="132.58641575707483"/>
  <flow id="JF57903" begin="6440" fromJunction="J3" toJunction="J2" end="6500" vehsPerHour="77.99890636707146"/>
  <flow id="JF57904" begin="6440" fromJunction="J3" toJunction="J4" end="6500" vehsPerHour="92.49913288937137"/>
  <flow id="JF57905" begin="6440" fromJunction="J4" toJunction="J2" end="6500" vehsPerHour="88.90673875789017"/>
  <flow id="JF57906" begin="6440" fromJunction="J4" toJunction="J3" end="6500" vehsPerHour="56.7496724523737"/>
  <flow id="JF57907" begin="6500" fromJunction="J0" toJunction="J2" end="6560" vehsPerHour="92.27453455725197"/>
  <flow id="JF57908" begin="6500" fromJunction="J0" toJunction="J3" end="6560" vehsPerHour="68.62612361441255"/>
  <flow id="JF57909" begin="6500" fromJunction="J2" toJunction="J3" end="6560" vehsPerHour="51.31558553311596"/>
  <flow id="JF57910" begin="6500" fromJunction="J2" toJunction="J4" end="6560" vehsPerHour="85.53675620654774"/>
  <flow id="JF57911" begin="6500" fromJunction="J3" toJunction="J0" end="6560" vehsPerHour="6.775241683394915"/>
  <flow id="JF57912" begin="6500" fromJunction="J3" toJunction="J4" end="6560" vehsPerHour="122.64924040064147"/>
  <flow id="JF57913" begin="6500" fromJunction="J4" toJunction="J0" end="6560" vehsPerHour="102.12298137030088"/>
  <flow id="JF57914" begin="6560" fromJunction="J0" toJunction="J2" end="6620" vehsPerHour="108.20999542365276"/>
  <flow id="JF57915" begin="6560" fromJunction="J0" toJunction="J3" end="6620" vehsPerHour="132.49885344705893"/>
  <flow id="JF57916" begin="6560" fromJunction="J0" toJunction="J4" end="6620" vehsPerHour="27.244756345272904"/>
  <flow id="JF57917" begin="6560" fromJunction="J2" toJunction="J0" end="6620" vehsPerHour="11.03429646235702"/>
  <flow id="JF57918" begin="6560" fromJunction="J2" toJunction="J3" end="6620" vehsPerHour="114.2235566368214"/>
  <flow id="JF57919" begin="6560" fromJunction="J3" toJunction="J0" end="6620" vehsPerHour="33.37786218459511"/>
  <flow id="JF57920" begin="6560" fromJunction="J3" toJunction="J2" end="6620" vehsPerHour="111.41749749032809"/>
  <flow id="JF57921" begin="6560" fromJunction="J3" toJunction="J4" end="6620" vehsPerHour="61.74618586408586"/>
  <flow id="JF57922" begin="6560" fromJunction="J4" toJunction="J0" end="6620" vehsPerHour="90.1833211354764"/>
  <flow id="JF57923" begin="6560" fromJunction="J4" toJunction="J2" end="6620" vehsPerHour="98.91067496059597"/>
  <flow id="JF57924" begin="6560" fromJunction="J4" toJunction="J3" end="6620" vehsPerHour="47.79342247869144"/>
  <flow id="JF57925" begin="6620" fromJunction="J0" toJunction="J3" end="6680" vehsPerHour="63.09272607490731"/>
  <flow id="JF57926" begin="6620" fromJunction="J2" toJunction="J0" end="6680" vehsPerHour="60.110929084586665"/>
  <flow id="JF57927" begin="6620" fromJunction="J2" toJunction="J3" end="6680" vehsPerHour="55.88924465140258"/>
  <flow id="JF57928" begin="6620" fromJunction="J2" toJunction="J4" end="6680" vehsPerHour="66.5544664880134"/>
  <flow id="JF57929" begin="6620" fromJunction="J3" toJunction="J0" end="6680" vehsPerHour="89.33306528339475"/>
  <flow id="JF57930" begin="6620" fromJunction="J3" toJunction="J2" end="6680" vehsPerHour="64.98882105988442"/>
  <flow id="JF57931" begin="6620" fromJunction="J4" toJunction="J0" end="6680" vehsPerHour="58.0788768134159"/>
  <flow id="JF57932" begin="6680" fromJunction="J0" toJunction="J2" end="6740" vehsPerHour="88.6955788732048"/>
  <flow id="JF57933" begin="6680" fromJunction="J0" toJunction="J3" end="6740" vehsPerHour="43.159593707854654"/>
  <flow id="JF57934" begin="6680" fromJunction="J0" toJunction="J4" end="6740" vehsPerHour="96.2788497777972"/>
  <flow id="JF57935" begin="6680" fromJunction="J2" toJunction="J0" end="6740" vehsPerHour="48.989661219384985"/>
  <flow id="JF57936" begin="6680" fromJunction="J2" toJunction="J3" end="6740" vehsPerHour="113.82524931577571"/>
  <flow id="JF57937" begin="6680" fromJunction="J2" toJunction="J4" end="6740" vehsPerHour="34.990920026304714"/>
  <flow id="JF57938" begin="6680" fromJunction="J3" toJunction="J0" end="6740" vehsPerHour="109.35390777638437"/>
  <flow id="JF57939" begin="6680" fromJunction="J3" toJunction="J2" end="6740" vehsPerHour="128.59721265609184"/>
  <flow id="JF57940" begin="6680" fromJunction="J3" toJunction="J4" end="6740" vehsPerHour="9.835368977026532"/>
  <flow id="JF57941" begin="6680" fromJunction="J4" toJunction="J0" end="6740" vehsPerHour="64.00598935235388"/>
  <flow id="JF57942" begin="6680" fromJunction="J4" toJunction="J2" end="6740" vehsPerHour="18.60205053108794"/>
  <flow id="JF57943" begin="6680" fromJunction="J4" toJunction="J3" end="6740" vehsPerHour="64.84955245261163"/>
  <flow id="JF57944" begin="6740" fromJunction="J0" toJunction="J2" end="6800" vehsPerHour="128.28229007478106"/>
  <flow id="JF57945" begin="6740" fromJunction="J2" toJunction="J4" end="6800" vehsPerHour="71.90184844630907"/>
  <flow id="JF57946" begin="6740" fromJunction="J3" toJunction="J0" end="6800" vehsPerHour="109.45683582087833"/>
  <flow id="JF57947" begin="6740" fromJunction="J3" toJunction="J2" end="6800" vehsPerHour="40.070626924379305"/>
  <flow id="JF57948" begin="6740" fromJunction="J4" toJunction="J2" end="6800" vehsPerHour="21.684457716722765"/>
  <flow id="JF57949" begin="6740" fromJunction="J4" toJunction="J3" end="6800" vehsPerHour="116.7883447140958"/>
  <flow id="JF57950" begin="6800" fromJunction="J0" toJunction="J3" end="6860" vehsPerHour="71.27915303415814"/>
  <flow id="JF57951" begin="6800" fromJunction="J2" toJunction="J0" end="6860" vehsPerHour="105.23709867359855"/>
  <flow id="JF57952" begin="6800" fromJunction="J2" toJunction="J3" end="6860" vehsPerHour="105.11070193100225"/>
  <flow id="JF57953" begin="6800" fromJunction="J2" toJunction="J4" end="6860" vehsPerHour="122.6702542606997"/>
  <flow id="JF57954" begin="6800" fromJunction="J3" toJunction="J0" end="6860" vehsPerHour="73.18846126978005"/>
  <flow id="JF57955" begin="6800" fromJunction="J3" toJunction="J2" end="6860" vehsPerHour="66.65262285483925"/>
  <flow id="JF57956" begin="6800" fromJunction="J3" toJunction="J4" end="6860" vehsPerHour="40.054579342877865"/>