<?xml version="1.0" encoding="UTF-8"?>
<routes xmlns:xsi="http://www.w3.org/2001/XMLSchema-instance" xsi:noNamespaceSchemaLocation="http://sumo.dlr.de/xsd/routes_file.xsd">
  <flow id="JF54910" begin="0" fromJunction="J3" toJunction="J0" end="5000" vehsPerHour="293.55032472816447"/>
  <flow id="JF54911" begin="0" fromJunction="J0" toJunction="J3" end="5000" vehsPerHour="111.28879484292287"/>
  <flow id="JF54912" begin="0" fromJunction="J3" toJunction="J2" end="5000" vehsPerHour="130.86528845459168"/>
  <flow id="JF54913" begin="0" fromJunction="J3" toJunction="J4" end="5000" vehsPerHour="102.71651587519489"/>
  <flow id="JF54914" begin="0" fromJunction="J0" toJunction="J2" end="5000" vehsPerHour="26.292113943103235"/>
  <flow id="JF54915" begin="0" fromJunction="J0" toJunction="J4" end="5000" vehsPerHour="9.67039814026592"/>
  <flow id="JF54916" begin="0" fromJunction="J2" toJunction="J4" end="5000" vehsPerHour="383.47615681291126"/>
  <flow id="JF54917" begin="0" fromJunction="J4" toJunction="J2" end="5000" vehsPerHour="121.52303030702485"/>
  <flow id="JF54918" begin="0" fromJunction="J2" toJunction="J3" end="5000" vehsPerHour="113.95374923761122"/>
  <flow id="JF54919" begin="0" fromJunction="J2" toJunction="J0" end="5000" vehsPerHour="7.962007484192258"/>
  <flow id="JF54920" begin="0" fromJunction="J4" toJunction="J3" end="5000" vehsPerHour="65.64782514295997"/>
  <flow id="JF54921" begin="0" fromJunction="J4" toJunction="J0" end="5000" vehsPerHour="70.21658027970737"/>
  <flow id="JF54922" begin="5000" fromJunction="J0" toJunction="J3" end="5060" vehsPerHour="33.42251449781608"/>
  <flow id="JF54923" begin="5000" fromJunction="J0" toJunction="J4" end="5060" vehsPerHour="52.22815993793995"/>
  <flow id="JF54924" begin="5000" fromJunction="J2" toJunction="J4" end="5060" vehsPerHour="66.36103078047786"/>
  <flow id="JF54925" begin="5000" fromJunction="J3" toJunction="J0" end="5060" vehsPerHour="108.78134631373251"/>
  <flow id="JF54926" begin="5000" fromJunction="J3" toJunction="J2" end="5060" vehsPerHour="118.97141975349321"/>
  <flow id="JF54927" begin="5000" fromJunction="J3" toJunction="J4" end="5060" vehsPerHour="30.05594661307361"/>
  <flow id="JF54928" begin="5000" fromJunction="J4" toJunction="J0" end="5060" vehsPerHour="47.26730625504518"/>
  <flow id="JF54929" begin="5000" fromJunction="J4" toJunction="J2" end="5060" vehsPerHour="92.84347789007649"/>
  <flow id="JF54930" begin="5000" fromJunction="J4" toJunction="J3" end="5060" vehsPerHour="111.82867223606038"/>
  <flow id="JF54931" begin="5060" fromJunction="J0" toJunction="J2" end="5120" vehsPerHour="78.19255100060758"/>
  <flow id="JF54932" begin="5060" fromJunction="J0" toJunction="J3" end="5120" vehsPerHour="46.8911701380411"/>
  <flow id="JF54933" begin="5060" fromJunction="J0" toJunction="J4" end="5120" vehsPerHour="121.27303015862316"/>
  <flow id="JF54934" begin="5060" fromJunction="J2" toJunction="J0" end="5120" vehsPerHour="61.555596960469494"/>
  <flow id="JF54935" begin="5060" fromJunction="J2" toJunction="J4" end="5120" vehsPerHour="33.541540221461744"/>
  <flow id="JF54936" begin="5060" fromJunction="J3" toJunction="J0" end="5120" vehsPerHour="5.35722081763235"/>
  <flow id="JF54937" begin="5060" fromJunction="J3" toJunction="J2" end="5120" vehsPerHour="26.332392465704988"/>
  <flow id="JF54938" begin="5060" fromJunction="J3" toJunction="J4" end="5120" vehsPerHour="45.154460537864715"/>
  <flow id="JF54939" begin="5060" fromJunction="J4" toJunction="J0" end="5120" vehsPerHour="55.76473528981775"/>
  <flow id="JF54940" begin="5060" fromJunction="J4" toJunction="J2" end="5120" vehsPerHour="66.44909679506574"/>
  <flow id="JF54941" begin="5060" fromJunction="J4" toJunction="J3" end="5120" vehsPerHour="65.81604186417046"/>
  <flow id="JF54942" begin="5120" fromJunction="J0" toJunction="J2" end="5180" vehsPerHour="12.589958518005043"/>
  <flow id="JF54943" begin="5120" fromJunction="J0" toJunction="J3" end="5180" vehsPerHour="25.207013000170875"/>
  <flow id="JF54944" begin="5120" fromJunction="J2" toJunction="J0" end="5180" vehsPerHour="127.08265257976346"/>
  <flow id="JF54945" begin="5120" fromJunction="J2" toJunction="J4" end="5180" vehsPerHour="21.013525742824516"/>
  <flow id="JF54946" begin="5120" fromJunction="J3" toJunction="J0" end="5180" vehsPerHour="38.201566742742116"/>
  <flow id="JF54947" begin="5120" fromJunction="J3" toJunction="J2" end="5180" vehsPerHour="129.96048253097314"/>
  <flow id="JF54948" begin="5120" fromJunction="J3" toJunction="J4" end="5180" vehsPerHour="13.643659293333036"/>
  <flow id="JF54949" begin="5120" fromJunction="J4" toJunction="J0" end="5180" vehsPerHour="74.77647708265711"/>
  <flow id="JF54950" begin="5120" fromJunction="J4" toJunction="J2" end="5180" vehsPerHour="94.35021804330262"/>
  <flow id="JF54951" begin="5180" fromJunction="J0" toJunction="J2" end="5240" vehsPerHour="61.13062403631729"/>
  <flow id="JF54952" begin="5180" fromJunction="J0" toJunction="J3" end="5240" vehsPerHour="73.05289951411564"/>
  <flow id="JF54953" begin="5180" fromJunction="J0" toJunction="J4" end="5240" vehsPerHour="72.2634830169189"/>
  <flow id="JF54954" begin="5180" fromJunction="J2" toJunction="J0" end="5240" vehsPerHour="83.84163154480036"/>
  <flow id="JF54955" begin="5180" fromJunction="J2" toJunction="J3" end="5240" vehsPerHour="9.599439626437215"/>
  <flow id="JF54956" begin="5180" fromJunction="J2" toJunction="J4" end="5240" vehsPerHour="98.36483550162973"/>
  <flow id="JF54957" begin="5180" fromJunction="J3" toJunction="J0" end="5240" vehsPerHour="18.121879511389107"/>
  <flow id="JF54958" begin="5180" fromJunction="J3" toJunction="J2" end="5240" vehsPerHour="67.3833263334566"/>
  <flow id="JF54959" begin="5180" fromJunction="J4" toJunction="J0" end="5240" vehsPerHour="56.19551085643074"/>
  <flow id="JF54960" begin="5180" fromJunction="J4" toJunction="J2" end="5240" vehsPerHour="116.25431346701903"/>
  <flow id="JF54961" begin="5180" fromJunction="J4" toJunction="J3" end="5240" vehsPerHour="5.291365498735347"/>
  <flow id="JF54962" begin="5240" fromJunction="J0" toJunction="J2" end="5300" vehsPerHour="36.37731906043205"/>
  <flow id="JF54963" begin="5240" fromJunction="J0" toJunction="J3" end="5300" vehsPerHour="24.47439470165409"/>
  <flow id="JF54964" begin="5240" fromJunction="J2" toJunction="J0" end="5300" vehsPerHour="62.83963584941337"/>
  <flow id="JF54965" begin="5240" fromJunction="J2" toJunction="J3" end="5300" vehsPerHour="17.775948947490267"/>
  <flow id="JF54966" begin="5240" fromJunction="J2" toJunction="J4" end="5300" vehsPerHour="72.0737620658719"/>
  <flow id="JF54967" begin="5240" fromJunction="J3" toJunction="J2" end="5300" vehsPerHour="28.54112949173399"/>
  <flow id="JF54968" begin="5240" fromJunction="J4" toJunction="J0" end="5300" vehsPerHour="18.417288549229387"/>
  <flow id="JF54969" begin="5240" fromJunction="J4" toJunction="J3" end="5300" vehsPerHour="14.778353647325726"/>
  <flow id="JF54970" begin="5300" fromJunction="J0" toJunction="J2" end="5360" vehsPerHour="28.025431450772416"/>
  <flow id="JF54971" begin="5300" fromJunction="J0" toJunction="J3" end="5360" vehsPerHour="114.80493762568568"/>
  <flow id="JF54972" begin="5300" fromJunction="J2" toJunction="J0" end="5360" vehsPerHour="97.28368482429799"/>
  <flow id="JF54973" begin="5300" fromJunction="J2" toJunction="J3" end="5360" vehsPerHour="35.39778330826501"/>
  <flow id="JF54974" begin="5300" fromJunction="J2" toJunction="J4" end="5360" vehsPerHour="56.814720453422375"/>
  <flow id="JF54975" begin="5300" fromJunction="J3" toJunction="J0" end="5360" vehsPerHour="40.74396468108523"/>
  <flow id="JF54976" begin="5300" fromJunction="J3" toJunction="J4" end="5360" vehsPerHour="11.315384094521425"/>
  <flow id="JF54977" begin="5300" fromJunction="J4" toJunction="J0" end="5360" vehsPerHour="127.68130621280707"/>
  <flow id="JF54978" begin="5300" fromJunction="J4" toJunction="J2" end="5360" vehsPerHour="133.01438117393627"/>
  <flow id="JF54979" begin="5360" fromJunction="J0" toJunction="J3" end="5420" vehsPerHour="55.58413304794633"/>
  <flow id="JF54980" begin="5360" fromJunction="J0" toJunction="J4" end="5420" vehsPerHour="135.44895806813201"/>
  <flow id="JF54981" begin="5360" fromJunction="J2" toJunction="J0" end="5420" vehsPerHour="130.19406234416138"/>
  <flow id="JF54982" begin="5360" fromJunction="J2" toJunction="J3" end="5420" vehsPerHour="25.932131122607274"/>
  <flow id="JF54983" begin="5360" fromJunction="J3" toJunction="J0" end="5420" vehsPerHour="81.7591155438275"/>
  <flow id="JF54984" begin="5360" fromJunction="J3" toJunction="J2" end="5420" vehsPerHour="133.01890234678834"/>
  <flow id="JF54985" begin="5360" fromJunction="J3" toJunction="J4" end="5420" vehsPerHour="121.52698001513485"/>
  <flow id="JF54986" begin="5360" fromJunction="J4" toJunction="J0" end="5420" vehsPerHour="101.4636432700488"/>
  <flow id="JF54987" begin="5360" fromJunction="J4" toJunction="J2" end="5420" vehsPerHour="19.27866039971115"/>
  <flow id="JF54988" begin="5420" fromJunction="J0" toJunction="J2" end="5480" vehsPerHour="67.74707232739942"/>
  <flow id="JF54989" begin="5420" fromJunction="J0" toJunction="J3" end="5480" vehsPerHour="13.469617289297462"/>
  <flow id="JF54990" begin="5420" fromJunction="J0" toJunction="J4" end="5480" vehsPerHour="99.28406848798451"/>
  <flow id="JF54991" begin="5420" fromJunction="J2" toJunction="J4" end="5480" vehsPerHour="27.91314141334908"/>
  <flow id="JF54992" begin="5420" fromJunction="J3" toJunction="J0" end="5480" vehsPerHour="28.499488216340644"/>
  <flow id="JF54993" begin="5420" fromJunction="J3" toJunction="J2" end="5480" vehsPerHour="77.02521666686374"/>
  <flow id="JF54994" begin="5420" fromJunction="J3" toJunction="J4" end="5480" vehsPerHour="33.755040645341744"/>
  <flow id="JF54995" begin="5420" fromJunction="J4" toJunction="J3" end="5480" vehsPerHour="45.24908638403958"/>
  <flow id="JF54996" begin="5480" fromJunction="J0" toJunction="J2" end="5540" vehsPerHour="57.76722099942756"/>
  <flow id="JF54997" begin="5480" fromJunction="J0" toJunction="J3" end="5540" vehsPerHour="109.20447780994506"/>
  <flow id="JF54998" begin="5480" fromJunction="J2" toJunction="J0" end="5540" vehsPerHour="53.5960474879046"/>
  <flow id="JF54999" begin="5480" fromJunction="J2" toJunction="J3" end="5540" vehsPerHour="127.55762713602289"/>
  <flow id="JF55000" begin="5480" fromJunction="J2" toJunction="J4" end="5540" vehsPerHour="99.88093561588398"/>
  <flow id="JF55001" begin="5540" fromJunction="J0" toJunction="J3" end="5600" vehsPerHour="5.110789632294069"/>
  <flow id="JF55002" begin="5540" fromJunction="J0" toJunction="J4" end="5600" vehsPerHour="81.78041624525709"/>
  <flow id="JF55003" begin="5540" fromJunction="J2" toJunction="J3" end="5600" vehsPerHour="14.75007218004205"/>
  <flow id="JF55004" begin="5540" fromJunction="J3" toJunction="J0" end="5600" vehsPerHour="32.15495396250249"/>
  <flow id="JF55005" begin="5540" fromJunction="J3" toJunction="J4" end="5600" vehsPerHour="102.04823610334206"/>
  <flow id="JF55006" begin="5540" fromJunction="J4" toJunction="J0" end="5600" vehsPerHour="70.97012525241172"/>
  <flow id="JF55007" begin="5600" fromJunction="J0" toJunction="J3" end="5660" vehsPerHour="78.75880023306584"/>
  <flow id="JF55008" begin="5600" fromJunction="J0" toJunction="J4" end="5660" vehsPerHour="63.1011442592817"/>
  <flow id="JF55009" begin="5600" fromJunction="J2" toJunction="J0" end="5660" vehsPerHour="135.89889002509804"/>
  <flow id="JF55010" begin="5600" fromJunction="J2" toJunction="J3" end="5660" vehsPerHour="56.69060017985269"/>
  <flow id="JF55011" begin="5600" fromJunction="J3" toJunction="J0" end="5660" vehsPerHour="8.010858574231886"/>
  <flow id="JF55012" begin="5600" fromJunction="J3" toJunction="J2" end="5660" vehsPerHour="54.221234583027275"/>
  <flow id="JF55013" begin="5600" fromJunction="J3" toJunction="J4" end="5660" vehsPerHour="90.70963485188291"/>
  <flow id="JF55014" begin="5600" fromJunction="J4" toJunction="J0" end="5660" vehsPerHour="82.24024261758812"/>
  <flow id="JF55015" begin="5600" fromJunction="J4" toJunction="J2" end="5660" vehsPerHour="87.56735330161843"/>
  <flow id="JF55016" begin="5600" fromJunction="J4" toJunction="J3" end="5660" vehsPerHour="0.29795693981783616"/>
  <flow id="JF55017" begin="5660" fromJunction="J0" toJunction="J2" end="5720" vehsPerHour="5.528007194875946"/>
  <flow id="JF55018" begin="5660" fromJunction="J0" toJunction="J3" end="5720" vehsPerHour="34.1545171327792"/>
  <flow id="JF55019" begin="5660" fromJunction="J0" toJunction="J4" end="5720" vehsPerHour="55.351864460644094"/>
  <flow id="JF55020" begin="5660" fromJunction="J2" toJunction="J0" end="5720" vehsPerHour="108.03763616020743"/>
  <flow id="JF55021" begin="5660" fromJunction="J2" toJunction="J3" end="5720" vehsPerHour="137.0782674758079"/>
  <flow id="JF55022" begin="5660" fromJunction="J3" toJunction="J0" end="5720" vehsPerHour="15.387304480992624"/>
  <flow id="JF55023" begin="5660" fromJunction="J3" toJunction="J2" end="5720" vehsPerHour="135.7163664837366"/>
  <flow id="JF55024" begin="5660" fromJunction="J3" toJunction="J4" end="5720" vehsPerHour="81.58458332733136"/>
  <flow id="JF55025" begin="5660" fromJunction="J4" toJunction="J2" end="5720" vehsPerHour="116.40861316458734"/>
  <flow id="JF55026" begin="5660" fromJunction="J4" toJunction="J3" end="5720" vehsPerHour="41.207594374228506"/>
  <flow id="JF55027" begin="5720" fromJunction="J0" toJunction="J2" end="5780" vehsPerHour="124.74223958616264"/>
  <flow id="JF55028" begin="5720" fromJunction="J0" toJunction="J3" end="5780" vehsPerHour="120.47308173918334"/>
  <flow id="JF55029" begin="5720" fromJunction="J2" toJunction="J0" end="5780" vehsPerHour="79.79046943716754"/>
  <flow id="JF55030" begin="5720" fromJunction="J2" toJunction="J3" end="5780" vehsPerHour="97.61503959800167"/>
  <flow id="JF55031" begin="5720" fromJunction="J2" toJunction="J4" end="5780" vehsPerHour="86.65143931443572"/>
  <flow id="JF55032" begin="5720" fromJunction="J3" toJunction="J2" end="5780" vehsPerHour="46.842757616331"/>
  <flow id="JF55033" begin="5720" fromJunction="J3" toJunction="J4" end="5780" vehsPerHour="102.29671492648477"/>
  <flow id="JF55034" begin="5720" fromJunction="J4" toJunction="J0" end="5780" vehsPerHour="117.55666254379577"/>
  <flow id="JF55035" begin="5720" fromJunction="J4" toJunction="J2" end="5780" vehsPerHour="45.80191310862715"/>
  <flow id="JF55036" begin="5720" fromJunction="J4" toJunction="J3" end="5780" vehsPerHour="26.214390530326288"/>
  <flow id="JF55037" begin="5780" fromJunction="J0" toJunction="J2" end="5840" vehsPerHour="112.44739799736546"/>
  <flow id="JF55038" begin="5780" fromJunction="J0" toJunction="J3" end="5840" vehsPerHour="100.66886084853628"/>
  <flow id="JF55039" begin="5780" fromJunction="J2" toJunction="J0" end="5840" vehsPerHour="101.48611911254588"/>
  <flow id="JF55040" begin="5780" fromJunction="J3" toJunction="J0" end="5840" vehsPerHour="6.5822488204412934"/>
  <flow id="JF55041" begin="5780" fromJunction="J3" toJunction="J2" end="5840" vehsPerHour="36.523286803533246"/>
  <flow id="JF55042" begin="5780" fromJunction="J3" toJunction="J4" end="5840" vehsPerHour="51.47610224842492"/>
  <flow id="JF55043" begin="5780" fromJunction="J4" toJunction="J0" end="5840" vehsPerHour="28.853354614941576"/>
  <flow id="JF55044" begin="5780" fromJunction="J4" toJunction="J3" end="5840" vehsPerHour="114.87356390529669"/>
  <flow id="JF55045" begin="5840" fromJunction="J0" toJunction="J3" end="5900" vehsPerHour="82.84186224989104"/>
  <flow id="JF55046" begin="5840" fromJunction="J0" toJunction="J4" end="5900" vehsPerHour="116.75615929224925"/>
  <flow id="JF55047" begin="5840" fromJunction="J2" toJunction="J0" end="5900" vehsPerHour="8.413725024166185"/>
  <flow id="JF55048" begin="5840" fromJunction="J2" toJunction="J3" end="5900" vehsPerHour="84.19704038776098"/>
  <flow id="JF55049" begin="5840" fromJunction="J2" toJunction="J4" end="5900" vehsPerHour="135.96173064753475"/>
  <flow id="JF55050" begin="5840" fromJunction="J3" toJunction="J0" end="5900" vehsPerHour="124.15283817732883"/>
  <flow id="JF55051" begin="5840" fromJunction="J3" toJunction="J2" end="5900" vehsPerHour="133.75268833600092"/>
  <flow id="JF55052" begin="5840" fromJunction="J4" toJunction="J2" end="5900" vehsPerHour="60.549360101895665"/>
  <flow id="JF55053" begin="5840" fromJunction="J4" toJunction="J3" end="5900" vehsPerHour="6.264488871661917"/>
  <flow id="JF55054" begin="5900" fromJunction="J0" toJunction="J2" end="5960" vehsPerHour="11.208281816869686"/>
  <flow id="JF55055" begin="5900" fromJunction="J0" toJunction="J3" end="5960" vehsPerHour="40.028320926471956"/>
  <flow id="JF55056" begin="5900" fromJunction="J0" toJunction="J4" end="5960" vehsPerHour="125.95993934877269"/>
  <flow id="JF55057" begin="5900" fromJunction="J2" toJunction="J0" end="5960" vehsPerHour="69.96658123038821"/>
  <flow id="JF55058" begin="5900" fromJunction="J2" toJunction="J3" end="5960" vehsPerHour="7.022519872547372"/>
  <flow id="JF55059" begin="5900" fromJunction="J3" toJunction="J0" end="5960" vehsPerHour="79.04430385846536"/>
  <flow id="JF55060" begin="5900" fromJunction="J3" toJunction="J4" end="5960" vehsPerHour="6.975056211127914"/>
  <flow id="JF55061" begin="5900" fromJunction="J4" toJunction="J0" end="5960" vehsPerHour="38.19812570697949"/>
  <flow id="JF55062" begin="5900" fromJunction="J4" toJunction="J3" end="5960" vehsPerHour="34.99791365445507"/>
  <flow id="JF55063" begin="5960" fromJunction="J0" toJunction="J2" end="6020" vehsPerHour="7.767817448959786"/>
  <flow id="JF55064" begin="5960" fromJunction="J0" toJunction="J3" end="6020" vehsPerHour="52.73764184849848"/>
  <flow id="JF55065" begin="5960" fromJunction="J2" toJunction="J0" end="6020" vehsPerHour="46.6651925944659"/>
  <flow id="JF55066" begin="5960" fromJunction="J2" toJunction="J3" end="6020" vehsPerHour="2.041168425749221"/>
  <flow id="JF55067" begin="5960" fromJunction="J2" toJunction="J4" end="6020" vehsPerHour="36.91030159102949"/>
  <flow id="JF55068" begin="5960" fromJunction="J3" toJunction="J0" end="6020" vehsPerHour="49.00469901736551"/>
  <flow id="JF55069" begin="5960" fromJunction="J3" toJunction="J2" end="6020" vehsPerHour="24.12932610557751"/>
  <flow id="JF55070" begin="5960" fromJunction="J4" toJunction="J0" end="6020" vehsPerHour="3.3096461251132836"/>
  <flow id="JF55071" begin="5960" fromJunction="J4" toJunction="J2" end="6020" vehsPerHour="12.500402569172405"/>
  <flow id="JF55072" begin="5960" fromJunction="J4" toJunction="J3" end="6020" vehsPerHour="102.83028282507541"/>
  <flow id="JF55073" begin="6020" fromJunction="J0" toJunction="J2" end="6080" vehsPerHour="6.720795961260487"/>
  <flow id="JF55074" begin="6020" fromJunction="J0" toJunction="J4" end="6080" vehsPerHour="41.32636637697657"/>
  <flow id="JF55075" begin="6020" fromJunction="J2" toJunction="J3" end="6080" vehsPerHour="107.43768380294632"/>
  <flow id="JF55076" begin="6020" fromJunction="J2" toJunction="J4" end="6080" vehsPerHour="77.81207887545695"/>
  <flow id="JF55077" begin="6020" fromJunction="J3" toJunction="J0" end="6080" vehsPerHour="34.06777130075174"/>
  <flow id="JF55078" begin="6020" fromJunction="J3" toJunction="J2" end="6080" vehsPerHour="105.3380793868397"/>
  <flow id="JF55079" begin="6020" fromJunction="J3" toJunction="J4" end="6080" vehsPerHour="24.898182518446422"/>
  <flow id="JF55080" begin="6020" fromJunction="J4" toJunction="J0" end="6080" vehsPerHour="46.50173138263075"/>
  <flow id="JF55081" begin="6020" fromJunction="J4" toJunction="J2" end="6080" vehsPerHour="67.10649824793065"/>
  <flow id="JF55082" begin="6020" fromJunction="J4" toJunction="J3" end="6080" vehsPerHour="61.56458338708925"/>
  <flow id="JF55083" begin="6080" fromJunction="J0" toJunction="J4" end="6140" vehsPerHour="79.04797994068399"/>
  <flow id="JF55084" begin="6080" fromJunction="J2" toJunction="J0" end="6140" vehsPerHour="48.20599031082524"/>
  <flow id="JF55085" begin="6080" fromJunction="J2" toJunction="J3" end="6140" vehsPerHour="27.071100586755307"/>
  <flow id="JF55086" begin="6080" fromJunction="J2" toJunction="J4" end="6140" vehsPerHour="137.3990907544567"/>
  <flow id="JF55087" begin="6080" fromJunction="J3" toJunction="J4" end="6140" vehsPerHour="126.90939731900785"/>
  <flow id="JF55088" begin="6080" fromJunction="J4" toJunction="J0" end="6140" vehsPerHour="43.0649929346517"/>
  <flow id="JF55089" begin="6080" fromJunction="J4" toJunction="J2" end="6140" vehsPerHour="93.69506012114594"/>
  <flow id="JF55090" begin="6140" fromJunction="J0" toJunction="J3" end="6200" vehsPerHour="53.74043966775764"/>
  <flow id="JF55091" begin="6140" fromJunction="J0" toJunction="J4" end="6200" vehsPerHour="129.20280194504784"/>
  <flow id="JF55092" begin="6140" fromJunction="J2" toJunction="J0" end="6200" vehsPerHour="48.620678132937485"/>
  <flow id="JF55093" begin="6140" fromJunction="J3" toJunction="J2" end="6200" vehsPerHour="75.9768224155267"/>
  <flow id="JF55094" begin="6140" fromJunction="J3" toJunction="J4" end="6200" vehsPerHour="106.53483579723262"/>
  <flow id="JF55095" begin="6140" fromJunction="J4" toJunction="J2" end="6200" vehsPerHour="10.941633449527808"/>
  <flow id="JF55096" begin="6140" fromJunction="J4" toJunction="J3" end="6200" vehsPerHour="24.59967518307526"/>
  <flow id="JF55097" begin="6200" fromJunction="J0" toJunction="J3" end="6260" vehsPerHour="9.927109662146785"/>
  <flow id="JF55098" begin="6200" fromJunction="J0" toJunction="J4" end="6260" vehsPerHour="57.911353990174604"/>
  <flow id="JF55099" begin="6200" fromJunction="J2" toJunction="J0" end="6260" vehsPerHour="79.97555660345249"/>
  <flow id="JF55100" begin="6200" fromJunction="J2" toJunction="J3" end="6260" vehsPerHour="32.02363202976649"/>
  <flow id="JF55101" begin="6200" fromJunction="J3" toJunction="J0" end="6260" vehsPerHour="96.87558070188115"/>
  <flow id="JF55102" begin="6200" fromJunction="J3" toJunction="J2" end="6260" vehsPerHour="114.90426241426418"/>
  <flow id="JF55103" begin="6200" fromJunction="J4" toJunction="J2" end="6260" vehsPerHour="124.80192335873659"/>
  <flow id="JF55104" begin="6260" fromJunction="J0" toJunction="J2" end="6320" vehsPerHour="128.82384626528986"/>
  <flow id="JF55105" begin="6260" fromJunction="J2" toJunction="J3" end="6320" vehsPerHour="56.675305548521415"/>
  <flow id="JF55106" begin="6260" fromJunction="J2" toJunction="J4" end="6320" vehsPerHour="127.19986096291024"/>
  <flow id="JF55107" begin="6260" fromJunction="J3" toJunction="J0" end="6320" vehsPerHour="80.73604539508337"/>
  <flow id="JF55108" begin="6260" fromJunction="J3" toJunction="J2" end="6320" vehsPerHour="111.53962397495665"/>
  <flow id="JF55109" begin="6260" fromJunction="J4" toJunction="J3" end="6320" vehsPerHour="32.466894837437046"/>
  <flow id="JF55110" begin="6320" fromJunction="J0" toJunction="J3" end="6380" vehsPerHour="84.70977689417609"/>
  <flow id="JF55111" begin="6320" fromJunction="J2" toJunction="J0" end="6380" vehsPerHour="69.68181263499389"/>
  <flow id="JF55112" begin="6320" fromJunction="J2" toJunction="J3" end="6380" vehsPerHour="75.04066055556933"/>
  <flow id="JF55113" begin="6320" fromJunction="J2" toJunction="J4" end="6380" vehsPerHour="42.102100949794206"/>
  <flow id="JF55114" begin="6320" fromJunction="J3" toJunction="J2" end="6380" vehsPerHour="109.64903257148555"/>
  <flow id="JF55115" begin="6320" fromJunction="J3" toJunction="J4" end="6380" vehsPerHour="106.44977879878678"/>
  <flow id="JF55116" begin="6320" fromJunction="J4" toJunction="J0" end="6380" vehsPerHour="96.32074337161797"/>
  <flow id="JF55117" begin="6380" fromJunction="J0" toJunction="J3" end="6440" vehsPerHour="107.43207324157778"/>
  <flow id="JF55118" begin="6380" fromJunction="J2" toJunction="J0" end="6440" vehsPerHour="10.175008361187755"/>
  <flow id="JF55119" begin="6380" fromJunction="J2" toJunction="J4" end="6440" vehsPerHour="59.23425811100896"/>
  <flow id="JF55120" begin="6380" fromJunction="J3" toJunction="J0" end="6440" vehsPerHour="57.586635187264804"/>
  <flow id="JF55121" begin="6380" fromJunction="J3" toJunction="J4" end="6440" vehsPerHour="24.75868061505769"/>
  <flow id="JF55122" begin="6380" fromJunction="J4" toJunction="J2" end="6440" vehsPerHour="29.35374916470057"/>
  <flow id="JF55123" begin="6440" fromJunction="J0" toJunction="J2" end="6500" vehsPerHour="96.69139729963776"/>
  <flow id="JF55124" begin="6440" fromJunction="J0" toJunction="J3" end="6500" vehsPerHour="2.0288341955444555"/>
  <flow id="JF55125" begin="6440" fromJunction="J2" toJunction="J4" end="6500" vehsPerHour="92.11483112901985"/>
  <flow id="JF55126" begin="6440" fromJunction="J3" toJunction="J0" end="6500" vehsPerHour="136.29387303983336"/>
  <flow id="JF55127" begin="6440" fromJunction="J3" toJunction="J2" end="6500" vehsPerHour="73.69957163947157"/>
  <flow id="JF55128" begin="6440" fromJunction="J4" toJunction="J3" end="6500" vehsPerHour="16.74724085418785"/>
  <flow id="JF55129" begin="6500" fromJunction="J0" toJunction="J2" end="6560" vehsPerHour="4.373778141400195"/>
  <flow id="JF55130" begin="6500" fromJunction="J0" toJunction="J3" end="6560" vehsPerHour="0.6981904219277977"/>
  <flow id="JF55131" begin="6500" fromJunction="J0" toJunction="J4" end="6560" vehsPerHour="5.339147215205715"/>
  <flow id="JF55132" begin="6500" fromJunction="J2" toJunction="J0" end="6560" vehsPerHour="95.10732884860316"/>
  <flow id="JF55133" begin="6500" fromJunction="J3" toJunction="J0" end="6560" vehsPerHour="38.5680514497398"/>
  <flow id="JF55134" begin="6500" fromJunction="J3" toJunction="J2" end="6560" vehsPerHour="100.57154580387389"/>
  <flow id="JF55135" begin="6500" fromJunction="J4" toJunction="J0" end="6560" vehsPerHour="111.31458137088772"/>
  <flow id="JF55136" begin="6500" fromJunction="J4" toJunction="J2" end="6560" vehsPerHour="108.77206440082"/>
  <flow id="JF55137" begin="6560" fromJunction="J0" toJunction="J2" end="6620" vehsPerHour="44.46524733925174"/>
  <flow id="JF55138" begin="6560" fromJunction="J0" toJunction="J4" end="6620" vehsPerHour="40.846782911905706"/>
  <flow id="JF55139" begin="6560" fromJunction="J2" toJunction="J3" end="6620" vehsPerHour="100.55691719461684"/>
  <flow id="JF55140" begin="6560" fromJunction="J3" toJunction="J0" end="6620" vehsPerHour="16.663751426415956"/>
  <flow id="JF55141" begin="6560" fromJunction="J3" toJunction="J2" end="6620" vehsPerHour="63.1108349792134"/>
  <flow id="JF55142" begin="6560" fromJunction="J3" toJunction="J4" end="6620" vehsPerHour="20.848372612262608"/>
  <flow id="JF55143" begin="6560" fromJunction="J4" toJunction="J0" end="6620" vehsPerHour="37.6225506212647"/>
  <flow id="JF55144" begin="6560" fromJunction="J4" toJunction="J2" end="6620" vehsPerHour="133.0758820160663"/>
  <flow id="JF55145" begin="6560" fromJunction="J4" toJunction="J3" end="6620" vehsPerHour="3.9567729283941158"/>
  <flow id="JF55146" begin="6620" fromJunction="J0" toJunction="J3" end="6680" vehsPerHour="68.26956506368758"/>
  <flow id="JF55147" begin="6620" fromJunction="J0" toJunction="J4" end="6680" vehsPerHour="76.35519209568832"/>
  <flow id="JF55148" begin="6620" fromJunction="J2" toJunction="J0" end="6680" vehsPerHour="80.1084107072033"/>
  <flow id="JF55149" begin="6620" fromJunction="J2" toJunction="J3" end="6680" vehsPerHour="58.5551284782392"/>
  <flow id="JF55150" begin="6620" fromJunction="J2" toJunction="J4" end="6680" vehsPerHour="110.06312859519007"/>
  <flow id="JF55151" begin="6620" fromJunction="J3" toJunction="J0" end="6680" vehsPerHour="89.64029826426714"/>
  <flow id="JF55152" begin="6620" fromJunction="J3" toJunction="J4" end="6680" vehsPerHour="99.94855324092882"/>
  <flow id="JF55153" begin="6620" fromJunction="J4" toJunction="J0" end="6680" vehsPerHour="73.73965839228532"/>
  <flow id="JF55154" begin="6620" fromJunction="J4" toJunction="J3" end="6680" vehsPerHour="50.48060138658653"/>
  <flow id="JF55155" begin="6680" fromJunction="J0" toJunction="J3" end="6740" vehsPerHour="72.29333057853702"/>
  <flow id="JF55156" begin="6680" fromJunction="J2" toJunction="J0" end="6740" vehsPerHour="107.58768101443665"/>
  <flow id="JF55157" begin="6680" fromJunction="J2" toJunction="J3" end="6740" vehsPerHour="112.30463657279321"/>
  <flow id="JF55158" begin="6680" fromJunction="J3" toJunction="J4" end="6740" vehsPerHour="75.37600222529139"/>
  <flow id="JF55159" begin="6680" fromJunction="J4" toJunction="J0" end="6740" vehsPerHour="115.30174733100654"/>
  <flow id="JF55160" begin="6680" fromJunction="J4" toJunction="J2" end="6740" vehsPerHour="120.34564596536593"/>
  <flow id="JF55161" begin="6740" fromJunction="J0" toJunction="J2" end="6800" vehsPerHour="48.5518675350047"/>
  <flow id="JF55162" begin="6740" fromJunction="J0" toJunction="J3" end="6800" vehsPerHour="117.3032794864756"/>
  <flow id="JF55163" begin="6740" fromJunction="J0" toJunction="J4" end="6800" vehsPerHour="70.98281034359725"/>
  <flow id="JF55164" begin="6740" fromJunction="J2" toJunction="J0" end="6800" vehsPerHour="45.636732915052434"/>
  <flow id="JF55165" begin="6740" fromJunction="J2" toJunction="J4" end="6800" vehsPerHour="54.177178320800394"/>
  <flow id="JF55166" begin="6740" fromJunction="J3" toJunction="J0" end="6800" vehsPerHour="22.83354997739376"/>
  <flow id="JF55167" begin="6740" fromJunction="J3" toJunction="J2" end="6800" vehsPerHour="46.72229973031979"/>
  <flow id="JF55168" begin="6740" fromJunction="J3" toJunction="J4" end="6800" vehsPerHour="26.537311153743524"/>
  <flow id="JF55169" begin="6740" fromJunction="J4" toJunction="J0" end="6800" vehsPerHour="100.61850049929474"/>
  <flow id="JF55170" begin="6740" fromJunction="J4" toJunction="J3" end="6800" vehsPerHour="116.67998994001444"/>
  <flow id="JF55171" begin="6800" fromJunction="J2" toJunction="J0" end="6860" vehsPerHour="22.08451954675497"/>
  <flow id="JF55172" begin="6800" fromJunction="J3" toJunction="J0" end="6860" vehsPerHour="105.7701720643341"/>