<?xml version="1.0" encoding="UTF-8"?>
<routes xmlns:xsi="http://www.w3.org/2001/XMLSchema-instance" xsi:noNamespaceSchemaLocation="http://sumo.dlr.de/xsd/routes_file.xsd">
  <flow id="JF53503" begin="0" fromJunction="J3" toJunction="J0" end="5000" vehsPerHour="570.5172509482"/>
  <flow id="JF53504" begin="0" fromJunction="J0" toJunction="J3" end="5000" vehsPerHour="895.0127821771032"/>
  <flow id="JF53505" begin="0" fromJunction="J3" toJunction="J2" end="5000" vehsPerHour="72.7756595589699"/>
  <flow id="JF53506" begin="0" fromJunction="J3" toJunction="J4" end="5000" vehsPerHour="106.2193417073853"/>
  <flow id="JF53507" begin="0" fromJunction="J0" toJunction="J2" end="5000" vehsPerHour="88.256048691651"/>
  <flow id="JF53508" begin="0" fromJunction="J0" toJunction="J4" end="5000" vehsPerHour="68.14229220693336"/>
  <flow id="JF53509" begin="0" fromJunction="J2" toJunction="J4" end="5000" vehsPerHour="47.78584513704377"/>
  <flow id="JF53510" begin="0" fromJunction="J4" toJunction="J2" end="5000" vehsPerHour="477.88616915483493"/>
  <flow id="JF53511" begin="0" fromJunction="J2" toJunction="J3" end="5000" vehsPerHour="15.409759512487236"/>
  <flow id="JF53512" begin="0" fromJunction="J2" toJunction="J0" end="5000" vehsPerHour="98.5256960276861"/>
  <flow id="JF53513" begin="0" fromJunction="J4" toJunction="J3" end="5000" vehsPerHour="16.929726377903677"/>
  <flow id="JF53514" begin="0" fromJunction="J4" toJunction="J0" end="5000" vehsPerHour="90.65428973483493"/>
  <flow id="JF53515" begin="5000" fromJunction="J0" toJunction="J2" end="5060" vehsPerHour="66.23497676026696"/>
  <flow id="JF53516" begin="5000" fromJunction="J0" toJunction="J3" end="5060" vehsPerHour="97.58144448680201"/>
  <flow id="JF53517" begin="5000" fromJunction="J2" toJunction="J0" end="5060" vehsPerHour="34.53240442269239"/>
  <flow id="JF53518" begin="5000" fromJunction="J2" toJunction="J3" end="5060" vehsPerHour="39.31821948821059"/>
  <flow id="JF53519" begin="5000" fromJunction="J2" toJunction="J4" end="5060" vehsPerHour="131.68031638451114"/>
  <flow id="JF53520" begin="5000" fromJunction="J3" toJunction="J4" end="5060" vehsPerHour="126.41450976862832"/>
  <flow id="JF53521" begin="5000" fromJunction="J4" toJunction="J0" end="5060" vehsPerHour="35.862024048800926"/>
  <flow id="JF53522" begin="5060" fromJunction="J0" toJunction="J2" end="5120" vehsPerHour="76.08735005687089"/>
  <flow id="JF53523" begin="5060" fromJunction="J0" toJunction="J4" end="5120" vehsPerHour="6.971447055823422"/>
  <flow id="JF53524" begin="5060" fromJunction="J2" toJunction="J0" end="5120" vehsPerHour="110.585743809665"/>
  <flow id="JF53525" begin="5060" fromJunction="J2" toJunction="J4" end="5120" vehsPerHour="120.73101869472049"/>
  <flow id="JF53526" begin="5060" fromJunction="J3" toJunction="J0" end="5120" vehsPerHour="58.492191033926524"/>
  <flow id="JF53527" begin="5060" fromJunction="J3" toJunction="J2" end="5120" vehsPerHour="105.31661321239358"/>
  <flow id="JF53528" begin="5060" fromJunction="J4" toJunction="J0" end="5120" vehsPerHour="107.44896121192912"/>
  <flow id="JF53529" begin="5060" fromJunction="J4" toJunction="J2" end="5120" vehsPerHour="22.829825051769568"/>
  <flow id="JF53530" begin="5060" fromJunction="J4" toJunction="J3" end="5120" vehsPerHour="29.393021753410995"/>
  <flow id="JF53531" begin="5120" fromJunction="J0" toJunction="J2" end="5180" vehsPerHour="137.0760337582681"/>
  <flow id="JF53532" begin="5120" fromJunction="J0" toJunction="J3" end="5180" vehsPerHour="29.66221393526122"/>
  <flow id="JF53533" begin="5120" fromJunction="J2" toJunction="J0" end="5180" vehsPerHour="107.3394155051478"/>
  <flow id="JF53534" begin="5120" fromJunction="J2" toJunction="J3" end="5180" vehsPerHour="128.034166715304"/>
  <flow id="JF53535" begin="5120" fromJunction="J2" toJunction="J4" end="5180" vehsPerHour="68.30620973760291"/>
  <flow id="JF53536" begin="5120" fromJunction="J3" toJunction="J4" end="5180" vehsPerHour="123.88774860474379"/>
  <flow id="JF53537" begin="5120" fromJunction="J4" toJunction="J0" end="5180" vehsPerHour="79.27205329933888"/>
  <flow id="JF53538" begin="5120" fromJunction="J4" toJunction="J2" end="5180" vehsPerHour="3.763246205407789"/>
  <flow id="JF53539" begin="5180" fromJunction="J0" toJunction="J2" end="5240" vehsPerHour="71.20636535089263"/>
  <flow id="JF53540" begin="5180" fromJunction="J0" toJunction="J3" end="5240" vehsPerHour="1.8234128807548793"/>
  <flow id="JF53541" begin="5180" fromJunction="J0" toJunction="J4" end="5240" vehsPerHour="61.34497048513025"/>
  <flow id="JF53542" begin="5180" fromJunction="J2" toJunction="J0" end="5240" vehsPerHour="93.17509345629604"/>
  <flow id="JF53543" begin="5180" fromJunction="J2" toJunction="J3" end="5240" vehsPerHour="86.33429313863658"/>
  <flow id="JF53544" begin="5180" fromJunction="J2" toJunction="J4" end="5240" vehsPerHour="32.47355509410423"/>
  <flow id="JF53545" begin="5180" fromJunction="J3" toJunction="J0" end="5240" vehsPerHour="109.27365690305821"/>
  <flow id="JF53546" begin="5180" fromJunction="J3" toJunction="J4" end="5240" vehsPerHour="90.32509051215708"/>
  <flow id="JF53547" begin="5180" fromJunction="J4" toJunction="J0" end="5240" vehsPerHour="50.61086832140745"/>
  <flow id="JF53548" begin="5180" fromJunction="J4" toJunction="J2" end="5240" vehsPerHour="44.39685794168018"/>
  <flow id="JF53549" begin="5180" fromJunction="J4" toJunction="J3" end="5240" vehsPerHour="38.13100459546621"/>
  <flow id="JF53550" begin="5240" fromJunction="J0" toJunction="J2" end="5300" vehsPerHour="111.02064424769696"/>
  <flow id="JF53551" begin="5240" fromJunction="J0" toJunction="J3" end="5300" vehsPerHour="8.224080698845283"/>
  <flow id="JF53552" begin="5240" fromJunction="J2" toJunction="J4" end="5300" vehsPerHour="20.701609356148346"/>
  <flow id="JF53553" begin="5240" fromJunction="J3" toJunction="J4" end="5300" vehsPerHour="11.201921344108062"/>
  <flow id="JF53554" begin="5240" fromJunction="J4" toJunction="J2" end="5300" vehsPerHour="96.98023221938516"/>
  <flow id="JF53555" begin="5240" fromJunction="J4" toJunction="J3" end="5300" vehsPerHour="59.24152369644344"/>
  <flow id="JF53556" begin="5300" fromJunction="J0" toJunction="J3" end="5360" vehsPerHour="64.79706215879058"/>
  <flow id="JF53557" begin="5300" fromJunction="J0" toJunction="J4" end="5360" vehsPerHour="118.06586070364709"/>
  <flow id="JF53558" begin="5300" fromJunction="J2" toJunction="J0" end="5360" vehsPerHour="29.741834896529983"/>
  <flow id="JF53559" begin="5300" fromJunction="J2" toJunction="J3" end="5360" vehsPerHour="49.50440317514514"/>
  <flow id="JF53560" begin="5300" fromJunction="J2" toJunction="J4" end="5360" vehsPerHour="75.53773894798935"/>
  <flow id="JF53561" begin="5300" fromJunction="J3" toJunction="J4" end="5360" vehsPerHour="88.84623588150593"/>
  <flow id="JF53562" begin="5300" fromJunction="J4" toJunction="J2" end="5360" vehsPerHour="60.598947586722396"/>
  <flow id="JF53563" begin="5300" fromJunction="J4" toJunction="J3" end="5360" vehsPerHour="97.94973281556493"/>
  <flow id="JF53564" begin="5360" fromJunction="J0" toJunction="J2" end="5420" vehsPerHour="7.411483650177479"/>
  <flow id="JF53565" begin="5360" fromJunction="J0" toJunction="J3" end="5420" vehsPerHour="30.98843391719909"/>
  <flow id="JF53566" begin="5360" fromJunction="J2" toJunction="J0" end="5420" vehsPerHour="126.37034368552355"/>
  <flow id="JF53567" begin="5360" fromJunction="J2" toJunction="J3" end="5420" vehsPerHour="40.9970081694822"/>
  <flow id="JF53568" begin="5360" fromJunction="J3" toJunction="J2" end="5420" vehsPerHour="129.95588173667122"/>
  <flow id="JF53569" begin="5360" fromJunction="J3" toJunction="J4" end="5420" vehsPerHour="74.63227625477573"/>
  <flow id="JF53570" begin="5360" fromJunction="J4" toJunction="J0" end="5420" vehsPerHour="45.108837143349675"/>
  <flow id="JF53571" begin="5360" fromJunction="J4" toJunction="J2" end="5420" vehsPerHour="49.021167031946234"/>
  <flow id="JF53572" begin="5420" fromJunction="J0" toJunction="J2" end="5480" vehsPerHour="94.93152228996135"/>
  <flow id="JF53573" begin="5420" fromJunction="J0" toJunction="J3" end="5480" vehsPerHour="133.21112072232094"/>
  <flow id="JF53574" begin="5420" fromJunction="J0" toJunction="J4" end="5480" vehsPerHour="6.774486106734293"/>
  <flow id="JF53575" begin="5420" fromJunction="J2" toJunction="J3" end="5480" vehsPerHour="32.060494212455126"/>
  <flow id="JF53576" begin="5420" fromJunction="J2" toJunction="J4" end="5480" vehsPerHour="17.797985424089518"/>
  <flow id="JF53577" begin="5420" fromJunction="J3" toJunction="J2" end="5480" vehsPerHour="59.83519725499949"/>
  <flow id="JF53578" begin="5420" fromJunction="J4" toJunction="J0" end="5480" vehsPerHour="120.37025166423625"/>
  <flow id="JF53579" begin="5420" fromJunction="J4" toJunction="J2" end="5480" vehsPerHour="20.47024556415364"/>
  <flow id="JF53580" begin="5480" fromJunction="J0" toJunction="J2" end="5540" vehsPerHour="87.04128149588257"/>
  <flow id="JF53581" begin="5480" fromJunction="J0" toJunction="J4" end="5540" vehsPerHour="95.90192877896433"/>
  <flow id="JF53582" begin="5480" fromJunction="J2" toJunction="J0" end="5540" vehsPerHour="22.811379026665875"/>
  <flow id="JF53583" begin="5480" fromJunction="J2" toJunction="J3" end="5540" vehsPerHour="32.28880042025727"/>
  <flow id="JF53584" begin="5480" fromJunction="J3" toJunction="J0" end="5540" vehsPerHour="5.3091546794285795"/>
  <flow id="JF53585" begin="5480" fromJunction="J4" toJunction="J2" end="5540" vehsPerHour="15.295455672276896"/>
  <flow id="JF53586" begin="5480" fromJunction="J4" toJunction="J3" end="5540" vehsPerHour="34.56756574035011"/>
  <flow id="JF53587" begin="5540" fromJunction="J0" toJunction="J2" end="5600" vehsPerHour="64.19628003596581"/>
  <flow id="JF53588" begin="5540" fromJunction="J0" toJunction="J4" end="5600" vehsPerHour="128.5014391393349"/>
  <flow id="JF53589" begin="5540" fromJunction="J2" toJunction="J0" end="5600" vehsPerHour="49.36829839654646"/>
  <flow id="JF53590" begin="5540" fromJunction="J2" toJunction="J3" end="5600" vehsPerHour="15.869320339005018"/>
  <flow id="JF53591" begin="5540" fromJunction="J2" toJunction="J4" end="5600" vehsPerHour="96.72197749448856"/>
  <flow id="JF53592" begin="5540" fromJunction="J3" toJunction="J4" end="5600" vehsPerHour="4.948262985907872"/>
  <flow id="JF53593" begin="5540" fromJunction="J4" toJunction="J0" end="5600" vehsPerHour="38.2739583452924"/>
  <flow id="JF53594" begin="5540" fromJunction="J4" toJunction="J2" end="5600" vehsPerHour="75.3859042299666"/>
  <flow id="JF53595" begin="5540" fromJunction="J4" toJunction="J3" end="5600" vehsPerHour="106.98911002518936"/>
  <flow id="JF53596" begin="5600" fromJunction="J0" toJunction="J3" end="5660" vehsPerHour="28.113904841763503"/>
  <flow id="JF53597" begin="5600" fromJunction="J0" toJunction="J4" end="5660" vehsPerHour="100.89052632451643"/>
  <flow id="JF53598" begin="5600" fromJunction="J2" toJunction="J0" end="5660" vehsPerHour="77.77600194522718"/>
  <flow id="JF53599" begin="5600" fromJunction="J2" toJunction="J3" end="5660" vehsPerHour="60.186406484533265"/>
  <flow id="JF53600" begin="5600" fromJunction="J3" toJunction="J0" end="5660" vehsPerHour="11.792495652901529"/>
  <flow id="JF53601" begin="5600" fromJunction="J3" toJunction="J4" end="5660" vehsPerHour="38.993740342273775"/>
  <flow id="JF53602" begin="5600" fromJunction="J4" toJunction="J2" end="5660" vehsPerHour="19.216088187995723"/>
  <flow id="JF53603" begin="5600" fromJunction="J4" toJunction="J3" end="5660" vehsPerHour="28.941715303170344"/>
  <flow id="JF53604" begin="5660" fromJunction="J0" toJunction="J2" end="5720" vehsPerHour="119.85996078452942"/>
  <flow id="JF53605" begin="5660" fromJunction="J0" toJunction="J3" end="5720" vehsPerHour="114.03903686902353"/>
  <flow id="JF53606" begin="5660" fromJunction="J0" toJunction="J4" end="5720" vehsPerHour="90.34160157413928"/>
  <flow id="JF53607" begin="5660" fromJunction="J2" toJunction="J0" end="5720" vehsPerHour="91.31184879409713"/>
  <flow id="JF53608" begin="5660" fromJunction="J2" toJunction="J4" end="5720" vehsPerHour="93.21108974653087"/>
  <flow id="JF53609" begin="5660" fromJunction="J3" toJunction="J4" end="5720" vehsPerHour="61.80371415738419"/>
  <flow id="JF53610" begin="5660" fromJunction="J4" toJunction="J0" end="5720" vehsPerHour="33.005517652155966"/>
  <flow id="JF53611" begin="5660" fromJunction="J4" toJunction="J2" end="5720" vehsPerHour="110.99890903462058"/>
  <flow id="JF53612" begin="5720" fromJunction="J0" toJunction="J2" end="5780" vehsPerHour="82.71966782271707"/>
  <flow id="JF53613" begin="5720" fromJunction="J0" toJunction="J3" end="5780" vehsPerHour="57.61958502001745"/>
  <flow id="JF53614" begin="5720" fromJunction="J0" toJunction="J4" end="5780" vehsPerHour="8.473443920040998"/>
  <flow id="JF53615" begin="5720" fromJunction="J2" toJunction="J0" end="5780" vehsPerHour="92.10876628031085"/>
  <flow id="JF53616" begin="5720" fromJunction="J2" toJunction="J3" end="5780" vehsPerHour="135.92003714212515"/>
  <flow id="JF53617" begin="5720" fromJunction="J3" toJunction="J0" end="5780" vehsPerHour="120.73003503519993"/>
  <flow id="JF53618" begin="5720" fromJunction="J3" toJunction="J2" end="5780" vehsPerHour="134.9162592880675"/>
  <flow id="JF53619" begin="5720" fromJunction="J3" toJunction="J4" end="5780" vehsPerHour="83.38824244062728"/>
  <flow id="JF53620" begin="5720" fromJunction="J4" toJunction="J0" end="5780" vehsPerHour="106.96839978273114"/>
  <flow id="JF53621" begin="5720" fromJunction="J4" toJunction="J2" end="5780" vehsPerHour="3.9264530077456743"/>
  <flow id="JF53622" begin="5720" fromJunction="J4" toJunction="J3" end="5780" vehsPerHour="122.15587423414065"/>
  <flow id="JF53623" begin="5780" fromJunction="J0" toJunction="J2" end="5840" vehsPerHour="13.91636717100765"/>
  <flow id="JF53624" begin="5780" fromJunction="J0" toJunction="J3" end="5840" vehsPerHour="23.478367404159705"/>
  <flow id="JF53625" begin="5780" fromJunction="J2" toJunction="J0" end="5840" vehsPerHour="20.60767699031551"/>
  <flow id="JF53626" begin="5780" fromJunction="J2" toJunction="J3" end="5840" vehsPerHour="51.33541902176698"/>
  <flow id="JF53627" begin="5780" fromJunction="J3" toJunction="J0" end="5840" vehsPerHour="78.28043417880284"/>
  <flow id="JF53628" begin="5780" fromJunction="J3" toJunction="J2" end="5840" vehsPerHour="86.10347282695203"/>
  <flow id="JF53629" begin="5780" fromJunction="J3" toJunction="J4" end="5840" vehsPerHour="105.99174187846816"/>
  <flow id="JF53630" begin="5780" fromJunction="J4" toJunction="J2" end="5840" vehsPerHour="48.098734324544715"/>
  <flow id="JF53631" begin="5780" fromJunction="J4" toJunction="J3" end="5840" vehsPerHour="119.42770362714711"/>
  <flow id="JF53632" begin="5840" fromJunction="J0" toJunction="J2" end="5900" vehsPerHour="87.55516726724126"/>
  <flow id="JF53633" begin="5840" fromJunction="J0" toJunction="J3" end="5900" vehsPerHour="43.950861375554325"/>
  <flow id="JF53634" begin="5840" fromJunction="J0" toJunction="J4" end="5900" vehsPerHour="114.73757724957228"/>
  <flow id="JF53635" begin="5840" fromJunction="J2" toJunction="J0" end="5900" vehsPerHour="81.40972626093969"/>
  <flow id="JF53636" begin="5840" fromJunction="J2" toJunction="J4" end="5900" vehsPerHour="1.034177696074612"/>
  <flow id="JF53637" begin="5840" fromJunction="J3" toJunction="J2" end="5900" vehsPerHour="104.49972392198863"/>
  <flow id="JF53638" begin="5840" fromJunction="J3" toJunction="J4" end="5900" vehsPerHour="66.61872107213956"/>
  <flow id="JF53639" begin="5840" fromJunction="J4" toJunction="J0" end="5900" vehsPerHour="109.60133845057979"/>
  <flow id="JF53640" begin="5840" fromJunction="J4" toJunction="J2" end="5900" vehsPerHour="10.880473509222252"/>
  <flow id="JF53641" begin="5900" fromJunction="J0" toJunction="J2" end="5960" vehsPerHour="79.62092850685194"/>
  <flow id="JF53642" begin="5900" fromJunction="J0" toJunction="J3" end="5960" vehsPerHour="23.44386508688886"/>
  <flow id="JF53643" begin="5900" fromJunction="J0" toJunction="J4" end="5960" vehsPerHour="49.0278589146844"/>
  <flow id="JF53644" begin="5900" fromJunction="J2" toJunction="J0" end="5960" vehsPerHour="21.886301592119302"/>
  <flow id="JF53645" begin="5900" fromJunction="J3" toJunction="J0" end="5960" vehsPerHour="118.90889063736962"/>
  <flow id="JF53646" begin="5900" fromJunction="J3" toJunction="J2" end="5960" vehsPerHour="55.968324790759894"/>
  <flow id="JF53647" begin="5900" fromJunction="J3" toJunction="J4" end="5960" vehsPerHour="75.8059425976542"/>
  <flow id="JF53648" begin="5900" fromJunction="J4" toJunction="J2" end="5960" vehsPerHour="70.51361751417016"/>
  <flow id="JF53649" begin="5900" fromJunction="J4" toJunction="J3" end="5960" vehsPerHour="27.156785507365452"/>
  <flow id="JF53650" begin="5960" fromJunction="J0" toJunction="J2" end="6020" vehsPerHour="85.35814010798205"/>
  <flow id="JF53651" begin="5960" fromJunction="J0" toJunction="J3" end="6020" vehsPerHour="5.654628565266484"/>
  <flow id="JF53652" begin="5960" fromJunction="J0" toJunction="J4" end="6020" vehsPerHour="16.595249891179122"/>
  <flow id="JF53653" begin="5960" fromJunction="J2" toJunction="J0" end="6020" vehsPerHour="22.761889992025733"/>
  <flow id="JF53654" begin="5960" fromJunction="J2" toJunction="J3" end="6020" vehsPerHour="45.481015678953426"/>
  <flow id="JF53655" begin="5960" fromJunction="J2" toJunction="J4" end="6020" vehsPerHour="22.808014548355324"/>
  <flow id="JF53656" begin="5960" fromJunction="J3" toJunction="J2" end="6020" vehsPerHour="5.708817028684088"/>
  <flow id="JF53657" begin="5960" fromJunction="J3" toJunction="J4" end="6020" vehsPerHour="47.05085527164197"/>
  <flow id="JF53658" begin="5960" fromJunction="J4" toJunction="J3" end="6020" vehsPerHour="1.7908766307022985"/>
  <flow id="JF53659" begin="6020" fromJunction="J0" toJunction="J2" end="6080" vehsPerHour="41.50058927973634"/>
  <flow id="JF53660" begin="6020" fromJunction="J0" toJunction="J3" end="6080" vehsPerHour="135.53246486529585"/>
  <flow id="JF53661" begin="6020" fromJunction="J2" toJunction="J4" end="6080" vehsPerHour="39.052228659122264"/>
  <flow id="JF53662" begin="6020" fromJunction="J3" toJunction="J0" end="6080" vehsPerHour="66.37806658125933"/>
  <flow id="JF53663" begin="6020" fromJunction="J3" toJunction="J2" end="6080" vehsPerHour="70.95799464407052"/>
  <flow id="JF53664" begin="6020" fromJunction="J3" toJunction="J4" end="6080" vehsPerHour="131.47988037732668"/>
  <flow id="JF53665" begin="6020" fromJunction="J4" toJunction="J0" end="6080" vehsPerHour="113.65476411825989"/>
  <flow id="JF53666" begin="6020" fromJunction="J4" toJunction="J2" end="6080" vehsPerHour="130.88126780789585"/>
  <flow id="JF53667" begin="6020" fromJunction="J4" toJunction="J3" end="6080" vehsPerHour="97.67867219217031"/>
  <flow id="JF53668" begin="6080" fromJunction="J0" toJunction="J2" end="6140" vehsPerHour="1.8266057755873506"/>
  <flow id="JF53669" begin="6080" fromJunction="J0" toJunction="J4" end="6140" vehsPerHour="49.795463308941564"/>
  <flow id="JF53670" begin="6080" fromJunction="J2" toJunction="J0" end="6140" vehsPerHour="131.5685431534286"/>
  <flow id="JF53671" begin="6080" fromJunction="J2" toJunction="J3" end="6140" vehsPerHour="131.02150387398098"/>
  <flow id="JF53672" begin="6080" fromJunction="J3" toJunction="J2" end="6140" vehsPerHour="55.345312081949885"/>
  <flow id="JF53673" begin="6080" fromJunction="J4" toJunction="J2" end="6140" vehsPerHour="11.98389223072731"/>
  <flow id="JF53674" begin="6080" fromJunction="J4" toJunction="J3" end="6140" vehsPerHour="11.645267767339421"/>
  <flow id="JF53675" begin="6140" fromJunction="J0" toJunction="J3" end="6200" vehsPerHour="5.8784696152450415"/>
  <flow id="JF53676" begin="6140" fromJunction="J0" toJunction="J4" end="6200" vehsPerHour="10.146201331265091"/>
  <flow id="JF53677" begin="6140" fromJunction="J2" toJunction="J0" end="6200" vehsPerHour="59.52491267047015"/>
  <flow id="JF53678" begin="6140" fromJunction="J2" toJunction="J4" end="6200" vehsPerHour="48.62752163635759"/>
  <flow id="JF53679" begin="6140" fromJunction="J3" toJunction="J0" end="6200" vehsPerHour="95.35140228317965"/>
  <flow id="JF53680" begin="6140" fromJunction="J3" toJunction="J2" end="6200" vehsPerHour="20.0748789004257"/>
  <flow id="JF53681" begin="6140" fromJunction="J3" toJunction="J4" end="6200" vehsPerHour="19.912558485524563"/>
  <flow id="JF53682" begin="6140" fromJunction="J4" toJunction="J0" end="6200" vehsPerHour="81.41988634807711"/>
  <flow id="JF53683" begin="6140" fromJunction="J4" toJunction="J2" end="6200" vehsPerHour="76.52253350502771"/>
  <flow id="JF53684" begin="6140" fromJunction="J4" toJunction="J3" end="6200" vehsPerHour="7.106063053090448"/>
  <flow id="JF53685" begin="6200" fromJunction="J0" toJunction="J2" end="6260" vehsPerHour="21.29627343944779"/>
  <flow id="JF53686" begin="6200" fromJunction="J0" toJunction="J3" end="6260" vehsPerHour="51.02827202544756"/>
  <flow id="JF53687" begin="6200" fromJunction="J0" toJunction="J4" end="6260" vehsPerHour="18.510211206474175"/>
  <flow id="JF53688" begin="6200" fromJunction="J3" toJunction="J0" end="6260" vehsPerHour="126.63093766047503"/>
  <flow id="JF53689" begin="6200" fromJunction="J4" toJunction="J0" end="6260" vehsPerHour="54.37264029893733"/>
  <flow id="JF53690" begin="6260" fromJunction="J0" toJunction="J3" end="6320" vehsPerHour="45.572518931913145"/>
  <flow id="JF53691" begin="6260" fromJunction="J0" toJunction="J4" end="6320" vehsPerHour="112.14440560062673"/>
  <flow id="JF53692" begin="6260" fromJunction="J2" toJunction="J3" end="6320" vehsPerHour="113.11327261981754"/>
  <flow id="JF53693" begin="6260" fromJunction="J2" toJunction="J4" end="6320" vehsPerHour="71.05691687547352"/>
  <flow id="JF53694" begin="6260" fromJunction="J3" toJunction="J0" end="6320" vehsPerHour="54.586486707967715"/>
  <flow id="JF53695" begin="6260" fromJunction="J3" toJunction="J2" end="6320" vehsPerHour="125.91732475941414"/>
  <flow id="JF53696" begin="6260" fromJunction="J3" toJunction="J4" end="6320" vehsPerHour="43.45027573007607"/>
  <flow id="JF53697" begin="6260" fromJunction="J4" toJunction="J0" end="6320" vehsPerHour="134.7348701604547"/>
  <flow id="JF53698" begin="6260" fromJunction="J4" toJunction="J2" end="6320" vehsPerHour="6.472801447161714"/>
  <flow id="JF53699" begin="6260" fromJunction="J4" toJunction="J3" end="6320" vehsPerHour="68.83894669974333"/>
  <flow id="JF53700" begin="6320" fromJunction="J0" toJunction="J2" end="6380" vehsPerHour="11.942987100425196"/>
  <flow id="JF53701" begin="6320" fromJunction="J0" toJunction="J3" end="6380" vehsPerHour="69.30150453150834"/>
  <flow id="JF53702" begin="6320" fromJunction="J0" toJunction="J4" end="6380" vehsPerHour="129.08262573953235"/>
  <flow id="JF53703" begin="6320" fromJunction="J2" toJunction="J0" end="6380" vehsPerHour="71.78221157271848"/>
  <flow id="JF53704" begin="6320" fromJunction="J3" toJunction="J0" end="6380" vehsPerHour="67.16256874661467"/>
  <flow id="JF53705" begin="6320" fromJunction="J3" toJunction="J2" end="6380" vehsPerHour="118.67181082654174"/>
  <flow id="JF53706" begin="6320" fromJunction="J3" toJunction="J4" end="6380" vehsPerHour="1.545115311672117"/>
  <flow id="JF53707" begin="6320" fromJunction="J4" toJunction="J2" end="6380" vehsPerHour="35.59285413086875"/>
  <flow id="JF53708" begin="6320" fromJunction="J4" toJunction="J3" end="6380" vehsPerHour="26.309655150406122"/>
  <flow id="JF53709" begin="6380" fromJunction="J0" toJunction="J2" end="6440" vehsPerHour="128.4790088867514"/>
  <flow id="JF53710" begin="6380" fromJunction="J2" toJunction="J0" end="6440" vehsPerHour="8.815689523941556"/>
  <flow id="JF53711" begin="6380" fromJunction="J2" toJunction="J4" end="6440" vehsPerHour="63.2178487389745"/>
  <flow id="JF53712" begin="6380" fromJunction="J3" toJunction="J0" end="6440" vehsPerHour="52.078937009359656"/>
  <flow id="JF53713" begin="6380" fromJunction="J3" toJunction="J2" end="6440" vehsPerHour="101.2965056043626"/>
  <flow id="JF53714" begin="6380" fromJunction="J3" toJunction="J4" end="6440" vehsPerHour="95.01324245377901"/>
  <flow id="JF53715" begin="6380" fromJunction="J4" toJunction="J0" end="6440" vehsPerHour="78.29376673818719"/>
  <flow id="JF53716" begin="6380" fromJunction="J4" toJunction="J2" end="6440" vehsPerHour="120.90297767419601"/>
  <flow id="JF53717" begin="6380" fromJunction="J4" toJunction="J3" end="6440" vehsPerHour="73.4187772196684"/>
  <flow id="JF53718" begin="6440" fromJunction="J0" toJunction="J3" end="6500" vehsPerHour="42.827255369179724"/>
  <flow id="JF53719" begin="6440" fromJunction="J0" toJunction="J4" end="6500" vehsPerHour="124.10529938067727"/>
  <flow id="JF53720" begin="6440" fromJunction="J2" toJunction="J0" end="6500" vehsPerHour="89.00657618319016"/>
  <flow id="JF53721" begin="6440" fromJunction="J2" toJunction="J3" end="6500" vehsPerHour="80.91182662302668"/>
  <flow id="JF53722" begin="6440" fromJunction="J3" toJunction="J0" end="6500" vehsPerHour="79.82012440485016"/>
  <flow id="JF53723" begin="6440" fromJunction="J3" toJunction="J2" end="6500" vehsPerHour="49.354697732856046"/>
  <flow id="JF53724" begin="6440" fromJunction="J3" toJunction="J4" end="6500" vehsPerHour="13.294398027101877"/>
  <flow id="JF53725" begin="6440" fromJunction="J4" toJunction="J0" end="6500" vehsPerHour="95.42103672212527"/>
  <flow id="JF53726" begin="6500" fromJunction="J0" toJunction="J2" end="6560" vehsPerHour="79.14207959281434"/>
  <flow id="JF53727" begin="6500" fromJunction="J2" toJunction="J0" end="6560" vehsPerHour="125.86849870487258"/>
  <flow id="JF53728" begin="6500" fromJunction="J2" toJunction="J3" end="6560" vehsPerHour="6.358627576053552"/>
  <flow id="JF53729" begin="6500" fromJunction="J2" toJunction="J4" end="6560" vehsPerHour="74.22669820523026"/>
  <flow id="JF53730" begin="6500" fromJunction="J3" toJunction="J2" end="6560" vehsPerHour="17.785972545109107"/>
  <flow id="JF53731" begin="6500" fromJunction="J3" toJunction="J4" end="6560" vehsPerHour="57.02078371157733"/>
  <flow id="JF53732" begin="6500" fromJunction="J4" toJunction="J0" end="6560" vehsPerHour="106.89802312642469"/>
  <flow id="JF53733" begin="6500" fromJunction="J4" toJunction="J2" end="6560" vehsPerHour="106.0215377414735"/>
  <flow id="JF53734" begin="6500" fromJunction="J4" toJunction="J3" end="6560" vehsPerHour="48.62794375622294"/>
  <flow id="JF53735" begin="6560" fromJunction="J0" toJunction="J2" end="6620" vehsPerHour="137.1975830165613"/>
  <flow id="JF53736" begin="6560" fromJunction="J0" toJunction="J3" end="6620" vehsPerHour="129.80963928989837"/>
  <flow id="JF53737" begin="6560" fromJunction="J2" toJunction="J0" end="6620" vehsPerHour="24.114649204194478"/>
  <flow id="JF53738" begin="6560" fromJunction="J2" toJunction="J3" end="6620" vehsPerHour="17.70194506595124"/>
  <flow id="JF53739" begin="6560" fromJunction="J3" toJunction="J0" end="6620" vehsPerHour="62.4551904981283"/>
  <flow id="JF53740" begin="6560" fromJunction="J3" toJunction="J4" end="6620" vehsPerHour="71.6824833378166"/>
  <flow id="JF53741" begin="6560" fromJunction="J4" toJunction="J0" end="6620" vehsPerHour="32.67551733710512"/>
  <flow id="JF53742" begin="6560" fromJunction="J4" toJunction="J2" end="6620" vehsPerHour="86.38220183957992"/>
  <flow id="JF53743" begin="6560" fromJunction="J4" toJunction="J3" end="6620" vehsPerHour="12.851932328862329"/>
  <flow id="JF53744" begin="6620" fromJunction="J0" toJunction="J2" end="6680" vehsPerHour="0.3559467820576188"/>
  <flow id="JF53745" begin="6620" fromJunction="J0" toJunction="J3" end="6680" vehsPerHour="111.51222051788855"/>
  <flow id="JF53746" begin="6620" fromJunction="J0" toJunction="J4" end="6680" vehsPerHour="80.38287051395783"/>
  <flow id="JF53747" begin="6620" fromJunction="J2" toJunction="J0" end="6680" vehsPerHour="84.24162851827427"/>
  <flow id="JF53748" begin="6620" fromJunction="J3" toJunction="J0" end="6680" vehsPerHour="105.61192917042325"/>
  <flow id="JF53749" begin="6620" fromJunction="J3" toJunction="J2" end="6680" vehsPerHour="34.03207819967742"/>
  <flow id="JF53750" begin="6620" fromJunction="J4" toJunction="J2" end="6680" vehsPerHour="30.99612886507069"/>
  <flow id="JF53751" begin="6680" fromJunction="J0" toJunction="J2" end="6740" vehsPerHour="95.63039781688089"/>
  <flow id="JF53752" begin="6680" fromJunction="J0" toJunction="J3" end="6740" vehsPerHour="62.761134550329665"/>
  <flow id="JF53753" begin="6680" fromJunction="J0" toJunction="J4" end="6740" vehsPerHour="121.42852490193175"/>
  <flow id="JF53754" begin="6680" fromJunction="J2" toJunction="J0" end="6740" vehsPerHour="103.11103981147072"/>
  <flow id="JF53755" begin="6680" fromJunction="J2" toJunction="J3" end="6740" vehsPerHour="90.18251661095331"/>
  <flow id="JF53756" begin="6680" fromJunction="J2" toJunction="J4" end="6740" vehsPerHour="0.9133111282225627"/>
  <flow id="JF53757" begin="6680" fromJunction="J3" toJunction="J2" end="6740" vehsPerHour="8.837093443388788"/>
  <flow id="JF53758" begin="6680" fromJunction="J4" toJunction="J2" end="6740" vehsPerHour="96.07930941131882"/>
  <flow id="JF53759" begin="6740" fromJunction="J0" toJunction="J3" end="6800" vehsPerHour="42.73390409132239"/>
  <flow id="JF53760" begin="6740" fromJunction="J0" toJunction="J4" end="6800" vehsPerHour="122.0434082367814"/>
  <flow id="JF53761" begin="6740" fromJunction="J2" toJunction="J0" end="6800" vehsPerHour="131.37088314894544"/>
  <flow id="JF53762" begin="6740" fromJunction="J3" toJunction="J0" end="6800" vehsPerHour="119.93855699861646"/>
  <flow id="JF53763" begin="6740" fromJunction="J3" toJunction="J2" end="6800" vehsPerHour="39.12260030958124"/>
  <flow id="JF53764" begin="6740" fromJunction="J3" toJunction="J4" end="6800" vehsPerHour="68.04621747784802"/>
  <flow id="JF53765" begin="6740" fromJunction="J4" toJunction="J2" end="6800" vehsPerHour="99.91288368978249"/>