<?xml version="1.0" encoding="UTF-8"?>
<routes xmlns:xsi="http://www.w3.org/2001/XMLSchema-instance" xsi:noNamespaceSchemaLocation="http://sumo.dlr.de/xsd/routes_file.xsd">
  <flow id="JF58404" begin="0" fromJunction="J3" toJunction="J0" end="5000" vehsPerHour="782.8012007611196"/>
  <flow id="JF58405" begin="0" fromJunction="J0" toJunction="J3" end="5000" vehsPerHour="367.0892891725844"/>
  <flow id="JF58406" begin="0" fromJunction="J3" toJunction="J2" end="5000" vehsPerHour="32.28133778339503"/>
  <flow id="JF58407" begin="0" fromJunction="J3" toJunction="J4" end="5000" vehsPerHour="0.3067256113300145"/>
  <flow id="JF58408" begin="0" fromJunction="J0" toJunction="J2" end="5000" vehsPerHour="114.07272613495584"/>
  <flow id="JF58409" begin="0" fromJunction="J0" toJunction="J4" end="5000" vehsPerHour="130.22725580128684"/>
  <flow id="JF58410" begin="0" fromJunction="J2" toJunction="J4" end="5000" vehsPerHour="150.71137561622652"/>
  <flow id="JF58411" begin="0" fromJunction="J4" toJunction="J2" end="5000" vehsPerHour="90.13723521229288"/>
  <flow id="JF58412" begin="0" fromJunction="J2" toJunction="J3" end="5000" vehsPerHour="115.00191466890934"/>
  <flow id="JF58413" begin="0" fromJunction="J2" toJunction="J0" end="5000" vehsPerHour="61.742890929137346"/>
  <flow id="JF58414" begin="0" fromJunction="J4" toJunction="J3" end="5000" vehsPerHour="5.908056310233174"/>
  <flow id="JF58415" begin="0" fromJunction="J4" toJunction="J0" end="5000" vehsPerHour="16.619136739544384"/>
  <flow id="JF58416" begin="5000" fromJunction="J0" toJunction="J2" end="5060" vehsPerHour="99.95658069907594"/>
  <flow id="JF58417" begin="5000" fromJunction="J0" toJunction="J3" end="5060" vehsPerHour="126.51777377470435"/>
  <flow id="JF58418" begin="5000" fromJunction="J3" toJunction="J2" end="5060" vehsPerHour="94.00772727951585"/>
  <flow id="JF58419" begin="5000" fromJunction="J3" toJunction="J4" end="5060" vehsPerHour="71.83178772553993"/>
  <flow id="JF58420" begin="5000" fromJunction="J4" toJunction="J2" end="5060" vehsPerHour="76.65143089100117"/>
  <flow id="JF58421" begin="5000" fromJunction="J4" toJunction="J3" end="5060" vehsPerHour="40.54799459519043"/>
  <flow id="JF58422" begin="5060" fromJunction="J2" toJunction="J0" end="5120" vehsPerHour="136.83638607375684"/>
  <flow id="JF58423" begin="5060" fromJunction="J2" toJunction="J4" end="5120" vehsPerHour="78.25599471130936"/>
  <flow id="JF58424" begin="5060" fromJunction="J3" toJunction="J0" end="5120" vehsPerHour="137.341054956316"/>
  <flow id="JF58425" begin="5060" fromJunction="J4" toJunction="J0" end="5120" vehsPerHour="130.80025669598137"/>
  <flow id="JF58426" begin="5120" fromJunction="J0" toJunction="J3" end="5180" vehsPerHour="17.94124928978955"/>
  <flow id="JF58427" begin="5120" fromJunction="J0" toJunction="J4" end="5180" vehsPerHour="133.3787396476891"/>
  <flow id="JF58428" begin="5120" fromJunction="J3" toJunction="J0" end="5180" vehsPerHour="56.532062336271764"/>
  <flow id="JF58429" begin="5120" fromJunction="J4" toJunction="J0" end="5180" vehsPerHour="75.19485497765832"/>
  <flow id="JF58430" begin="5120" fromJunction="J4" toJunction="J3" end="5180" vehsPerHour="104.4067267059648"/>
  <flow id="JF58431" begin="5180" fromJunction="J0" toJunction="J2" end="5240" vehsPerHour="11.63299441182136"/>
  <flow id="JF58432" begin="5180" fromJunction="J2" toJunction="J0" end="5240" vehsPerHour="110.66561933024768"/>
  <flow id="JF58433" begin="5180" fromJunction="J2" toJunction="J3" end="5240" vehsPerHour="77.37566945867997"/>
  <flow id="JF58434" begin="5180" fromJunction="J3" toJunction="J0" end="5240" vehsPerHour="5.162243702216581"/>
  <flow id="JF58435" begin="5180" fromJunction="J3" toJunction="J2" end="5240" vehsPerHour="21.84983122201037"/>
  <flow id="JF58436" begin="5180" fromJunction="J3" toJunction="J4" end="5240" vehsPerHour="58.069859608566446"/>
  <flow id="JF58437" begin="5180" fromJunction="J4" toJunction="J0" end="5240" vehsPerHour="118.14179499138777"/>
  <flow id="JF58438" begin="5180" fromJunction="J4" toJunction="J2" end="5240" vehsPerHour="14.926958924113382"/>
  <flow id="JF58439" begin="5180" fromJunction="J4" toJunction="J3" end="5240" vehsPerHour="129.85257972613937"/>
  <flow id="JF58440" begin="5240" fromJunction="J0" toJunction="J2" end="5300" vehsPerHour="19.848215738203262"/>
  <flow id="JF58441" begin="5240" fromJunction="J0" toJunction="J3" end="5300" vehsPerHour="107.17608222872155"/>
  <flow id="JF58442" begin="5240" fromJunction="J0" toJunction="J4" end="5300" vehsPerHour="122.66887645793882"/>
  <flow id="JF58443" begin="5240" fromJunction="J2" toJunction="J0" end="5300" vehsPerHour="55.162806211327215"/>
  <flow id="JF58444" begin="5240" fromJunction="J2" toJunction="J3" end="5300" vehsPerHour="69.17472534738171"/>
  <flow id="JF58445" begin="5240" fromJunction="J2" toJunction="J4" end="5300" vehsPerHour="137.29086806787404"/>
  <flow id="JF58446" begin="5240" fromJunction="J3" toJunction="J0" end="5300" vehsPerHour="20.20947467573114"/>
  <flow id="JF58447" begin="5240" fromJunction="J3" toJunction="J2" end="5300" vehsPerHour="64.12799340097949"/>
  <flow id="JF58448" begin="5240" fromJunction="J3" toJunction="J4" end="5300" vehsPerHour="44.596313605367214"/>
  <flow id="JF58449" begin="5240" fromJunction="J4" toJunction="J0" end="5300" vehsPerHour="2.1209082207588934"/>
  <flow id="JF58450" begin="5240" fromJunction="J4" toJunction="J2" end="5300" vehsPerHour="72.53037467628323"/>
  <flow id="JF58451" begin="5300" fromJunction="J0" toJunction="J2" end="5360" vehsPerHour="8.951893939671681"/>
  <flow id="JF58452" begin="5300" fromJunction="J0" toJunction="J3" end="5360" vehsPerHour="42.83158335100613"/>
  <flow id="JF58453" begin="5300" fromJunction="J2" toJunction="J0" end="5360" vehsPerHour="128.55992649180916"/>
  <flow id="JF58454" begin="5300" fromJunction="J2" toJunction="J4" end="5360" vehsPerHour="61.0704754352589"/>
  <flow id="JF58455" begin="5300" fromJunction="J3" toJunction="J2" end="5360" vehsPerHour="79.50713770674005"/>
  <flow id="JF58456" begin="5300" fromJunction="J3" toJunction="J4" end="5360" vehsPerHour="117.28680377906359"/>
  <flow id="JF58457" begin="5300" fromJunction="J4" toJunction="J0" end="5360" vehsPerHour="109.64365455375561"/>
  <flow id="JF58458" begin="5300" fromJunction="J4" toJunction="J2" end="5360" vehsPerHour="54.2877372401583"/>
  <flow id="JF58459" begin="5300" fromJunction="J4" toJunction="J3" end="5360" vehsPerHour="117.77381323597763"/>
  <flow id="JF58460" begin="5360" fromJunction="J0" toJunction="J2" end="5420" vehsPerHour="78.9736211625042"/>
  <flow id="JF58461" begin="5360" fromJunction="J0" toJunction="J3" end="5420" vehsPerHour="46.44427997653705"/>
  <flow id="JF58462" begin="5360" fromJunction="J2" toJunction="J0" end="5420" vehsPerHour="27.276515919388327"/>
  <flow id="JF58463" begin="5360" fromJunction="J2" toJunction="J3" end="5420" vehsPerHour="108.76191992166335"/>
  <flow id="JF58464" begin="5360" fromJunction="J2" toJunction="J4" end="5420" vehsPerHour="20.26204752669097"/>
  <flow id="JF58465" begin="5360" fromJunction="J3" toJunction="J0" end="5420" vehsPerHour="54.471626187041444"/>
  <flow id="JF58466" begin="5360" fromJunction="J3" toJunction="J2" end="5420" vehsPerHour="58.42664381460366"/>
  <flow id="JF58467" begin="5360" fromJunction="J3" toJunction="J4" end="5420" vehsPerHour="99.41026546864367"/>
  <flow id="JF58468" begin="5360" fromJunction="J4" toJunction="J0" end="5420" vehsPerHour="56.25512631830623"/>
  <flow id="JF58469" begin="5360" fromJunction="J4" toJunction="J2" end="5420" vehsPerHour="61.535052202637196"/>
  <flow id="JF58470" begin="5420" fromJunction="J0" toJunction="J2" end="5480" vehsPerHour="29.316119409111987"/>
  <flow id="JF58471" begin="5420" fromJunction="J2" toJunction="J0" end="5480" vehsPerHour="101.24334140343942"/>
  <flow id="JF58472" begin="5420" fromJunction="J3" toJunction="J0" end="5480" vehsPerHour="34.18555459429872"/>
  <flow id="JF58473" begin="5420" fromJunction="J3" toJunction="J2" end="5480" vehsPerHour="48.907778257564466"/>
  <flow id="JF58474" begin="5420" fromJunction="J3" toJunction="J4" end="5480" vehsPerHour="96.14223780205715"/>
  <flow id="JF58475" begin="5420" fromJunction="J4" toJunction="J0" end="5480" vehsPerHour="64.51606269206736"/>
  <flow id="JF58476" begin="5420" fromJunction="J4" toJunction="J2" end="5480" vehsPerHour="20.494797349694675"/>
  <flow id="JF58477" begin="5480" fromJunction="J0" toJunction="J2" end="5540" vehsPerHour="43.5200354137761"/>
  <flow id="JF58478" begin="5480" fromJunction="J0" toJunction="J4" end="5540" vehsPerHour="8.187687994170862"/>
  <flow id="JF58479" begin="5480" fromJunction="J2" toJunction="J3" end="5540" vehsPerHour="7.281435476940987"/>
  <flow id="JF58480" begin="5480" fromJunction="J2" toJunction="J4" end="5540" vehsPerHour="57.74996234189519"/>
  <flow id="JF58481" begin="5480" fromJunction="J3" toJunction="J0" end="5540" vehsPerHour="20.313109273181077"/>
  <flow id="JF58482" begin="5480" fromJunction="J3" toJunction="J4" end="5540" vehsPerHour="43.982034199135"/>
  <flow id="JF58483" begin="5480" fromJunction="J4" toJunction="J2" end="5540" vehsPerHour="86.16785448375104"/>
  <flow id="JF58484" begin="5480" fromJunction="J4" toJunction="J3" end="5540" vehsPerHour="60.397143223323226"/>
  <flow id="JF58485" begin="5540" fromJunction="J0" toJunction="J2" end="5600" vehsPerHour="2.8885617331358624"/>
  <flow id="JF58486" begin="5540" fromJunction="J0" toJunction="J3" end="5600" vehsPerHour="129.10559139182672"/>
  <flow id="JF58487" begin="5540" fromJunction="J0" toJunction="J4" end="5600" vehsPerHour="122.52843669035067"/>
  <flow id="JF58488" begin="5540" fromJunction="J2" toJunction="J3" end="5600" vehsPerHour="71.37044127512931"/>
  <flow id="JF58489" begin="5540" fromJunction="J2" toJunction="J4" end="5600" vehsPerHour="4.518044869923649"/>
  <flow id="JF58490" begin="5540" fromJunction="J3" toJunction="J0" end="5600" vehsPerHour="18.388982074370972"/>
  <flow id="JF58491" begin="5540" fromJunction="J3" toJunction="J2" end="5600" vehsPerHour="74.85996911264323"/>
  <flow id="JF58492" begin="5540" fromJunction="J3" toJunction="J4" end="5600" vehsPerHour="20.46062009101763"/>
  <flow id="JF58493" begin="5540" fromJunction="J4" toJunction="J0" end="5600" vehsPerHour="106.38961634618785"/>
  <flow id="JF58494" begin="5600" fromJunction="J0" toJunction="J2" end="5660" vehsPerHour="80.54755150429929"/>
  <flow id="JF58495" begin="5600" fromJunction="J2" toJunction="J0" end="5660" vehsPerHour="129.29504225559032"/>
  <flow id="JF58496" begin="5600" fromJunction="J2" toJunction="J4" end="5660" vehsPerHour="73.99801027330483"/>
  <flow id="JF58497" begin="5600" fromJunction="J3" toJunction="J0" end="5660" vehsPerHour="49.85024368972319"/>
  <flow id="JF58498" begin="5600" fromJunction="J4" toJunction="J0" end="5660" vehsPerHour="128.6981861710295"/>
  <flow id="JF58499" begin="5600" fromJunction="J4" toJunction="J2" end="5660" vehsPerHour="45.31607140446192"/>
  <flow id="JF58500" begin="5600" fromJunction="J4" toJunction="J3" end="5660" vehsPerHour="70.42565008495293"/>
  <flow id="JF58501" begin="5660" fromJunction="J0" toJunction="J2" end="5720" vehsPerHour="112.77977410228867"/>
  <flow id="JF58502" begin="5660" fromJunction="J0" toJunction="J3" end="5720" vehsPerHour="25.95708609949749"/>
  <flow id="JF58503" begin="5660" fromJunction="J0" toJunction="J4" end="5720" vehsPerHour="99.66022923514548"/>
  <flow id="JF58504" begin="5660" fromJunction="J2" toJunction="J3" end="5720" vehsPerHour="86.4746299679332"/>
  <flow id="JF58505" begin="5660" fromJunction="J2" toJunction="J4" end="5720" vehsPerHour="117.89984359469825"/>
  <flow id="JF58506" begin="5660" fromJunction="J3" toJunction="J0" end="5720" vehsPerHour="16.632801441368553"/>
  <flow id="JF58507" begin="5660" fromJunction="J3" toJunction="J4" end="5720" vehsPerHour="33.65392045135411"/>
  <flow id="JF58508" begin="5660" fromJunction="J4" toJunction="J2" end="5720" vehsPerHour="81.63987460961656"/>
  <flow id="JF58509" begin="5660" fromJunction="J4" toJunction="J3" end="5720" vehsPerHour="119.08802137993443"/>
  <flow id="JF58510" begin="5720" fromJunction="J0" toJunction="J2" end="5780" vehsPerHour="98.78457841281427"/>
  <flow id="JF58511" begin="5720" fromJunction="J0" toJunction="J3" end="5780" vehsPerHour="44.024437034684745"/>
  <flow id="JF58512" begin="5720" fromJunction="J0" toJunction="J4" end="5780" vehsPerHour="39.05436364726495"/>
  <flow id="JF58513" begin="5720" fromJunction="J2" toJunction="J0" end="5780" vehsPerHour="99.54432291827243"/>
  <flow id="JF58514" begin="5720" fromJunction="J4" toJunction="J0" end="5780" vehsPerHour="20.143397052711613"/>
  <flow id="JF58515" begin="5720" fromJunction="J4" toJunction="J2" end="5780" vehsPerHour="1.377691762061845"/>
  <flow id="JF58516" begin="5720" fromJunction="J4" toJunction="J3" end="5780" vehsPerHour="93.14332319447537"/>
  <flow id="JF58517" begin="5780" fromJunction="J0" toJunction="J2" end="5840" vehsPerHour="132.68972545665855"/>
  <flow id="JF58518" begin="5780" fromJunction="J0" toJunction="J3" end="5840" vehsPerHour="29.21361982290782"/>
  <flow id="JF58519" begin="5780" fromJunction="J2" toJunction="J0" end="5840" vehsPerHour="8.171114545672278"/>
  <flow id="JF58520" begin="5780" fromJunction="J2" toJunction="J3" end="5840" vehsPerHour="104.81398915379073"/>
  <flow id="JF58521" begin="5780" fromJunction="J2" toJunction="J4" end="5840" vehsPerHour="49.25646805566638"/>
  <flow id="JF58522" begin="5780" fromJunction="J3" toJunction="J0" end="5840" vehsPerHour="77.42504713448041"/>
  <flow id="JF58523" begin="5780" fromJunction="J3" toJunction="J2" end="5840" vehsPerHour="79.49292647123434"/>
  <flow id="JF58524" begin="5780" fromJunction="J3" toJunction="J4" end="5840" vehsPerHour="81.64134823894332"/>
  <flow id="JF58525" begin="5780" fromJunction="J4" toJunction="J2" end="5840" vehsPerHour="37.828564341734825"/>
  <flow id="JF58526" begin="5780" fromJunction="J4" toJunction="J3" end="5840" vehsPerHour="66.04631813590987"/>
  <flow id="JF58527" begin="5840" fromJunction="J0" toJunction="J2" end="5900" vehsPerHour="20.049224778423014"/>
  <flow id="JF58528" begin="5840" fromJunction="J0" toJunction="J3" end="5900" vehsPerHour="102.04529357358494"/>
  <flow id="JF58529" begin="5840" fromJunction="J0" toJunction="J4" end="5900" vehsPerHour="12.216590789970468"/>
  <flow id="JF58530" begin="5840" fromJunction="J2" toJunction="J0" end="5900" vehsPerHour="77.11813660752928"/>
  <flow id="JF58531" begin="5840" fromJunction="J2" toJunction="J3" end="5900" vehsPerHour="104.7225959498141"/>
  <flow id="JF58532" begin="5840" fromJunction="J2" toJunction="J4" end="5900" vehsPerHour="55.70221200441866"/>
  <flow id="JF58533" begin="5840" fromJunction="J3" toJunction="J0" end="5900" vehsPerHour="37.938652670471896"/>
  <flow id="JF58534" begin="5840" fromJunction="J3" toJunction="J2" end="5900" vehsPerHour="0.8649265862337417"/>
  <flow id="JF58535" begin="5840" fromJunction="J3" toJunction="J4" end="5900" vehsPerHour="66.71408122141067"/>
  <flow id="JF58536" begin="5840" fromJunction="J4" toJunction="J3" end="5900" vehsPerHour="37.375858358124525"/>
  <flow id="JF58537" begin="5900" fromJunction="J0" toJunction="J2" end="5960" vehsPerHour="36.83937133938144"/>
  <flow id="JF58538" begin="5900" fromJunction="J0" toJunction="J3" end="5960" vehsPerHour="22.863548241356394"/>
  <flow id="JF58539" begin="5900" fromJunction="J0" toJunction="J4" end="5960" vehsPerHour="40.514883240397126"/>
  <flow id="JF58540" begin="5900" fromJunction="J2" toJunction="J0" end="5960" vehsPerHour="116.23944708998043"/>
  <flow id="JF58541" begin="5900" fromJunction="J2" toJunction="J3" end="5960" vehsPerHour="131.98916586587228"/>
  <flow id="JF58542" begin="5900" fromJunction="J3" toJunction="J0" end="5960" vehsPerHour="117.37721918897348"/>
  <flow id="JF58543" begin="5900" fromJunction="J3" toJunction="J4" end="5960" vehsPerHour="32.0301305677646"/>
  <flow id="JF58544" begin="5900" fromJunction="J4" toJunction="J0" end="5960" vehsPerHour="111.96052685160801"/>
  <flow id="JF58545" begin="5900" fromJunction="J4" toJunction="J2" end="5960" vehsPerHour="32.083188685050594"/>
  <flow id="JF58546" begin="5960" fromJunction="J0" toJunction="J2" end="6020" vehsPerHour="68.83985695347118"/>
  <flow id="JF58547" begin="5960" fromJunction="J0" toJunction="J3" end="6020" vehsPerHour="120.3674151446214"/>
  <flow id="JF58548" begin="5960" fromJunction="J0" toJunction="J4" end="6020" vehsPerHour="136.82032897169088"/>
  <flow id="JF58549" begin="5960" fromJunction="J2" toJunction="J0" end="6020" vehsPerHour="46.182582746586725"/>
  <flow id="JF58550" begin="5960" fromJunction="J3" toJunction="J0" end="6020" vehsPerHour="27.12463792216148"/>
  <flow id="JF58551" begin="5960" fromJunction="J3" toJunction="J2" end="6020" vehsPerHour="113.71235661627091"/>
  <flow id="JF58552" begin="5960" fromJunction="J4" toJunction="J0" end="6020" vehsPerHour="96.32865002504845"/>
  <flow id="JF58553" begin="5960" fromJunction="J4" toJunction="J3" end="6020" vehsPerHour="44.102309350884795"/>
  <flow id="JF58554" begin="6020" fromJunction="J2" toJunction="J0" end="6080" vehsPerHour="26.7325997927337"/>
  <flow id="JF58555" begin="6020" fromJunction="J2" toJunction="J4" end="6080" vehsPerHour="14.023490476497653"/>
  <flow id="JF58556" begin="6020" fromJunction="J3" toJunction="J2" end="6080" vehsPerHour="11.146851324978437"/>
  <flow id="JF58557" begin="6020" fromJunction="J3" toJunction="J4" end="6080" vehsPerHour="104.21228789903478"/>
  <flow id="JF58558" begin="6020" fromJunction="J4" toJunction="J0" end="6080" vehsPerHour="119.23236914828932"/>
  <flow id="JF58559" begin="6020" fromJunction="J4" toJunction="J2" end="6080" vehsPerHour="122.61551532084584"/>
  <flow id="JF58560" begin="6020" fromJunction="J4" toJunction="J3" end="6080" vehsPerHour="90.06331302577556"/>
  <flow id="JF58561" begin="6080" fromJunction="J0" toJunction="J2" end="6140" vehsPerHour="6.073306042126095"/>
  <flow id="JF58562" begin="6080" fromJunction="J2" toJunction="J3" end="6140" vehsPerHour="112.79291165938068"/>
  <flow id="JF58563" begin="6080" fromJunction="J3" toJunction="J0" end="6140" vehsPerHour="4.660103278930499"/>
  <flow id="JF58564" begin="6080" fromJunction="J3" toJunction="J2" end="6140" vehsPerHour="92.98172164673744"/>
  <flow id="JF58565" begin="6080" fromJunction="J4" toJunction="J2" end="6140" vehsPerHour="57.28466057710205"/>
  <flow id="JF58566" begin="6140" fromJunction="J2" toJunction="J0" end="6200" vehsPerHour="13.75270789443822"/>
  <flow id="JF58567" begin="6140" fromJunction="J2" toJunction="J3" end="6200" vehsPerHour="57.82752315085719"/>
  <flow id="JF58568" begin="6140" fromJunction="J2" toJunction="J4" end="6200" vehsPerHour="2.2269912077533904"/>
  <flow id="JF58569" begin="6140" fromJunction="J3" toJunction="J0" end="6200" vehsPerHour="46.133299575496466"/>
  <flow id="JF58570" begin="6140" fromJunction="J3" toJunction="J2" end="6200" vehsPerHour="41.2093856612003"/>
  <flow id="JF58571" begin="6140" fromJunction="J3" toJunction="J4" end="6200" vehsPerHour="119.04742697693551"/>
  <flow id="JF58572" begin="6140" fromJunction="J4" toJunction="J0" end="6200" vehsPerHour="94.17985083136688"/>
  <flow id="JF58573" begin="6140" fromJunction="J4" toJunction="J2" end="6200" vehsPerHour="87.39399529857609"/>
  <flow id="JF58574" begin="6140" fromJunction="J4" toJunction="J3" end="6200" vehsPerHour="38.45557842487448"/>
  <flow id="JF58575" begin="6200" fromJunction="J0" toJunction="J2" end="6260" vehsPerHour="132.28153637505147"/>
  <flow id="JF58576" begin="6200" fromJunction="J0" toJunction="J3" end="6260" vehsPerHour="47.08913282485761"/>
  <flow id="JF58577" begin="6200" fromJunction="J0" toJunction="J4" end="6260" vehsPerHour="124.9833726542061"/>
  <flow id="JF58578" begin="6200" fromJunction="J2" toJunction="J0" end="6260" vehsPerHour="96.9869439355819"/>
  <flow id="JF58579" begin="6200" fromJunction="J2" toJunction="J4" end="6260" vehsPerHour="115.42457383924233"/>
  <flow id="JF58580" begin="6200" fromJunction="J3" toJunction="J0" end="6260" vehsPerHour="74.59396544475076"/>
  <flow id="JF58581" begin="6200" fromJunction="J3" toJunction="J2" end="6260" vehsPerHour="114.92736992472425"/>
  <flow id="JF58582" begin="6200" fromJunction="J3" toJunction="J4" end="6260" vehsPerHour="40.78215281407645"/>
  <flow id="JF58583" begin="6200" fromJunction="J4" toJunction="J0" end="6260" vehsPerHour="96.7991162269628"/>
  <flow id="JF58584" begin="6200" fromJunction="J4" toJunction="J2" end="6260" vehsPerHour="86.49388217494408"/>
  <flow id="JF58585" begin="6200" fromJunction="J4" toJunction="J3" end="6260" vehsPerHour="26.109268876515067"/>
  <flow id="JF58586" begin="6260" fromJunction="J0" toJunction="J2" end="6320" vehsPerHour="83.4095363765789"/>
  <flow id="JF58587" begin="6260" fromJunction="J0" toJunction="J3" end="6320" vehsPerHour="84.34544706541543"/>
  <flow id="JF58588" begin="6260" fromJunction="J0" toJunction="J4" end="6320" vehsPerHour="37.92994204689327"/>
  <flow id="JF58589" begin="6260" fromJunction="J2" toJunction="J0" end="6320" vehsPerHour="76.22304932134432"/>
  <flow id="JF58590" begin="6260" fromJunction="J2" toJunction="J3" end="6320" vehsPerHour="29.55529041281999"/>
  <flow id="JF58591" begin="6260" fromJunction="J2" toJunction="J4" end="6320" vehsPerHour="33.41233025588803"/>
  <flow id="JF58592" begin="6260" fromJunction="J3" toJunction="J0" end="6320" vehsPerHour="106.67078148932099"/>
  <flow id="JF58593" begin="6260" fromJunction="J3" toJunction="J2" end="6320" vehsPerHour="110.81270379440224"/>
  <flow id="JF58594" begin="6260" fromJunction="J3" toJunction="J4" end="6320" vehsPerHour="6.182650734780936"/>
  <flow id="JF58595" begin="6260" fromJunction="J4" toJunction="J0" end="6320" vehsPerHour="133.48619947080113"/>
  <flow id="JF58596" begin="6260" fromJunction="J4" toJunction="J3" end="6320" vehsPerHour="66.33723379439752"/>
  <flow id="JF58597" begin="6320" fromJunction="J0" toJunction="J4" end="6380" vehsPerHour="97.23860628310064"/>
  <flow id="JF58598" begin="6320" fromJunction="J2" toJunction="J0" end="6380" vehsPerHour="72.15547001223706"/>
  <flow id="JF58599" begin="6320" fromJunction="J2" toJunction="J3" end="6380" vehsPerHour="97.81393679921806"/>
  <flow id="JF58600" begin="6320" fromJunction="J2" toJunction="J4" end="6380" vehsPerHour="131.25951538877675"/>
  <flow id="JF58601" begin="6320" fromJunction="J3" toJunction="J0" end="6380" vehsPerHour="105.91085049818497"/>
  <flow id="JF58602" begin="6320" fromJunction="J3" toJunction="J2" end="6380" vehsPerHour="53.95577246333015"/>
  <flow id="JF58603" begin="6320" fromJunction="J3" toJunction="J4" end="6380" vehsPerHour="31.388292713050173"/>
  <flow id="JF58604" begin="6320" fromJunction="J4" toJunction="J0" end="6380" vehsPerHour="80.55114087933852"/>
  <flow id="JF58605" begin="6380" fromJunction="J0" toJunction="J2" end="6440" vehsPerHour="132.75550111812112"/>
  <flow id="JF58606" begin="6380" fromJunction="J0" toJunction="J3" end="6440" vehsPerHour="106.34098451425974"/>
  <flow id="JF58607" begin="6380" fromJunction="J0" toJunction="J4" end="6440" vehsPerHour="99.3836214787889"/>
  <flow id="JF58608" begin="6380" fromJunction="J3" toJunction="J2" end="6440" vehsPerHour="15.136947062927725"/>
  <flow id="JF58609" begin="6380" fromJunction="J3" toJunction="J4" end="6440" vehsPerHour="110.87563808068724"/>
  <flow id="JF58610" begin="6380" fromJunction="J4" toJunction="J0" end="6440" vehsPerHour="124.35088624453154"/>
  <flow id="JF58611" begin="6380" fromJunction="J4" toJunction="J2" end="6440" vehsPerHour="78.85567509866793"/>
  <flow id="JF58612" begin="6380" fromJunction="J4" toJunction="J3" end="6440" vehsPerHour="104.04474563576603"/>
  <flow id="JF58613" begin="6440" fromJunction="J0" toJunction="J2" end="6500" vehsPerHour="17.45226023544462"/>
  <flow id="JF58614" begin="6440" fromJunction="J0" toJunction="J3" end="6500" vehsPerHour="47.3076329629324"/>
  <flow id="JF58615" begin="6440" fromJunction="J0" toJunction="J4" end="6500" vehsPerHour="135.52457963593727"/>
  <flow id="JF58616" begin="6440" fromJunction="J2" toJunction="J4" end="6500" vehsPerHour="102.28451045976071"/>
  <flow id="JF58617" begin="6440" fromJunction="J3" toJunction="J0" end="6500" vehsPerHour="86.31594753319382"/>
  <flow id="JF58618" begin="6440" fromJunction="J4" toJunction="J0" end="6500" vehsPerHour="83.89902282290764"/>
  <flow id="JF58619" begin="6440" fromJunction="J4" toJunction="J3" end="6500" vehsPerHour="136.68450043271523"/>
  <flow id="JF58620" begin="6500" fromJunction="J0" toJunction="J3" end="6560" vehsPerHour="126.207919458824"/>
  <flow id="JF58621" begin="6500" fromJunction="J0" toJunction="J4" end="6560" vehsPerHour="36.77140858653357"/>
  <flow id="JF58622" begin="6500" fromJunction="J2" toJunction="J0" end="6560" vehsPerHour="44.372129374959584"/>
  <flow id="JF58623" begin="6500" fromJunction="J2" toJunction="J3" end="6560" vehsPerHour="7.590144701213864"/>
  <flow id="JF58624" begin="6500" fromJunction="J2" toJunction="J4" end="6560" vehsPerHour="27.89754423075588"/>
  <flow id="JF58625" begin="6500" fromJunction="J3" toJunction="J0" end="6560" vehsPerHour="38.99009779399912"/>
  <flow id="JF58626" begin="6500" fromJunction="J3" toJunction="J4" end="6560" vehsPerHour="124.12432909423133"/>
  <flow id="JF58627" begin="6500" fromJunction="J4" toJunction="J2" end="6560" vehsPerHour="24.930280648403585"/>
  <flow id="JF58628" begin="6500" fromJunction="J4" toJunction="J3" end="6560" vehsPerHour="34.62435213778961"/>
  <flow id="JF58629" begin="6560" fromJunction="J0" toJunction="J2" end="6620" vehsPerHour="108.2111992971904"/>
  <flow id="JF58630" begin="6560" fromJunction="J0" toJunction="J4" end="6620" vehsPerHour="6.037776269906158"/>
  <flow id="JF58631" begin="6560" fromJunction="J2" toJunction="J0" end="6620" vehsPerHour="43.11521007625112"/>
  <flow id="JF58632" begin="6560" fromJunction="J2" toJunction="J3" end="6620" vehsPerHour="91.67919683007865"/>
  <flow id="JF58633" begin="6560" fromJunction="J3" toJunction="J2" end="6620" vehsPerHour="92.76664365683595"/>
  <flow id="JF58634" begin="6560" fromJunction="J3" toJunction="J4" end="6620" vehsPerHour="79.55893304473035"/>
  <flow id="JF58635" begin="6560" fromJunction="J4" toJunction="J0" end="6620" vehsPerHour="75.39744159180232"/>
  <flow id="JF58636" begin="6560" fromJunction="J4" toJunction="J2" end="6620" vehsPerHour="114.61861513641186"/>
  <flow id="JF58637" begin="6560" fromJunction="J4" toJunction="J3" end="6620" vehsPerHour="80.67006354500387"/>
  <flow id="JF58638" begin="6620" fromJunction="J0" toJunction="J2" end="6680" vehsPerHour="117.28503637049866"/>
  <flow id="JF58639" begin="6620" fromJunction="J0" toJunction="J3" end="6680" vehsPerHour="106.1757336083429"/>
  <flow id="JF58640" begin="6620" fromJunction="J0" toJunction="J4" end="6680" vehsPerHour="81.83023789911296"/>
  <flow id="JF58641" begin="6620" fromJunction="J2" toJunction="J0" end="6680" vehsPerHour="124.69147367029348"/>
  <flow id="JF58642" begin="6620" fromJunction="J2" toJunction="J3" end="6680" vehsPerHour="62.49397346093641"/>
  <flow id="JF58643" begin="6620" fromJunction="J2" toJunction="J4" end="6680" vehsPerHour="51.38876077554404"/>
  <flow id="JF58644" begin="6620" fromJunction="J3" toJunction="J0" end="6680" vehsPerHour="85.39531338789385"/>
  <flow id="JF58645" begin="6620" fromJunction="J3" toJunction="J2" end="6680" vehsPerHour="27.79065178930779"/>
  <flow id="JF58646" begin="6620" fromJunction="J4" toJunction="J2" end="6680" vehsPerHour="86.21178237648154"/>
  <flow id="JF58647" begin="6680" fromJunction="J0" toJunction="J2" end="6740" vehsPerHour="82.07060949950238"/>
  <flow id="JF58648" begin="6680" fromJunction="J0" toJunction="J3" end="6740" vehsPerHour="46.6035818065937"/>
  <flow id="JF58649" begin="6680" fromJunction="J0" toJunction="J4" end="6740" vehsPerHour="81.43332752475143"/>
  <flow id="JF58650" begin="6680" fromJunction="J2" toJunction="J3" end="6740" vehsPerHour="93.26241817680025"/>
  <flow id="JF58651" begin="6680" fromJunction="J2" toJunction="J4" end="6740" vehsPerHour="118.73965479944957"/>
  <flow id="JF58652" begin="6680" fromJunction="J3" toJunction="J0" end="6740" vehsPerHour="41.838547321565635"/>
  <flow id="JF58653" begin="6680" fromJunction="J3" toJunction="J2" end="6740" vehsPerHour="90.86318008199028"/>
  <flow id="JF58654" begin="6680" fromJunction="J3" toJunction="J4" end="6740" vehsPerHour="34.48689883904182"/>
  <flow id="JF58655" begin="6680" fromJunction="J4" toJunction="J0" end="6740" vehsPerHour="4.7458665048189355"/>
  <flow id="JF58656" begin="6680" fromJunction="J4" toJunction="J2" end="6740" vehsPerHour="68.86554481024687"/>
  <flow id="JF58657" begin="6740" fromJunction="J0" toJunction="J2" end="6800" vehsPerHour="80.9313811713318"/>
  <flow id="JF58658" begin="6740" fromJunction="J0" toJunction="J3" end="6800" vehsPerHour="2.6117302580513164"/>
  <flow id="JF58659" begin="6740" fromJunction="J0" toJunction="J4" end="6800" vehsPerHour="11.441532761589752"/>
  <flow id="JF58660" begin="6740" fromJunction="J2" toJunction="J0" end="6800" vehsPerHour="102.16469471190017"/>
  <flow id="JF58661" begin="6740" fromJunction="J2" toJunction="J3" end="6800" vehsPerHour="105.4667101812148"/>
  <flow id="JF58662" begin="6740" fromJunction="J2" toJunction="J4" end="6800" vehsPerHour="131.68574607803856"/>
  <flow id="JF58663" begin="6740" fromJunction="J3" toJunction="J4" end="6800" vehsPerHour="88.12351562434156"/>
  <flow id="JF58664" begin="6740" fromJunction="J4" toJunction="J0" end="6800" vehsPerHour="98.18014894438132"/>
  <flow id="JF58665" begin="6740" fromJunction="J4" toJunction="J3" end="6800" vehsPerHour="100.06637063131073"/>
  <flow id="JF58666" begin="6800" fromJunction="J0" toJunction="J2" end="6860" vehsPerHour="23.749279013105923"/>