<?xml version="1.0" encoding="UTF-8"?>
<routes xmlns:xsi="http://www.w3.org/2001/XMLSchema-instance" xsi:noNamespaceSchemaLocation="http://sumo.dlr.de/xsd/routes_file.xsd">
  <flow id="JF55613" begin="0" fromJunction="J3" toJunction="J0" end="5000" vehsPerHour="493.44430931662595"/>
  <flow id="JF55614" begin="0" fromJunction="J0" toJunction="J3" end="5000" vehsPerHour="183.99422303865342"/>
  <flow id="JF55615" begin="0" fromJunction="J3" toJunction="J2" end="5000" vehsPerHour="11.6905300436291"/>
  <flow id="JF55616" begin="0" fromJunction="J3" toJunction="J4" end="5000" vehsPerHour="73.38026872487785"/>
  <flow id="JF55617" begin="0" fromJunction="J0" toJunction="J2" end="5000" vehsPerHour="16.045878739207897"/>
  <flow id="JF55618" begin="0" fromJunction="J0" toJunction="J4" end="5000" vehsPerHour="116.5129461132198"/>
  <flow id="JF55619" begin="0" fromJunction="J2" toJunction="J4" end="5000" vehsPerHour="175.9571327895404"/>
  <flow id="JF55620" begin="0" fromJunction="J4" toJunction="J2" end="5000" vehsPerHour="127.3344874355951"/>
  <flow id="JF55621" begin="0" fromJunction="J2" toJunction="J3" end="5000" vehsPerHour="131.0851638215208"/>
  <flow id="JF55622" begin="0" fromJunction="J2" toJunction="J0" end="5000" vehsPerHour="27.026130499238164"/>
  <flow id="JF55623" begin="0" fromJunction="J4" toJunction="J3" end="5000" vehsPerHour="90.61896049465442"/>
  <flow id="JF55624" begin="0" fromJunction="J4" toJunction="J0" end="5000" vehsPerHour="106.3852933340661"/>
  <flow id="JF55625" begin="5000" fromJunction="J0" toJunction="J2" end="5060" vehsPerHour="18.53468044014673"/>
  <flow id="JF55626" begin="5000" fromJunction="J0" toJunction="J3" end="5060" vehsPerHour="0.7537074615421108"/>
  <flow id="JF55627" begin="5000" fromJunction="J0" toJunction="J4" end="5060" vehsPerHour="59.05356243815091"/>
  <flow id="JF55628" begin="5000" fromJunction="J2" toJunction="J3" end="5060" vehsPerHour="85.0662262855603"/>
  <flow id="JF55629" begin="5000" fromJunction="J3" toJunction="J2" end="5060" vehsPerHour="71.9777747337935"/>
  <flow id="JF55630" begin="5000" fromJunction="J3" toJunction="J4" end="5060" vehsPerHour="81.54153716401598"/>
  <flow id="JF55631" begin="5000" fromJunction="J4" toJunction="J2" end="5060" vehsPerHour="93.10459094407882"/>
  <flow id="JF55632" begin="5060" fromJunction="J0" toJunction="J2" end="5120" vehsPerHour="14.606740342508509"/>
  <flow id="JF55633" begin="5060" fromJunction="J0" toJunction="J3" end="5120" vehsPerHour="43.549171208572155"/>
  <flow id="JF55634" begin="5060" fromJunction="J0" toJunction="J4" end="5120" vehsPerHour="61.39237302674007"/>
  <flow id="JF55635" begin="5060" fromJunction="J2" toJunction="J0" end="5120" vehsPerHour="54.4468995920939"/>
  <flow id="JF55636" begin="5060" fromJunction="J2" toJunction="J3" end="5120" vehsPerHour="103.52246407922864"/>
  <flow id="JF55637" begin="5060" fromJunction="J3" toJunction="J2" end="5120" vehsPerHour="38.04053952427659"/>
  <flow id="JF55638" begin="5060" fromJunction="J3" toJunction="J4" end="5120" vehsPerHour="15.202605870928398"/>
  <flow id="JF55639" begin="5060" fromJunction="J4" toJunction="J0" end="5120" vehsPerHour="29.92128879626132"/>
  <flow id="JF55640" begin="5060" fromJunction="J4" toJunction="J3" end="5120" vehsPerHour="60.353060384928305"/>
  <flow id="JF55641" begin="5120" fromJunction="J0" toJunction="J3" end="5180" vehsPerHour="41.78130744187264"/>
  <flow id="JF55642" begin="5120" fromJunction="J0" toJunction="J4" end="5180" vehsPerHour="106.72646652771923"/>
  <flow id="JF55643" begin="5120" fromJunction="J3" toJunction="J0" end="5180" vehsPerHour="36.331879077738975"/>
  <flow id="JF55644" begin="5120" fromJunction="J3" toJunction="J4" end="5180" vehsPerHour="24.128943185677638"/>
  <flow id="JF55645" begin="5120" fromJunction="J4" toJunction="J2" end="5180" vehsPerHour="29.455461989149704"/>
  <flow id="JF55646" begin="5180" fromJunction="J0" toJunction="J2" end="5240" vehsPerHour="16.081648710802813"/>
  <flow id="JF55647" begin="5180" fromJunction="J0" toJunction="J4" end="5240" vehsPerHour="106.3485880562746"/>
  <flow id="JF55648" begin="5180" fromJunction="J2" toJunction="J0" end="5240" vehsPerHour="96.33969388187458"/>
  <flow id="JF55649" begin="5180" fromJunction="J3" toJunction="J0" end="5240" vehsPerHour="111.66063081008694"/>
  <flow id="JF55650" begin="5180" fromJunction="J3" toJunction="J4" end="5240" vehsPerHour="89.26077964452743"/>
  <flow id="JF55651" begin="5180" fromJunction="J4" toJunction="J2" end="5240" vehsPerHour="119.7349167898052"/>
  <flow id="JF55652" begin="5180" fromJunction="J4" toJunction="J3" end="5240" vehsPerHour="100.2903615948309"/>
  <flow id="JF55653" begin="5240" fromJunction="J0" toJunction="J2" end="5300" vehsPerHour="46.063815676552515"/>
  <flow id="JF55654" begin="5240" fromJunction="J2" toJunction="J0" end="5300" vehsPerHour="116.59544611082161"/>
  <flow id="JF55655" begin="5240" fromJunction="J2" toJunction="J3" end="5300" vehsPerHour="45.02252755914776"/>
  <flow id="JF55656" begin="5240" fromJunction="J2" toJunction="J4" end="5300" vehsPerHour="128.65350605996682"/>
  <flow id="JF55657" begin="5240" fromJunction="J3" toJunction="J0" end="5300" vehsPerHour="22.128609917444784"/>
  <flow id="JF55658" begin="5240" fromJunction="J3" toJunction="J2" end="5300" vehsPerHour="0.4205065204205949"/>
  <flow id="JF55659" begin="5240" fromJunction="J3" toJunction="J4" end="5300" vehsPerHour="113.16598027936939"/>
  <flow id="JF55660" begin="5240" fromJunction="J4" toJunction="J0" end="5300" vehsPerHour="64.42385472407098"/>
  <flow id="JF55661" begin="5240" fromJunction="J4" toJunction="J2" end="5300" vehsPerHour="125.21952421108604"/>
  <flow id="JF55662" begin="5240" fromJunction="J4" toJunction="J3" end="5300" vehsPerHour="118.65036280555174"/>
  <flow id="JF55663" begin="5300" fromJunction="J0" toJunction="J2" end="5360" vehsPerHour="80.4378549583299"/>
  <flow id="JF55664" begin="5300" fromJunction="J0" toJunction="J3" end="5360" vehsPerHour="17.00973486390812"/>
  <flow id="JF55665" begin="5300" fromJunction="J0" toJunction="J4" end="5360" vehsPerHour="23.753207578207558"/>
  <flow id="JF55666" begin="5300" fromJunction="J2" toJunction="J0" end="5360" vehsPerHour="30.891090180426694"/>
  <flow id="JF55667" begin="5300" fromJunction="J2" toJunction="J3" end="5360" vehsPerHour="25.83040524519564"/>
  <flow id="JF55668" begin="5300" fromJunction="J2" toJunction="J4" end="5360" vehsPerHour="93.49178393479264"/>
  <flow id="JF55669" begin="5300" fromJunction="J3" toJunction="J4" end="5360" vehsPerHour="117.3311915900223"/>
  <flow id="JF55670" begin="5300" fromJunction="J4" toJunction="J0" end="5360" vehsPerHour="97.54244967402131"/>
  <flow id="JF55671" begin="5300" fromJunction="J4" toJunction="J2" end="5360" vehsPerHour="1.334098898073743"/>
  <flow id="JF55672" begin="5300" fromJunction="J4" toJunction="J3" end="5360" vehsPerHour="6.626108281665703"/>
  <flow id="JF55673" begin="5360" fromJunction="J0" toJunction="J3" end="5420" vehsPerHour="21.896140431464946"/>
  <flow id="JF55674" begin="5360" fromJunction="J0" toJunction="J4" end="5420" vehsPerHour="57.239206289831735"/>
  <flow id="JF55675" begin="5360" fromJunction="J2" toJunction="J0" end="5420" vehsPerHour="89.07355448447842"/>
  <flow id="JF55676" begin="5360" fromJunction="J2" toJunction="J3" end="5420" vehsPerHour="107.23597240769655"/>
  <flow id="JF55677" begin="5360" fromJunction="J2" toJunction="J4" end="5420" vehsPerHour="124.2355183334198"/>
  <flow id="JF55678" begin="5360" fromJunction="J3" toJunction="J2" end="5420" vehsPerHour="119.05986050513704"/>
  <flow id="JF55679" begin="5360" fromJunction="J3" toJunction="J4" end="5420" vehsPerHour="47.7649364529523"/>
  <flow id="JF55680" begin="5360" fromJunction="J4" toJunction="J0" end="5420" vehsPerHour="101.63392944045395"/>
  <flow id="JF55681" begin="5360" fromJunction="J4" toJunction="J2" end="5420" vehsPerHour="0.31019601654275597"/>
  <flow id="JF55682" begin="5420" fromJunction="J0" toJunction="J3" end="5480" vehsPerHour="47.189652695056516"/>
  <flow id="JF55683" begin="5420" fromJunction="J0" toJunction="J4" end="5480" vehsPerHour="42.91390725546153"/>
  <flow id="JF55684" begin="5420" fromJunction="J2" toJunction="J0" end="5480" vehsPerHour="56.38540327157339"/>
  <flow id="JF55685" begin="5420" fromJunction="J2" toJunction="J3" end="5480" vehsPerHour="90.12476852321265"/>
  <flow id="JF55686" begin="5420" fromJunction="J3" toJunction="J2" end="5480" vehsPerHour="46.27735029418789"/>
  <flow id="JF55687" begin="5420" fromJunction="J3" toJunction="J4" end="5480" vehsPerHour="95.62309068515637"/>
  <flow id="JF55688" begin="5420" fromJunction="J4" toJunction="J3" end="5480" vehsPerHour="59.79069193512061"/>
  <flow id="JF55689" begin="5480" fromJunction="J0" toJunction="J2" end="5540" vehsPerHour="0.6930901349249208"/>
  <flow id="JF55690" begin="5480" fromJunction="J0" toJunction="J3" end="5540" vehsPerHour="60.04707812599533"/>
  <flow id="JF55691" begin="5480" fromJunction="J2" toJunction="J0" end="5540" vehsPerHour="104.9675906910685"/>
  <flow id="JF55692" begin="5480" fromJunction="J2" toJunction="J3" end="5540" vehsPerHour="89.0356225398248"/>
  <flow id="JF55693" begin="5480" fromJunction="J2" toJunction="J4" end="5540" vehsPerHour="78.69191114875412"/>
  <flow id="JF55694" begin="5480" fromJunction="J3" toJunction="J2" end="5540" vehsPerHour="135.26086121879163"/>
  <flow id="JF55695" begin="5480" fromJunction="J4" toJunction="J0" end="5540" vehsPerHour="3.066301662589732"/>
  <flow id="JF55696" begin="5480" fromJunction="J4" toJunction="J2" end="5540" vehsPerHour="3.7673425901577153"/>
  <flow id="JF55697" begin="5540" fromJunction="J0" toJunction="J4" end="5600" vehsPerHour="130.0409065827968"/>
  <flow id="JF55698" begin="5540" fromJunction="J2" toJunction="J3" end="5600" vehsPerHour="133.84215464747027"/>
  <flow id="JF55699" begin="5540" fromJunction="J3" toJunction="J0" end="5600" vehsPerHour="104.38050580141224"/>
  <flow id="JF55700" begin="5540" fromJunction="J4" toJunction="J0" end="5600" vehsPerHour="73.07018185848504"/>
  <flow id="JF55701" begin="5540" fromJunction="J4" toJunction="J2" end="5600" vehsPerHour="115.99622477349416"/>
  <flow id="JF55702" begin="5540" fromJunction="J4" toJunction="J3" end="5600" vehsPerHour="26.132417799025564"/>
  <flow id="JF55703" begin="5600" fromJunction="J0" toJunction="J3" end="5660" vehsPerHour="130.33622253879312"/>
  <flow id="JF55704" begin="5600" fromJunction="J0" toJunction="J4" end="5660" vehsPerHour="49.05476795282471"/>
  <flow id="JF55705" begin="5600" fromJunction="J2" toJunction="J0" end="5660" vehsPerHour="119.6517528159838"/>
  <flow id="JF55706" begin="5600" fromJunction="J2" toJunction="J3" end="5660" vehsPerHour="18.85428093388001"/>
  <flow id="JF55707" begin="5600" fromJunction="J3" toJunction="J0" end="5660" vehsPerHour="85.67619504009393"/>
  <flow id="JF55708" begin="5600" fromJunction="J3" toJunction="J2" end="5660" vehsPerHour="44.10531051080854"/>
  <flow id="JF55709" begin="5600" fromJunction="J3" toJunction="J4" end="5660" vehsPerHour="35.197359312312884"/>
  <flow id="JF55710" begin="5600" fromJunction="J4" toJunction="J0" end="5660" vehsPerHour="18.717212716600528"/>
  <flow id="JF55711" begin="5600" fromJunction="J4" toJunction="J2" end="5660" vehsPerHour="68.19206545773095"/>
  <flow id="JF55712" begin="5660" fromJunction="J0" toJunction="J3" end="5720" vehsPerHour="129.76929435226663"/>
  <flow id="JF55713" begin="5660" fromJunction="J2" toJunction="J0" end="5720" vehsPerHour="5.078853278243502"/>
  <flow id="JF55714" begin="5660" fromJunction="J2" toJunction="J3" end="5720" vehsPerHour="104.43692472027963"/>
  <flow id="JF55715" begin="5660" fromJunction="J2" toJunction="J4" end="5720" vehsPerHour="57.37455837890946"/>
  <flow id="JF55716" begin="5660" fromJunction="J3" toJunction="J0" end="5720" vehsPerHour="63.30618378263696"/>
  <flow id="JF55717" begin="5660" fromJunction="J3" toJunction="J4" end="5720" vehsPerHour="107.73193742361292"/>
  <flow id="JF55718" begin="5660" fromJunction="J4" toJunction="J2" end="5720" vehsPerHour="61.881894710884445"/>
  <flow id="JF55719" begin="5660" fromJunction="J4" toJunction="J3" end="5720" vehsPerHour="83.6133547390874"/>
  <flow id="JF55720" begin="5720" fromJunction="J0" toJunction="J4" end="5780" vehsPerHour="62.91305603913684"/>
  <flow id="JF55721" begin="5720" fromJunction="J2" toJunction="J4" end="5780" vehsPerHour="76.79493927753167"/>
  <flow id="JF55722" begin="5720" fromJunction="J3" toJunction="J4" end="5780" vehsPerHour="88.25248407391747"/>
  <flow id="JF55723" begin="5720" fromJunction="J4" toJunction="J2" end="5780" vehsPerHour="108.7392837870234"/>
  <flow id="JF55724" begin="5780" fromJunction="J0" toJunction="J2" end="5840" vehsPerHour="55.43087499439951"/>
  <flow id="JF55725" begin="5780" fromJunction="J0" toJunction="J3" end="5840" vehsPerHour="130.30552982648712"/>
  <flow id="JF55726" begin="5780" fromJunction="J2" toJunction="J0" end="5840" vehsPerHour="56.05342851757656"/>
  <flow id="JF55727" begin="5780" fromJunction="J2" toJunction="J3" end="5840" vehsPerHour="78.99235874501295"/>
  <flow id="JF55728" begin="5780" fromJunction="J3" toJunction="J0" end="5840" vehsPerHour="122.58219702715603"/>
  <flow id="JF55729" begin="5780" fromJunction="J3" toJunction="J2" end="5840" vehsPerHour="65.61426098091532"/>
  <flow id="JF55730" begin="5780" fromJunction="J3" toJunction="J4" end="5840" vehsPerHour="12.841286182701742"/>
  <flow id="JF55731" begin="5780" fromJunction="J4" toJunction="J0" end="5840" vehsPerHour="2.493723702140897"/>
  <flow id="JF55732" begin="5780" fromJunction="J4" toJunction="J2" end="5840" vehsPerHour="106.90117970662179"/>
  <flow id="JF55733" begin="5780" fromJunction="J4" toJunction="J3" end="5840" vehsPerHour="58.15155804221404"/>
  <flow id="JF55734" begin="5840" fromJunction="J0" toJunction="J4" end="5900" vehsPerHour="33.67886725665584"/>
  <flow id="JF55735" begin="5840" fromJunction="J2" toJunction="J4" end="5900" vehsPerHour="73.00891035437486"/>
  <flow id="JF55736" begin="5840" fromJunction="J3" toJunction="J0" end="5900" vehsPerHour="90.28641766622736"/>
  <flow id="JF55737" begin="5840" fromJunction="J3" toJunction="J2" end="5900" vehsPerHour="124.2427419480241"/>
  <flow id="JF55738" begin="5840" fromJunction="J3" toJunction="J4" end="5900" vehsPerHour="87.82886228171192"/>
  <flow id="JF55739" begin="5840" fromJunction="J4" toJunction="J0" end="5900" vehsPerHour="3.4440643533906585"/>
  <flow id="JF55740" begin="5840" fromJunction="J4" toJunction="J2" end="5900" vehsPerHour="14.7880124745308"/>
  <flow id="JF55741" begin="5840" fromJunction="J4" toJunction="J3" end="5900" vehsPerHour="89.7081602174674"/>
  <flow id="JF55742" begin="5900" fromJunction="J0" toJunction="J2" end="5960" vehsPerHour="103.12775213929709"/>
  <flow id="JF55743" begin="5900" fromJunction="J0" toJunction="J3" end="5960" vehsPerHour="47.12314686353197"/>
  <flow id="JF55744" begin="5900" fromJunction="J0" toJunction="J4" end="5960" vehsPerHour="46.38557524753547"/>
  <flow id="JF55745" begin="5900" fromJunction="J2" toJunction="J4" end="5960" vehsPerHour="106.68361045807181"/>
  <flow id="JF55746" begin="5900" fromJunction="J3" toJunction="J4" end="5960" vehsPerHour="70.6401838440812"/>
  <flow id="JF55747" begin="5900" fromJunction="J4" toJunction="J0" end="5960" vehsPerHour="9.299756193788227"/>
  <flow id="JF55748" begin="5900" fromJunction="J4" toJunction="J2" end="5960" vehsPerHour="31.753771123336033"/>
  <flow id="JF55749" begin="5960" fromJunction="J0" toJunction="J2" end="6020" vehsPerHour="87.5900136588556"/>
  <flow id="JF55750" begin="5960" fromJunction="J0" toJunction="J3" end="6020" vehsPerHour="38.92887117734289"/>
  <flow id="JF55751" begin="5960" fromJunction="J0" toJunction="J4" end="6020" vehsPerHour="63.14090237939228"/>
  <flow id="JF55752" begin="5960" fromJunction="J2" toJunction="J0" end="6020" vehsPerHour="82.1113868579516"/>
  <flow id="JF55753" begin="5960" fromJunction="J2" toJunction="J3" end="6020" vehsPerHour="47.14609244957017"/>
  <flow id="JF55754" begin="5960" fromJunction="J2" toJunction="J4" end="6020" vehsPerHour="25.430347686310654"/>
  <flow id="JF55755" begin="5960" fromJunction="J3" toJunction="J2" end="6020" vehsPerHour="6.750582478637126"/>
  <flow id="JF55756" begin="5960" fromJunction="J4" toJunction="J2" end="6020" vehsPerHour="134.8978581112534"/>
  <flow id="JF55757" begin="6020" fromJunction="J0" toJunction="J3" end="6080" vehsPerHour="63.14873598144258"/>
  <flow id="JF55758" begin="6020" fromJunction="J0" toJunction="J4" end="6080" vehsPerHour="14.521208545827074"/>
  <flow id="JF55759" begin="6020" fromJunction="J2" toJunction="J3" end="6080" vehsPerHour="26.661821630343766"/>
  <flow id="JF55760" begin="6020" fromJunction="J3" toJunction="J2" end="6080" vehsPerHour="103.24422212508192"/>
  <flow id="JF55761" begin="6020" fromJunction="J3" toJunction="J4" end="6080" vehsPerHour="50.513359303671116"/>
  <flow id="JF55762" begin="6020" fromJunction="J4" toJunction="J0" end="6080" vehsPerHour="58.380131254002976"/>
  <flow id="JF55763" begin="6020" fromJunction="J4" toJunction="J2" end="6080" vehsPerHour="103.24157040018048"/>
  <flow id="JF55764" begin="6080" fromJunction="J0" toJunction="J3" end="6140" vehsPerHour="25.6343679284555"/>
  <flow id="JF55765" begin="6080" fromJunction="J2" toJunction="J0" end="6140" vehsPerHour="90.01830726620743"/>
  <flow id="JF55766" begin="6080" fromJunction="J2" toJunction="J4" end="6140" vehsPerHour="3.961630372532835"/>
  <flow id="JF55767" begin="6080" fromJunction="J3" toJunction="J0" end="6140" vehsPerHour="110.25880243256864"/>
  <flow id="JF55768" begin="6080" fromJunction="J3" toJunction="J2" end="6140" vehsPerHour="85.16351154856149"/>
  <flow id="JF55769" begin="6080" fromJunction="J3" toJunction="J4" end="6140" vehsPerHour="92.63021982813285"/>
  <flow id="JF55770" begin="6080" fromJunction="J4" toJunction="J0" end="6140" vehsPerHour="87.76955374350403"/>
  <flow id="JF55771" begin="6140" fromJunction="J0" toJunction="J2" end="6200" vehsPerHour="133.9687422912312"/>
  <flow id="JF55772" begin="6140" fromJunction="J0" toJunction="J3" end="6200" vehsPerHour="31.496696015439674"/>
  <flow id="JF55773" begin="6140" fromJunction="J2" toJunction="J0" end="6200" vehsPerHour="83.25954130171532"/>
  <flow id="JF55774" begin="6140" fromJunction="J2" toJunction="J3" end="6200" vehsPerHour="113.01990667832077"/>
  <flow id="JF55775" begin="6140" fromJunction="J2" toJunction="J4" end="6200" vehsPerHour="17.221694143319233"/>
  <flow id="JF55776" begin="6140" fromJunction="J3" toJunction="J2" end="6200" vehsPerHour="90.19021073324778"/>
  <flow id="JF55777" begin="6200" fromJunction="J0" toJunction="J2" end="6260" vehsPerHour="70.57505069771965"/>
  <flow id="JF55778" begin="6200" fromJunction="J0" toJunction="J3" end="6260" vehsPerHour="29.626309719828384"/>
  <flow id="JF55779" begin="6200" fromJunction="J2" toJunction="J0" end="6260" vehsPerHour="18.046398255286523"/>
  <flow id="JF55780" begin="6200" fromJunction="J2" toJunction="J3" end="6260" vehsPerHour="100.82646271541891"/>
  <flow id="JF55781" begin="6200" fromJunction="J2" toJunction="J4" end="6260" vehsPerHour="20.752355265448653"/>
  <flow id="JF55782" begin="6200" fromJunction="J3" toJunction="J0" end="6260" vehsPerHour="41.548291364766534"/>
  <flow id="JF55783" begin="6200" fromJunction="J3" toJunction="J2" end="6260" vehsPerHour="71.69669933569782"/>
  <flow id="JF55784" begin="6200" fromJunction="J4" toJunction="J3" end="6260" vehsPerHour="56.99714278410621"/>
  <flow id="JF55785" begin="6260" fromJunction="J0" toJunction="J4" end="6320" vehsPerHour="125.92766392696346"/>
  <flow id="JF55786" begin="6260" fromJunction="J2" toJunction="J0" end="6320" vehsPerHour="79.46613223696386"/>
  <flow id="JF55787" begin="6260" fromJunction="J2" toJunction="J4" end="6320" vehsPerHour="30.90636968040353"/>
  <flow id="JF55788" begin="6260" fromJunction="J3" toJunction="J0" end="6320" vehsPerHour="76.16484925375885"/>
  <flow id="JF55789" begin="6260" fromJunction="J3" toJunction="J2" end="6320" vehsPerHour="103.5723777222373"/>
  <flow id="JF55790" begin="6260" fromJunction="J3" toJunction="J4" end="6320" vehsPerHour="92.78356209333643"/>
  <flow id="JF55791" begin="6260" fromJunction="J4" toJunction="J0" end="6320" vehsPerHour="106.48475892197844"/>
  <flow id="JF55792" begin="6260" fromJunction="J4" toJunction="J2" end="6320" vehsPerHour="128.4755751327968"/>
  <flow id="JF55793" begin="6260" fromJunction="J4" toJunction="J3" end="6320" vehsPerHour="12.258126202073134"/>
  <flow id="JF55794" begin="6320" fromJunction="J0" toJunction="J2" end="6380" vehsPerHour="47.890888335376175"/>
  <flow id="JF55795" begin="6320" fromJunction="J2" toJunction="J0" end="6380" vehsPerHour="18.351594520122305"/>
  <flow id="JF55796" begin="6320" fromJunction="J2" toJunction="J4" end="6380" vehsPerHour="53.15747481517449"/>
  <flow id="JF55797" begin="6320" fromJunction="J4" toJunction="J0" end="6380" vehsPerHour="97.80581623042261"/>
  <flow id="JF55798" begin="6320" fromJunction="J4" toJunction="J3" end="6380" vehsPerHour="9.073670453516684"/>
  <flow id="JF55799" begin="6380" fromJunction="J0" toJunction="J2" end="6440" vehsPerHour="15.834428449001715"/>
  <flow id="JF55800" begin="6380" fromJunction="J0" toJunction="J3" end="6440" vehsPerHour="0.6991435649262345"/>
  <flow id="JF55801" begin="6380" fromJunction="J0" toJunction="J4" end="6440" vehsPerHour="68.27757046764056"/>
  <flow id="JF55802" begin="6380" fromJunction="J2" toJunction="J0" end="6440" vehsPerHour="77.21360911284097"/>
  <flow id="JF55803" begin="6380" fromJunction="J2" toJunction="J3" end="6440" vehsPerHour="59.44489586653536"/>
  <flow id="JF55804" begin="6380" fromJunction="J3" toJunction="J0" end="6440" vehsPerHour="135.01656936661664"/>
  <flow id="JF55805" begin="6380" fromJunction="J3" toJunction="J2" end="6440" vehsPerHour="13.180229761936632"/>
  <flow id="JF55806" begin="6380" fromJunction="J4" toJunction="J0" end="6440" vehsPerHour="9.924383689448291"/>
  <flow id="JF55807" begin="6380" fromJunction="J4" toJunction="J2" end="6440" vehsPerHour="44.004244111780416"/>
  <flow id="JF55808" begin="6380" fromJunction="J4" toJunction="J3" end="6440" vehsPerHour="136.61266559971133"/>
  <flow id="JF55809" begin="6440" fromJunction="J0" toJunction="J2" end="6500" vehsPerHour="81.90507188951973"/>
  <flow id="JF55810" begin="6440" fromJunction="J0" toJunction="J3" end="6500" vehsPerHour="97.64797747150035"/>
  <flow id="JF55811" begin="6440" fromJunction="J2" toJunction="J3" end="6500" vehsPerHour="112.10044248745426"/>
  <flow id="JF55812" begin="6440" fromJunction="J2" toJunction="J4" end="6500" vehsPerHour="115.76962373825657"/>
  <flow id="JF55813" begin="6440" fromJunction="J3" toJunction="J0" end="6500" vehsPerHour="34.93018749500707"/>
  <flow id="JF55814" begin="6440" fromJunction="J3" toJunction="J4" end="6500" vehsPerHour="24.433826345570502"/>
  <flow id="JF55815" begin="6440" fromJunction="J4" toJunction="J0" end="6500" vehsPerHour="128.4400534975432"/>
  <flow id="JF55816" begin="6440" fromJunction="J4" toJunction="J2" end="6500" vehsPerHour="128.11049172976894"/>
  <flow id="JF55817" begin="6440" fromJunction="J4" toJunction="J3" end="6500" vehsPerHour="53.19535159744752"/>
  <flow id="JF55818" begin="6500" fromJunction="J0" toJunction="J2" end="6560" vehsPerHour="137.25140746418737"/>
  <flow id="JF55819" begin="6500" fromJunction="J0" toJunction="J3" end="6560" vehsPerHour="67.31741892025576"/>
  <flow id="JF55820" begin="6500" fromJunction="J2" toJunction="J0" end="6560" vehsPerHour="33.26985092744701"/>
  <flow id="JF55821" begin="6500" fromJunction="J2" toJunction="J3" end="6560" vehsPerHour="30.16816897488304"/>
  <flow id="JF55822" begin="6500" fromJunction="J2" toJunction="J4" end="6560" vehsPerHour="9.01541398023028"/>
  <flow id="JF55823" begin="6500" fromJunction="J4" toJunction="J2" end="6560" vehsPerHour="113.34067130157551"/>
  <flow id="JF55824" begin="6560" fromJunction="J0" toJunction="J2" end="6620" vehsPerHour="23.241869220140423"/>
  <flow id="JF55825" begin="6560" fromJunction="J0" toJunction="J3" end="6620" vehsPerHour="134.64865834601056"/>
  <flow id="JF55826" begin="6560" fromJunction="J0" toJunction="J4" end="6620" vehsPerHour="127.57341359983303"/>
  <flow id="JF55827" begin="6560" fromJunction="J2" toJunction="J0" end="6620" vehsPerHour="42.11010920292782"/>
  <flow id="JF55828" begin="6560" fromJunction="J2" toJunction="J3" end="6620" vehsPerHour="132.3458677107867"/>
  <flow id="JF55829" begin="6560" fromJunction="J2" toJunction="J4" end="6620" vehsPerHour="99.84289091807345"/>
  <flow id="JF55830" begin="6560" fromJunction="J3" toJunction="J0" end="6620" vehsPerHour="52.7147377374906"/>
  <flow id="JF55831" begin="6560" fromJunction="J3" toJunction="J2" end="6620" vehsPerHour="25.623714158242464"/>
  <flow id="JF55832" begin="6560" fromJunction="J4" toJunction="J2" end="6620" vehsPerHour="1.3410897009805682"/>
  <flow id="JF55833" begin="6620" fromJunction="J0" toJunction="J3" end="6680" vehsPerHour="74.73563284639272"/>
  <flow id="JF55834" begin="6620" fromJunction="J0" toJunction="J4" end="6680" vehsPerHour="55.219492543876164"/>
  <flow id="JF55835" begin="6620" fromJunction="J2" toJunction="J3" end="6680" vehsPerHour="93.70022995830158"/>
  <flow id="JF55836" begin="6620" fromJunction="J3" toJunction="J2" end="6680" vehsPerHour="110.9689463662926"/>
  <flow id="JF55837" begin="6620" fromJunction="J4" toJunction="J3" end="6680" vehsPerHour="38.3308172850479"/>
  <flow id="JF55838" begin="6680" fromJunction="J0" toJunction="J2" end="6740" vehsPerHour="119.11588869062996"/>
  <flow id="JF55839" begin="6680" fromJunction="J0" toJunction="J4" end="6740" vehsPerHour="105.85647765803586"/>
  <flow id="JF55840" begin="6680" fromJunction="J2" toJunction="J0" end="6740" vehsPerHour="5.288538658563012"/>
  <flow id="JF55841" begin="6680" fromJunction="J2" toJunction="J3" end="6740" vehsPerHour="115.43046619042418"/>
  <flow id="JF55842" begin="6680" fromJunction="J3" toJunction="J2" end="6740" vehsPerHour="17.469186549825903"/>
  <flow id="JF55843" begin="6680" fromJunction="J3" toJunction="J4" end="6740" vehsPerHour="41.0041076928178"/>
  <flow id="JF55844" begin="6680" fromJunction="J4" toJunction="J3" end="6740" vehsPerHour="99.920998430467"/>
  <flow id="JF55845" begin="6740" fromJunction="J0" toJunction="J3" end="6800" vehsPerHour="118.17766976724138"/>
  <flow id="JF55846" begin="6740" fromJunction="J0" toJunction="J4" end="6800" vehsPerHour="102.38481591291072"/>
  <flow id="JF55847" begin="6740" fromJunction="J2" toJunction="J4" end="6800" vehsPerHour="125.14732857596988"/>
  <flow id="JF55848" begin="6740" fromJunction="J3" toJunction="J0" end="6800" vehsPerHour="15.970811374278151"/>
  <flow id="JF55849" begin="6740" fromJunction="J3" toJunction="J2" end="6800" vehsPerHour="22.625081272059152"/>
  <flow id="JF55850" begin="6740" fromJunction="J3" toJunction="J4" end="6800" vehsPerHour="23.608869495225417"/>
  <flow id="JF55851" begin="6740" fromJunction="J4" toJunction="J3" end="6800" vehsPerHour="78.76624121888094"/>
  <flow id="JF55852" begin="6800" fromJunction="J2" toJunction="J0" end="6860" vehsPerHour="52.57055029150241"/>
  <flow id="JF55853" begin="6800" fromJunction="J3" toJunction="J0" end="6860" vehsPerHour="3.4500520667013794"/>
  <flow id="JF55854" begin="6800" fromJunction="J3" toJunction="J2" end="6860" vehsPerHour="35.48280831980316"/>
  <flow id="JF55855" begin="6800" fromJunction="J3" toJunction="J4" end="6860" vehsPerHour="14.288778684212975"/>
  <flow id="JF55856" begin="6800" fromJunction="J4" toJunction="J2" end="6860" vehsPerHour="17.331887473359505"/>
  <flow id="JF55857" begin="6800" fromJunction="J4" toJunction="J3" end="6860" vehsPerHour="16.607797560698653"/>
  <flow id="JF55858" begin="6860" fromJunction="J0" toJunction="J3" end="6920" vehsPerHour="65.78184490202844"/>
  <flow id="JF55859" begin="6860" fromJunction="J2" toJunction="J0" end="6920" vehsPerHour="62.883886937664954"/>
  <flow id="JF55860" begin="6860" fromJunction="J2" toJunction="J4" end="6920" vehsPerHour="85.27992045185904"/>
  <flow id="JF55861" begin="6860" fromJunction="J3" toJunction="J0" end="6920" vehsPerHour="50.259952082006855"/>
  <flow id="JF55862" begin="6860" fromJunction="J4" toJunction="J0" end="6920" vehsPerHour="113.98996922699608"/>
  <flow id="JF55863" begin="6860" fromJunction="J4" toJunction="J2" end="6920" vehsPerHour="115.67172657780388"/>
  <flow id="JF55864" begin="6920" fromJunction="J0" toJunction="J4" end="6980" vehsPerHour="46.89511208798152"/>
  <flow id="JF55865" begin="6920" fromJunction="J2" toJunction="J0" end="6980" vehsPerHour="63.7323705342833"/>
  <flow id="JF55866" begin="6920" fromJunction="J2" toJunction="J3" end="6980" vehsPerHour="82.79592830249685"/>
  <flow id="JF55867" begin="6920" fromJunction="J2" toJunction="J4" end="6980" vehsPerHour="130.99930946961828"/>
  <flow id="JF55868" begin="6920" fromJunction="J3" toJunction="J4" end="6980" vehsPerHour="134.5384726900535"/>
  <flow id="JF55869" begin="6920" fromJunction="J4" toJunction="J0" end="6980" vehsPerHour="126.76940703581818"/>
  <flow id="JF55870" begin="6920" fromJunction="J4" toJunction="J2" end="6980" vehsPerHour="74.86097368196684"/>
  <flow id="JF55871" begin="6920" fromJunction="J4" toJunction="J3" end="6980" vehsPerHour="58.922357141955054"/>
  <flow id="JF55872" begin="6980" fromJunction="J0" toJunction="J2" end="7040" vehsPerHour="77.93938744767739"/>
  <flow id="JF55873" begin="6980" fromJunction="J0" toJunction="J3" end="7040" vehsPerHour="132.47506009666546"/>
  <flow id="JF55874" begin="6980" fromJunction="J0" toJunction="J4" end="7040" vehsPerHour="43.65608894313588"/>
  <flow id="JF55875" begin="6980" fromJunction="J2" toJunction="J4" end="7040" vehsPerHour="100.97140490814327"/>