<?xml version="1.0" encoding="UTF-8"?>

<!-- generated on 2025-03-11 22:14:37 by Eclipse SUMO netedit Version 1.20.0
-->

<routes xmlns:xsi="http://www.w3.org/2001/XMLSchema-instance" xsi:noNamespaceSchemaLocation="http://sumo.dlr.de/xsd/routes_file.xsd">
    <!-- Vehicles, persons and containers (sorted by depart) -->
    <flow id="f_0" begin="0.00" from="354587523" to="354587521#0" end="3600.00" vehsPerHour="1800"/>
    <flow id="f_1" begin="0.00" from="-354587521#1" to="-629278174#1" end="3600.00" vehsPerHour="1800"/>
    <flow id="f_10" begin="0.00" from="-9247806#2" to="-629278174#1" end="3600.00" vehsPerHour="600"/>
    <flow id="f_11" begin="0.00" from="-354587521#1" to="9247806#0" end="3600.00" vehsPerHour="600"/>
    <flow id="f_2" begin="0.00" from="290405872#0" to="290405874#0" end="3600.00" vehsPerHour="600"/>
    <flow id="f_3" begin="0.00" from="9258925#0" to="611582485#0" end="3600.00" vehsPerHour="600"/>
    <flow id="f_4" begin="0.00" from="9246225#4" to="198659569#0" end="3600.00" vehsPerHour="600"/>
    <flow id="f_5" begin="0.00" from="-533146591" to="-631653295#2" end="3600.00" vehsPerHour="600"/>
    <flow id="f_6" begin="0.00" from="-505912698#0" to="533146591" end="3600.00" vehsPerHour="600"/>
    <flow id="f_7" begin="0.00" from="-198659569#3" to="-9246225#5" end="3600.00" vehsPerHour="600"/>
    <flow id="f_8" begin="0.00" from="-611582485#3" to="-9258925#3" end="3600.00" vehsPerHour="600"/>
    <flow id="f_9" begin="0.00" from="-290405874#2" to="290405873#0" end="3600.00" vehsPerHour="600"/>
</routes>
