<?xml version="1.0" encoding="UTF-8"?>
<routes xmlns:xsi="http://www.w3.org/2001/XMLSchema-instance" xsi:noNamespaceSchemaLocation="http://sumo.dlr.de/xsd/routes_file.xsd">
  <flow id="JF364640" begin="0" fromJunction="J0" toJunction="J5" end="60" vehsPerHour="329.04319014717674" departLane="free"/>
  <flow id="JF364641" begin="0" fromJunction="J0" toJunction="J6" end="60" vehsPerHour="362.40700002779886" departLane="free"/>
  <flow id="JF364642" begin="0" fromJunction="J0" toJunction="J7" end="60" vehsPerHour="247.93704714671037" departLane="free"/>
  <flow id="JF364643" begin="0" fromJunction="J3" toJunction="J0" end="60" vehsPerHour="530.9918627556066" departLane="free"/>
  <flow id="JF364644" begin="0" fromJunction="J3" toJunction="J4" end="60" vehsPerHour="475.95576508761116" departLane="free"/>
  <flow id="JF364645" begin="0" fromJunction="J3" toJunction="J5" end="60" vehsPerHour="65.67510877441032" departLane="free"/>
  <flow id="JF364646" begin="0" fromJunction="J3" toJunction="J7" end="60" vehsPerHour="156.86109415735172" departLane="free"/>
  <flow id="JF364647" begin="0" fromJunction="J4" toJunction="J3" end="60" vehsPerHour="183.96848108105596" departLane="free"/>
  <flow id="JF364648" begin="0" fromJunction="J4" toJunction="J6" end="60" vehsPerHour="230.78132395046308" departLane="free"/>
  <flow id="JF364649" begin="0" fromJunction="J4" toJunction="J7" end="60" vehsPerHour="38.50089774463744" departLane="free"/>
  <flow id="JF364650" begin="0" fromJunction="J5" toJunction="J0" end="60" vehsPerHour="273.84552160161576" departLane="free"/>
  <flow id="JF364651" begin="0" fromJunction="J5" toJunction="J3" end="60" vehsPerHour="161.2422834937068" departLane="free"/>
  <flow id="JF364652" begin="0" fromJunction="J5" toJunction="J4" end="60" vehsPerHour="182.5858929528878" departLane="free"/>
  <flow id="JF364653" begin="0" fromJunction="J5" toJunction="J6" end="60" vehsPerHour="143.9906983491604" departLane="free"/>
  <flow id="JF364654" begin="0" fromJunction="J6" toJunction="J0" end="60" vehsPerHour="250.68168640459294" departLane="free"/>
  <flow id="JF364655" begin="0" fromJunction="J6" toJunction="J3" end="60" vehsPerHour="91.3466224755875" departLane="free"/>
  <flow id="JF364656" begin="0" fromJunction="J6" toJunction="J4" end="60" vehsPerHour="26.795434471867516" departLane="free"/>
  <flow id="JF364657" begin="0" fromJunction="J6" toJunction="J5" end="60" vehsPerHour="264.0096523672779" departLane="free"/>
  <flow id="JF364658" begin="0" fromJunction="J6" toJunction="J7" end="60" vehsPerHour="142.94467117668316" departLane="free"/>
  <flow id="JF364659" begin="0" fromJunction="J7" toJunction="J0" end="60" vehsPerHour="59.50426132457767" departLane="free"/>
  <flow id="JF364660" begin="0" fromJunction="J7" toJunction="J4" end="60" vehsPerHour="176.0691297872095" departLane="free"/>
  <flow id="JF364661" begin="0" fromJunction="J7" toJunction="J5" end="60" vehsPerHour="240.34813877390084" departLane="free"/>
  <flow id="JF364662" begin="0" fromJunction="J7" toJunction="J6" end="60" vehsPerHour="224.86834004894823" departLane="free"/>
  <flow id="JF364663" begin="60" fromJunction="J0" toJunction="J5" end="120" vehsPerHour="531.9579904567906" departLane="free"/>
  <flow id="JF364664" begin="60" fromJunction="J0" toJunction="J6" end="120" vehsPerHour="197.32164800234204" departLane="free"/>
  <flow id="JF364665" begin="60" fromJunction="J0" toJunction="J7" end="120" vehsPerHour="0.941745719392099" departLane="free"/>
  <flow id="JF364666" begin="60" fromJunction="J3" toJunction="J6" end="120" vehsPerHour="43.52296471189396" departLane="free"/>
  <flow id="JF364667" begin="60" fromJunction="J3" toJunction="J7" end="120" vehsPerHour="180.81734424097766" departLane="free"/>
  <flow id="JF364668" begin="60" fromJunction="J4" toJunction="J0" end="120" vehsPerHour="206.5967168380889" departLane="free"/>
  <flow id="JF364669" begin="60" fromJunction="J4" toJunction="J3" end="120" vehsPerHour="223.29311500648924" departLane="free"/>
  <flow id="JF364670" begin="60" fromJunction="J4" toJunction="J5" end="120" vehsPerHour="246.9912797678719" departLane="free"/>
  <flow id="JF364671" begin="60" fromJunction="J4" toJunction="J7" end="120" vehsPerHour="34.21728324848377" departLane="free"/>
  <flow id="JF364672" begin="60" fromJunction="J5" toJunction="J6" end="120" vehsPerHour="189.45799432413628" departLane="free"/>
  <flow id="JF364673" begin="60" fromJunction="J5" toJunction="J7" end="120" vehsPerHour="200.30537515298101" departLane="free"/>
  <flow id="JF364674" begin="60" fromJunction="J6" toJunction="J0" end="120" vehsPerHour="223.68061414695993" departLane="free"/>
  <flow id="JF364675" begin="60" fromJunction="J6" toJunction="J5" end="120" vehsPerHour="99.5443081409044" departLane="free"/>
  <flow id="JF364676" begin="60" fromJunction="J6" toJunction="J7" end="120" vehsPerHour="80.7439678845888" departLane="free"/>
  <flow id="JF364677" begin="60" fromJunction="J7" toJunction="J0" end="120" vehsPerHour="178.28677293112776" departLane="free"/>
  <flow id="JF364678" begin="60" fromJunction="J7" toJunction="J3" end="120" vehsPerHour="21.146395799320455" departLane="free"/>
  <flow id="JF364679" begin="60" fromJunction="J7" toJunction="J4" end="120" vehsPerHour="187.32355773319793" departLane="free"/>
  <flow id="JF364680" begin="60" fromJunction="J7" toJunction="J5" end="120" vehsPerHour="41.387143594526016" departLane="free"/>
  <flow id="JF364681" begin="60" fromJunction="J7" toJunction="J6" end="120" vehsPerHour="99.68819133381592" departLane="free"/>
  <flow id="JF364682" begin="120" fromJunction="J0" toJunction="J3" end="180" vehsPerHour="203.9643709988762" departLane="free"/>
  <flow id="JF364683" begin="120" fromJunction="J0" toJunction="J4" end="180" vehsPerHour="502.6860608438334" departLane="free"/>
  <flow id="JF364684" begin="120" fromJunction="J0" toJunction="J5" end="180" vehsPerHour="116.04637280687925" departLane="free"/>
  <flow id="JF364685" begin="120" fromJunction="J0" toJunction="J6" end="180" vehsPerHour="448.37350012886895" departLane="free"/>
  <flow id="JF364686" begin="120" fromJunction="J0" toJunction="J7" end="180" vehsPerHour="382.27934920756786" departLane="free"/>
  <flow id="JF364687" begin="120" fromJunction="J3" toJunction="J4" end="180" vehsPerHour="499.2706051583159" departLane="free"/>
  <flow id="JF364688" begin="120" fromJunction="J3" toJunction="J5" end="180" vehsPerHour="135.33405809837805" departLane="free"/>
  <flow id="JF364689" begin="120" fromJunction="J3" toJunction="J6" end="180" vehsPerHour="188.3300808485322" departLane="free"/>
  <flow id="JF364690" begin="120" fromJunction="J3" toJunction="J7" end="180" vehsPerHour="180.96267431839163" departLane="free"/>
  <flow id="JF364691" begin="120" fromJunction="J4" toJunction="J3" end="180" vehsPerHour="258.24896899088367" departLane="free"/>
  <flow id="JF364692" begin="120" fromJunction="J4" toJunction="J6" end="180" vehsPerHour="42.2954601996462" departLane="free"/>
  <flow id="JF364693" begin="120" fromJunction="J4" toJunction="J7" end="180" vehsPerHour="146.47772867041388" departLane="free"/>
  <flow id="JF364694" begin="120" fromJunction="J5" toJunction="J4" end="180" vehsPerHour="258.71524998135385" departLane="free"/>
  <flow id="JF364695" begin="120" fromJunction="J5" toJunction="J7" end="180" vehsPerHour="78.4259925541602" departLane="free"/>
  <flow id="JF364696" begin="120" fromJunction="J6" toJunction="J0" end="180" vehsPerHour="168.23036908609478" departLane="free"/>
  <flow id="JF364697" begin="120" fromJunction="J6" toJunction="J3" end="180" vehsPerHour="180.97664305699692" departLane="free"/>
  <flow id="JF364698" begin="120" fromJunction="J6" toJunction="J5" end="180" vehsPerHour="258.7553388004382" departLane="free"/>
  <flow id="JF364699" begin="120" fromJunction="J7" toJunction="J0" end="180" vehsPerHour="151.16239293169295" departLane="free"/>
  <flow id="JF364700" begin="120" fromJunction="J7" toJunction="J3" end="180" vehsPerHour="21.28391561818558" departLane="free"/>
  <flow id="JF364701" begin="120" fromJunction="J7" toJunction="J4" end="180" vehsPerHour="262.53353186274956" departLane="free"/>
  <flow id="JF364702" begin="120" fromJunction="J7" toJunction="J5" end="180" vehsPerHour="59.594230534151144" departLane="free"/>
  <flow id="JF364703" begin="120" fromJunction="J7" toJunction="J6" end="180" vehsPerHour="40.30830486451739" departLane="free"/>
  <flow id="JF364704" begin="180" fromJunction="J0" toJunction="J3" end="240" vehsPerHour="481.8723923965714" departLane="free"/>
  <flow id="JF364705" begin="180" fromJunction="J0" toJunction="J7" end="240" vehsPerHour="58.88802258173413" departLane="free"/>
  <flow id="JF364706" begin="180" fromJunction="J3" toJunction="J0" end="240" vehsPerHour="482.93493053480046" departLane="free"/>
  <flow id="JF364707" begin="180" fromJunction="J3" toJunction="J5" end="240" vehsPerHour="327.6639994152524" departLane="free"/>
  <flow id="JF364708" begin="180" fromJunction="J3" toJunction="J6" end="240" vehsPerHour="129.22127738055832" departLane="free"/>
  <flow id="JF364709" begin="180" fromJunction="J3" toJunction="J7" end="240" vehsPerHour="546.4679884353902" departLane="free"/>
  <flow id="JF364710" begin="180" fromJunction="J4" toJunction="J0" end="240" vehsPerHour="39.09915658514675" departLane="free"/>
  <flow id="JF364711" begin="180" fromJunction="J4" toJunction="J3" end="240" vehsPerHour="23.47540577064819" departLane="free"/>
  <flow id="JF364712" begin="180" fromJunction="J4" toJunction="J5" end="240" vehsPerHour="150.2934380030127" departLane="free"/>
  <flow id="JF364713" begin="180" fromJunction="J4" toJunction="J6" end="240" vehsPerHour="52.28028537702788" departLane="free"/>
  <flow id="JF364714" begin="180" fromJunction="J4" toJunction="J7" end="240" vehsPerHour="41.25504645090324" departLane="free"/>
  <flow id="JF364715" begin="180" fromJunction="J5" toJunction="J3" end="240" vehsPerHour="241.63505664417653" departLane="free"/>
  <flow id="JF364716" begin="180" fromJunction="J5" toJunction="J4" end="240" vehsPerHour="106.48228122549915" departLane="free"/>
  <flow id="JF364717" begin="180" fromJunction="J5" toJunction="J6" end="240" vehsPerHour="160.97097267223185" departLane="free"/>
  <flow id="JF364718" begin="180" fromJunction="J6" toJunction="J3" end="240" vehsPerHour="121.13450484752431" departLane="free"/>
  <flow id="JF364719" begin="180" fromJunction="J6" toJunction="J5" end="240" vehsPerHour="269.3376653120197" departLane="free"/>
  <flow id="JF364720" begin="180" fromJunction="J6" toJunction="J7" end="240" vehsPerHour="30.56937168602731" departLane="free"/>
  <flow id="JF364721" begin="180" fromJunction="J7" toJunction="J0" end="240" vehsPerHour="64.67280498957557" departLane="free"/>
  <flow id="JF364722" begin="240" fromJunction="J0" toJunction="J3" end="300" vehsPerHour="364.85035314137946" departLane="free"/>
  <flow id="JF364723" begin="240" fromJunction="J0" toJunction="J4" end="300" vehsPerHour="242.71720794872064" departLane="free"/>
  <flow id="JF364724" begin="240" fromJunction="J0" toJunction="J5" end="300" vehsPerHour="371.50843140054656" departLane="free"/>
  <flow id="JF364725" begin="240" fromJunction="J0" toJunction="J7" end="300" vehsPerHour="428.6001854737849" departLane="free"/>
  <flow id="JF364726" begin="240" fromJunction="J3" toJunction="J7" end="300" vehsPerHour="163.15970600440932" departLane="free"/>
  <flow id="JF364727" begin="240" fromJunction="J4" toJunction="J0" end="300" vehsPerHour="150.29999845057168" departLane="free"/>
  <flow id="JF364728" begin="240" fromJunction="J4" toJunction="J3" end="300" vehsPerHour="218.81777241749438" departLane="free"/>
  <flow id="JF364729" begin="240" fromJunction="J4" toJunction="J5" end="300" vehsPerHour="206.33930997654303" departLane="free"/>
  <flow id="JF364730" begin="240" fromJunction="J4" toJunction="J6" end="300" vehsPerHour="93.33427954069822" departLane="free"/>
  <flow id="JF364731" begin="240" fromJunction="J5" toJunction="J0" end="300" vehsPerHour="49.15678925632955" departLane="free"/>
  <flow id="JF364732" begin="240" fromJunction="J5" toJunction="J3" end="300" vehsPerHour="172.60483020216216" departLane="free"/>
  <flow id="JF364733" begin="240" fromJunction="J5" toJunction="J4" end="300" vehsPerHour="84.181159535112" departLane="free"/>
  <flow id="JF364734" begin="240" fromJunction="J5" toJunction="J6" end="300" vehsPerHour="164.79989841704327" departLane="free"/>
  <flow id="JF364735" begin="240" fromJunction="J5" toJunction="J7" end="300" vehsPerHour="254.08346444183965" departLane="free"/>
  <flow id="JF364736" begin="240" fromJunction="J6" toJunction="J0" end="300" vehsPerHour="63.83658125208835" departLane="free"/>
  <flow id="JF364737" begin="240" fromJunction="J6" toJunction="J4" end="300" vehsPerHour="39.491279594102444" departLane="free"/>
  <flow id="JF364738" begin="240" fromJunction="J6" toJunction="J5" end="300" vehsPerHour="30.623109663006893" departLane="free"/>
  <flow id="JF364739" begin="240" fromJunction="J7" toJunction="J3" end="300" vehsPerHour="269.8943467427884" departLane="free"/>
  <flow id="JF364740" begin="240" fromJunction="J7" toJunction="J4" end="300" vehsPerHour="215.81865404807183" departLane="free"/>
  <flow id="JF364741" begin="240" fromJunction="J7" toJunction="J5" end="300" vehsPerHour="49.21441987558065" departLane="free"/>
  <flow id="JF364742" begin="300" fromJunction="J0" toJunction="J3" end="360" vehsPerHour="264.72726441766815" departLane="free"/>
  <flow id="JF364743" begin="300" fromJunction="J0" toJunction="J6" end="360" vehsPerHour="138.12372102347243" departLane="free"/>
  <flow id="JF364744" begin="300" fromJunction="J0" toJunction="J7" end="360" vehsPerHour="364.2032947149724" departLane="free"/>
  <flow id="JF364745" begin="300" fromJunction="J3" toJunction="J0" end="360" vehsPerHour="85.24920459470204" departLane="free"/>
  <flow id="JF364746" begin="300" fromJunction="J3" toJunction="J4" end="360" vehsPerHour="163.63489049098823" departLane="free"/>
  <flow id="JF364747" begin="300" fromJunction="J3" toJunction="J5" end="360" vehsPerHour="67.22377252156717" departLane="free"/>
  <flow id="JF364748" begin="300" fromJunction="J3" toJunction="J6" end="360" vehsPerHour="94.96625192021408" departLane="free"/>
  <flow id="JF364749" begin="300" fromJunction="J3" toJunction="J7" end="360" vehsPerHour="469.4057821313315" departLane="free"/>
  <flow id="JF364750" begin="300" fromJunction="J4" toJunction="J3" end="360" vehsPerHour="56.37742365541417" departLane="free"/>
  <flow id="JF364751" begin="300" fromJunction="J4" toJunction="J5" end="360" vehsPerHour="17.406563483988297" departLane="free"/>
  <flow id="JF364752" begin="300" fromJunction="J4" toJunction="J6" end="360" vehsPerHour="78.37030930732381" departLane="free"/>
  <flow id="JF364753" begin="300" fromJunction="J4" toJunction="J7" end="360" vehsPerHour="236.2694651551382" departLane="free"/>
  <flow id="JF364754" begin="300" fromJunction="J5" toJunction="J0" end="360" vehsPerHour="273.1415574494443" departLane="free"/>
  <flow id="JF364755" begin="300" fromJunction="J5" toJunction="J3" end="360" vehsPerHour="147.5773419552377" departLane="free"/>
  <flow id="JF364756" begin="300" fromJunction="J5" toJunction="J4" end="360" vehsPerHour="252.45205855586212" departLane="free"/>
  <flow id="JF364757" begin="300" fromJunction="J5" toJunction="J6" end="360" vehsPerHour="222.9779665304471" departLane="free"/>
  <flow id="JF364758" begin="300" fromJunction="J5" toJunction="J7" end="360" vehsPerHour="41.05497759182759" departLane="free"/>
  <flow id="JF364759" begin="300" fromJunction="J6" toJunction="J0" end="360" vehsPerHour="164.16594701454852" departLane="free"/>
  <flow id="JF364760" begin="300" fromJunction="J6" toJunction="J4" end="360" vehsPerHour="234.46259771715484" departLane="free"/>
  <flow id="JF364761" begin="300" fromJunction="J6" toJunction="J5" end="360" vehsPerHour="159.73217925742492" departLane="free"/>
  <flow id="JF364762" begin="300" fromJunction="J7" toJunction="J0" end="360" vehsPerHour="260.37635725943414" departLane="free"/>
  <flow id="JF364763" begin="300" fromJunction="J7" toJunction="J3" end="360" vehsPerHour="58.191538052099354" departLane="free"/>
  <flow id="JF364764" begin="360" fromJunction="J0" toJunction="J3" end="420" vehsPerHour="241.3220787832423" departLane="free"/>
  <flow id="JF364765" begin="360" fromJunction="J0" toJunction="J5" end="420" vehsPerHour="508.6088355453534" departLane="free"/>
  <flow id="JF364766" begin="360" fromJunction="J0" toJunction="J6" end="420" vehsPerHour="37.77994851563417" departLane="free"/>
  <flow id="JF364767" begin="360" fromJunction="J0" toJunction="J7" end="420" vehsPerHour="244.9592828478051" departLane="free"/>
  <flow id="JF364768" begin="360" fromJunction="J3" toJunction="J0" end="420" vehsPerHour="348.9003630588088" departLane="free"/>
  <flow id="JF364769" begin="360" fromJunction="J3" toJunction="J5" end="420" vehsPerHour="124.09794938013715" departLane="free"/>
  <flow id="JF364770" begin="360" fromJunction="J3" toJunction="J7" end="420" vehsPerHour="127.61232571044944" departLane="free"/>
  <flow id="JF364771" begin="360" fromJunction="J4" toJunction="J0" end="420" vehsPerHour="67.43842300592917" departLane="free"/>
  <flow id="JF364772" begin="360" fromJunction="J4" toJunction="J3" end="420" vehsPerHour="200.87148343311782" departLane="free"/>
  <flow id="JF364773" begin="360" fromJunction="J4" toJunction="J5" end="420" vehsPerHour="106.75103986845417" departLane="free"/>
  <flow id="JF364774" begin="360" fromJunction="J4" toJunction="J6" end="420" vehsPerHour="17.211050615074004" departLane="free"/>
  <flow id="JF364775" begin="360" fromJunction="J4" toJunction="J7" end="420" vehsPerHour="106.849857893726" departLane="free"/>
  <flow id="JF364776" begin="360" fromJunction="J5" toJunction="J4" end="420" vehsPerHour="81.04169518541337" departLane="free"/>
  <flow id="JF364777" begin="360" fromJunction="J5" toJunction="J6" end="420" vehsPerHour="154.48625206737773" departLane="free"/>
  <flow id="JF364778" begin="360" fromJunction="J5" toJunction="J7" end="420" vehsPerHour="16.088225607269354" departLane="free"/>
  <flow id="JF364779" begin="360" fromJunction="J6" toJunction="J0" end="420" vehsPerHour="148.46300060379133" departLane="free"/>
  <flow id="JF364780" begin="360" fromJunction="J6" toJunction="J4" end="420" vehsPerHour="175.19844950029545" departLane="free"/>
  <flow id="JF364781" begin="360" fromJunction="J6" toJunction="J5" end="420" vehsPerHour="127.59534745020642" departLane="free"/>
  <flow id="JF364782" begin="360" fromJunction="J7" toJunction="J0" end="420" vehsPerHour="248.11130873771708" departLane="free"/>
  <flow id="JF364783" begin="360" fromJunction="J7" toJunction="J3" end="420" vehsPerHour="99.26422485019376" departLane="free"/>
  <flow id="JF364784" begin="360" fromJunction="J7" toJunction="J4" end="420" vehsPerHour="160.212035771837" departLane="free"/>
  <flow id="JF364785" begin="360" fromJunction="J7" toJunction="J5" end="420" vehsPerHour="104.44152180485592" departLane="free"/>
  <flow id="JF364786" begin="420" fromJunction="J0" toJunction="J5" end="480" vehsPerHour="127.42030898356468" departLane="free"/>
  <flow id="JF364787" begin="420" fromJunction="J0" toJunction="J7" end="480" vehsPerHour="357.20906853445797" departLane="free"/>
  <flow id="JF364788" begin="420" fromJunction="J3" toJunction="J0" end="480" vehsPerHour="317.13578722987967" departLane="free"/>
  <flow id="JF364789" begin="420" fromJunction="J3" toJunction="J4" end="480" vehsPerHour="397.236730141253" departLane="free"/>
  <flow id="JF364790" begin="420" fromJunction="J3" toJunction="J5" end="480" vehsPerHour="497.183157537217" departLane="free"/>
  <flow id="JF364791" begin="420" fromJunction="J3" toJunction="J6" end="480" vehsPerHour="32.98142488305337" departLane="free"/>
  <flow id="JF364792" begin="420" fromJunction="J4" toJunction="J3" end="480" vehsPerHour="248.99253134208342" departLane="free"/>
  <flow id="JF364793" begin="420" fromJunction="J4" toJunction="J6" end="480" vehsPerHour="108.53241428791424" departLane="free"/>
  <flow id="JF364794" begin="420" fromJunction="J4" toJunction="J7" end="480" vehsPerHour="223.31836619629897" departLane="free"/>
  <flow id="JF364795" begin="420" fromJunction="J5" toJunction="J3" end="480" vehsPerHour="94.96346350337421" departLane="free"/>
  <flow id="JF364796" begin="420" fromJunction="J5" toJunction="J4" end="480" vehsPerHour="252.25970077725196" departLane="free"/>
  <flow id="JF364797" begin="420" fromJunction="J5" toJunction="J6" end="480" vehsPerHour="217.6940276423356" departLane="free"/>
  <flow id="JF364798" begin="420" fromJunction="J6" toJunction="J0" end="480" vehsPerHour="72.87532804721039" departLane="free"/>
  <flow id="JF364799" begin="420" fromJunction="J6" toJunction="J3" end="480" vehsPerHour="85.3489066787964" departLane="free"/>
  <flow id="JF364800" begin="420" fromJunction="J6" toJunction="J5" end="480" vehsPerHour="234.03744188874762" departLane="free"/>
  <flow id="JF364801" begin="420" fromJunction="J7" toJunction="J3" end="480" vehsPerHour="172.4604612357142" departLane="free"/>
  <flow id="JF364802" begin="420" fromJunction="J7" toJunction="J5" end="480" vehsPerHour="4.13448944810564" departLane="free"/>
  <flow id="JF364803" begin="480" fromJunction="J0" toJunction="J4" end="540" vehsPerHour="426.34744486013744" departLane="free"/>
  <flow id="JF364804" begin="480" fromJunction="J0" toJunction="J5" end="540" vehsPerHour="299.7334156777834" departLane="free"/>
  <flow id="JF364805" begin="480" fromJunction="J0" toJunction="J7" end="540" vehsPerHour="531.6910334933734" departLane="free"/>
  <flow id="JF364806" begin="480" fromJunction="J3" toJunction="J0" end="540" vehsPerHour="279.5369199469088" departLane="free"/>
  <flow id="JF364807" begin="480" fromJunction="J3" toJunction="J5" end="540" vehsPerHour="290.509340485142" departLane="free"/>
  <flow id="JF364808" begin="480" fromJunction="J3" toJunction="J7" end="540" vehsPerHour="426.48760604630706" departLane="free"/>
  <flow id="JF364809" begin="480" fromJunction="J4" toJunction="J0" end="540" vehsPerHour="122.77294758066259" departLane="free"/>
  <flow id="JF364810" begin="480" fromJunction="J4" toJunction="J3" end="540" vehsPerHour="250.29922527715067" departLane="free"/>
  <flow id="JF364811" begin="480" fromJunction="J4" toJunction="J5" end="540" vehsPerHour="135.18414421484854" departLane="free"/>
  <flow id="JF364812" begin="480" fromJunction="J5" toJunction="J0" end="540" vehsPerHour="149.63329625080323" departLane="free"/>
  <flow id="JF364813" begin="480" fromJunction="J5" toJunction="J3" end="540" vehsPerHour="50.2199321921925" departLane="free"/>
  <flow id="JF364814" begin="480" fromJunction="J5" toJunction="J7" end="540" vehsPerHour="94.20734472803748" departLane="free"/>
  <flow id="JF364815" begin="480" fromJunction="J6" toJunction="J0" end="540" vehsPerHour="217.05483201499302" departLane="free"/>
  <flow id="JF364816" begin="480" fromJunction="J6" toJunction="J3" end="540" vehsPerHour="64.73564384755137" departLane="free"/>
  <flow id="JF364817" begin="480" fromJunction="J6" toJunction="J4" end="540" vehsPerHour="100.83413957781941" departLane="free"/>
  <flow id="JF364818" begin="480" fromJunction="J6" toJunction="J5" end="540" vehsPerHour="98.41255427170239" departLane="free"/>
  <flow id="JF364819" begin="480" fromJunction="J7" toJunction="J0" end="540" vehsPerHour="46.05842885672913" departLane="free"/>
  <flow id="JF364820" begin="480" fromJunction="J7" toJunction="J5" end="540" vehsPerHour="199.2672527998774" departLane="free"/>
  <flow id="JF364821" begin="540" fromJunction="J0" toJunction="J6" end="600" vehsPerHour="36.61179042617706" departLane="free"/>
  <flow id="JF364822" begin="540" fromJunction="J0" toJunction="J7" end="600" vehsPerHour="164.81435497326657" departLane="free"/>
  <flow id="JF364823" begin="540" fromJunction="J3" toJunction="J5" end="600" vehsPerHour="60.94411980105555" departLane="free"/>
  <flow id="JF364824" begin="540" fromJunction="J3" toJunction="J6" end="600" vehsPerHour="1.386980952688312" departLane="free"/>
  <flow id="JF364825" begin="540" fromJunction="J4" toJunction="J0" end="600" vehsPerHour="218.17352276104063" departLane="free"/>
  <flow id="JF364826" begin="540" fromJunction="J4" toJunction="J3" end="600" vehsPerHour="38.75094579474729" departLane="free"/>
  <flow id="JF364827" begin="540" fromJunction="J4" toJunction="J5" end="600" vehsPerHour="195.9097301318055" departLane="free"/>
  <flow id="JF364828" begin="540" fromJunction="J5" toJunction="J0" end="600" vehsPerHour="224.38704373898665" departLane="free"/>
  <flow id="JF364829" begin="540" fromJunction="J5" toJunction="J4" end="600" vehsPerHour="249.0105137457946" departLane="free"/>
  <flow id="JF364830" begin="540" fromJunction="J5" toJunction="J6" end="600" vehsPerHour="99.62097407880727" departLane="free"/>
  <flow id="JF364831" begin="540" fromJunction="J6" toJunction="J0" end="600" vehsPerHour="178.64449681705852" departLane="free"/>
  <flow id="JF364832" begin="540" fromJunction="J6" toJunction="J3" end="600" vehsPerHour="170.0976154712162" departLane="free"/>
  <flow id="JF364833" begin="540" fromJunction="J6" toJunction="J5" end="600" vehsPerHour="98.70335480686732" departLane="free"/>
  <flow id="JF364834" begin="540" fromJunction="J6" toJunction="J7" end="600" vehsPerHour="130.85148533043966" departLane="free"/>
  <flow id="JF364835" begin="540" fromJunction="J7" toJunction="J0" end="600" vehsPerHour="231.62581667398103" departLane="free"/>
  <flow id="JF364836" begin="540" fromJunction="J7" toJunction="J3" end="600" vehsPerHour="171.2328976189816" departLane="free"/>
  <flow id="JF364837" begin="540" fromJunction="J7" toJunction="J4" end="600" vehsPerHour="165.7754139117012" departLane="free"/>
  <flow id="JF364838" begin="540" fromJunction="J7" toJunction="J6" end="600" vehsPerHour="138.43352597414173" departLane="free"/>
  <flow id="JF364839" begin="600" fromJunction="J0" toJunction="J3" end="660" vehsPerHour="240.55296916503707" departLane="free"/>
  <flow id="JF364840" begin="600" fromJunction="J0" toJunction="J4" end="660" vehsPerHour="259.9611924431051" departLane="free"/>
  <flow id="JF364841" begin="600" fromJunction="J0" toJunction="J6" end="660" vehsPerHour="478.4018500885823" departLane="free"/>
  <flow id="JF364842" begin="600" fromJunction="J0" toJunction="J7" end="660" vehsPerHour="26.215282491781565" departLane="free"/>
  <flow id="JF364843" begin="600" fromJunction="J3" toJunction="J0" end="660" vehsPerHour="298.07783913423793" departLane="free"/>
  <flow id="JF364844" begin="600" fromJunction="J3" toJunction="J5" end="660" vehsPerHour="221.9443988190315" departLane="free"/>
  <flow id="JF364845" begin="600" fromJunction="J3" toJunction="J6" end="660" vehsPerHour="397.289652473314" departLane="free"/>
  <flow id="JF364846" begin="600" fromJunction="J3" toJunction="J7" end="660" vehsPerHour="113.97866255470372" departLane="free"/>
  <flow id="JF364847" begin="600" fromJunction="J4" toJunction="J0" end="660" vehsPerHour="114.69183981884795" departLane="free"/>
  <flow id="JF364848" begin="600" fromJunction="J4" toJunction="J5" end="660" vehsPerHour="21.660411988949473" departLane="free"/>
  <flow id="JF364849" begin="600" fromJunction="J4" toJunction="J6" end="660" vehsPerHour="250.71412033789812" departLane="free"/>
  <flow id="JF364850" begin="600" fromJunction="J4" toJunction="J7" end="660" vehsPerHour="190.12555884761963" departLane="free"/>
  <flow id="JF364851" begin="600" fromJunction="J5" toJunction="J0" end="660" vehsPerHour="196.86549628542534" departLane="free"/>
  <flow id="JF364852" begin="600" fromJunction="J5" toJunction="J3" end="660" vehsPerHour="70.19697773759668" departLane="free"/>
  <flow id="JF364853" begin="600" fromJunction="J5" toJunction="J4" end="660" vehsPerHour="244.102160087879" departLane="free"/>
  <flow id="JF364854" begin="600" fromJunction="J5" toJunction="J6" end="660" vehsPerHour="226.95514725407008" departLane="free"/>
  <flow id="JF364855" begin="600" fromJunction="J5" toJunction="J7" end="660" vehsPerHour="105.15687909778893" departLane="free"/>
  <flow id="JF364856" begin="600" fromJunction="J6" toJunction="J3" end="660" vehsPerHour="255.45940609247623" departLane="free"/>
  <flow id="JF364857" begin="600" fromJunction="J6" toJunction="J4" end="660" vehsPerHour="19.1188241797825" departLane="free"/>
  <flow id="JF364858" begin="600" fromJunction="J6" toJunction="J7" end="660" vehsPerHour="116.34706570264643" departLane="free"/>
  <flow id="JF364859" begin="600" fromJunction="J7" toJunction="J0" end="660" vehsPerHour="154.08060283714812" departLane="free"/>
  <flow id="JF364860" begin="600" fromJunction="J7" toJunction="J3" end="660" vehsPerHour="59.71715731165152" departLane="free"/>
  <flow id="JF364861" begin="600" fromJunction="J7" toJunction="J4" end="660" vehsPerHour="16.27427867027356" departLane="free"/>
  <flow id="JF364862" begin="600" fromJunction="J7" toJunction="J5" end="660" vehsPerHour="98.05476355928297" departLane="free"/>
  <flow id="JF364863" begin="600" fromJunction="J7" toJunction="J6" end="660" vehsPerHour="50.26891804763121" departLane="free"/>
  <flow id="JF364864" begin="660" fromJunction="J0" toJunction="J4" end="720" vehsPerHour="187.72880507323043" departLane="free"/>
  <flow id="JF364865" begin="660" fromJunction="J0" toJunction="J5" end="720" vehsPerHour="340.20946392549655" departLane="free"/>
  <flow id="JF364866" begin="660" fromJunction="J0" toJunction="J6" end="720" vehsPerHour="225.25461411541045" departLane="free"/>
  <flow id="JF364867" begin="660" fromJunction="J3" toJunction="J0" end="720" vehsPerHour="348.58945663807384" departLane="free"/>
  <flow id="JF364868" begin="660" fromJunction="J3" toJunction="J4" end="720" vehsPerHour="377.0331851936951" departLane="free"/>