<?xml version="1.0" encoding="UTF-8"?>
<routes xmlns:xsi="http://www.w3.org/2001/XMLSchema-instance" xsi:noNamespaceSchemaLocation="http://sumo.dlr.de/xsd/routes_file.xsd">
  <flow id="JF369939" begin="0" fromJunction="J0" toJunction="J3" end="60" vehsPerHour="484.77832507662777" departLane="free"/>
  <flow id="JF369940" begin="0" fromJunction="J0" toJunction="J4" end="60" vehsPerHour="336.3620857499288" departLane="free"/>
  <flow id="JF369941" begin="0" fromJunction="J0" toJunction="J5" end="60" vehsPerHour="372.598608450753" departLane="free"/>
  <flow id="JF369942" begin="0" fromJunction="J0" toJunction="J6" end="60" vehsPerHour="174.45411934315615" departLane="free"/>
  <flow id="JF369943" begin="0" fromJunction="J0" toJunction="J7" end="60" vehsPerHour="369.4525774110793" departLane="free"/>
  <flow id="JF369944" begin="0" fromJunction="J3" toJunction="J0" end="60" vehsPerHour="429.8567077406183" departLane="free"/>
  <flow id="JF369945" begin="0" fromJunction="J3" toJunction="J5" end="60" vehsPerHour="413.1552459721525" departLane="free"/>
  <flow id="JF369946" begin="0" fromJunction="J3" toJunction="J7" end="60" vehsPerHour="163.89797787278127" departLane="free"/>
  <flow id="JF369947" begin="0" fromJunction="J4" toJunction="J0" end="60" vehsPerHour="97.79111492788512" departLane="free"/>
  <flow id="JF369948" begin="0" fromJunction="J4" toJunction="J5" end="60" vehsPerHour="158.54435953255629" departLane="free"/>
  <flow id="JF369949" begin="0" fromJunction="J4" toJunction="J6" end="60" vehsPerHour="241.1935811787427" departLane="free"/>
  <flow id="JF369950" begin="0" fromJunction="J4" toJunction="J7" end="60" vehsPerHour="150.91229589983624" departLane="free"/>
  <flow id="JF369951" begin="0" fromJunction="J5" toJunction="J0" end="60" vehsPerHour="32.02440743676553" departLane="free"/>
  <flow id="JF369952" begin="0" fromJunction="J5" toJunction="J4" end="60" vehsPerHour="253.50664619093894" departLane="free"/>
  <flow id="JF369953" begin="0" fromJunction="J5" toJunction="J7" end="60" vehsPerHour="236.95888502261948" departLane="free"/>
  <flow id="JF369954" begin="0" fromJunction="J6" toJunction="J0" end="60" vehsPerHour="106.43589110856136" departLane="free"/>
  <flow id="JF369955" begin="0" fromJunction="J6" toJunction="J4" end="60" vehsPerHour="245.7022538810249" departLane="free"/>
  <flow id="JF369956" begin="0" fromJunction="J6" toJunction="J5" end="60" vehsPerHour="151.1069053443273" departLane="free"/>
  <flow id="JF369957" begin="0" fromJunction="J6" toJunction="J7" end="60" vehsPerHour="264.2364724785338" departLane="free"/>
  <flow id="JF369958" begin="0" fromJunction="J7" toJunction="J0" end="60" vehsPerHour="190.54690661855454" departLane="free"/>
  <flow id="JF369959" begin="0" fromJunction="J7" toJunction="J4" end="60" vehsPerHour="259.9082235165051" departLane="free"/>
  <flow id="JF369960" begin="60" fromJunction="J0" toJunction="J3" end="120" vehsPerHour="74.77683353797173" departLane="free"/>
  <flow id="JF369961" begin="60" fromJunction="J0" toJunction="J6" end="120" vehsPerHour="66.49664229062975" departLane="free"/>
  <flow id="JF369962" begin="60" fromJunction="J0" toJunction="J7" end="120" vehsPerHour="448.41567692987894" departLane="free"/>
  <flow id="JF369963" begin="60" fromJunction="J3" toJunction="J0" end="120" vehsPerHour="168.08272918897768" departLane="free"/>
  <flow id="JF369964" begin="60" fromJunction="J3" toJunction="J4" end="120" vehsPerHour="277.56371667182503" departLane="free"/>
  <flow id="JF369965" begin="60" fromJunction="J3" toJunction="J6" end="120" vehsPerHour="388.0564009852117" departLane="free"/>
  <flow id="JF369966" begin="60" fromJunction="J4" toJunction="J3" end="120" vehsPerHour="134.13972284830606" departLane="free"/>
  <flow id="JF369967" begin="60" fromJunction="J4" toJunction="J6" end="120" vehsPerHour="176.35768589092407" departLane="free"/>
  <flow id="JF369968" begin="60" fromJunction="J4" toJunction="J7" end="120" vehsPerHour="47.980459823641475" departLane="free"/>
  <flow id="JF369969" begin="60" fromJunction="J5" toJunction="J0" end="120" vehsPerHour="249.02075098044972" departLane="free"/>
  <flow id="JF369970" begin="60" fromJunction="J5" toJunction="J4" end="120" vehsPerHour="60.768082485277304" departLane="free"/>
  <flow id="JF369971" begin="60" fromJunction="J5" toJunction="J6" end="120" vehsPerHour="196.18413725475574" departLane="free"/>
  <flow id="JF369972" begin="60" fromJunction="J5" toJunction="J7" end="120" vehsPerHour="73.36625573922078" departLane="free"/>
  <flow id="JF369973" begin="60" fromJunction="J6" toJunction="J0" end="120" vehsPerHour="83.18955817164607" departLane="free"/>
  <flow id="JF369974" begin="60" fromJunction="J6" toJunction="J3" end="120" vehsPerHour="15.52524421632357" departLane="free"/>
  <flow id="JF369975" begin="60" fromJunction="J7" toJunction="J0" end="120" vehsPerHour="200.43104972186669" departLane="free"/>
  <flow id="JF369976" begin="60" fromJunction="J7" toJunction="J4" end="120" vehsPerHour="245.45969127494376" departLane="free"/>
  <flow id="JF369977" begin="60" fromJunction="J7" toJunction="J6" end="120" vehsPerHour="148.68330725476406" departLane="free"/>
  <flow id="JF369978" begin="120" fromJunction="J0" toJunction="J3" end="180" vehsPerHour="88.30578310809844" departLane="free"/>
  <flow id="JF369979" begin="120" fromJunction="J0" toJunction="J4" end="180" vehsPerHour="126.31804521861878" departLane="free"/>
  <flow id="JF369980" begin="120" fromJunction="J0" toJunction="J7" end="180" vehsPerHour="108.37348756858587" departLane="free"/>
  <flow id="JF369981" begin="120" fromJunction="J3" toJunction="J0" end="180" vehsPerHour="467.1944440504554" departLane="free"/>
  <flow id="JF369982" begin="120" fromJunction="J3" toJunction="J4" end="180" vehsPerHour="124.30172536314603" departLane="free"/>
  <flow id="JF369983" begin="120" fromJunction="J3" toJunction="J5" end="180" vehsPerHour="107.55590637153253" departLane="free"/>
  <flow id="JF369984" begin="120" fromJunction="J3" toJunction="J6" end="180" vehsPerHour="408.36873389627243" departLane="free"/>
  <flow id="JF369985" begin="120" fromJunction="J3" toJunction="J7" end="180" vehsPerHour="235.78886165268685" departLane="free"/>
  <flow id="JF369986" begin="120" fromJunction="J4" toJunction="J0" end="180" vehsPerHour="28.681575324050602" departLane="free"/>
  <flow id="JF369987" begin="120" fromJunction="J5" toJunction="J6" end="180" vehsPerHour="18.22518822550274" departLane="free"/>
  <flow id="JF369988" begin="120" fromJunction="J5" toJunction="J7" end="180" vehsPerHour="216.2136586359459" departLane="free"/>
  <flow id="JF369989" begin="120" fromJunction="J6" toJunction="J3" end="180" vehsPerHour="142.1256478297815" departLane="free"/>
  <flow id="JF369990" begin="120" fromJunction="J6" toJunction="J4" end="180" vehsPerHour="39.53676326674612" departLane="free"/>
  <flow id="JF369991" begin="120" fromJunction="J6" toJunction="J5" end="180" vehsPerHour="80.5332287274795" departLane="free"/>
  <flow id="JF369992" begin="120" fromJunction="J6" toJunction="J7" end="180" vehsPerHour="158.94268877118816" departLane="free"/>
  <flow id="JF369993" begin="120" fromJunction="J7" toJunction="J0" end="180" vehsPerHour="188.6753546723611" departLane="free"/>
  <flow id="JF369994" begin="120" fromJunction="J7" toJunction="J4" end="180" vehsPerHour="212.94997944461088" departLane="free"/>
  <flow id="JF369995" begin="120" fromJunction="J7" toJunction="J5" end="180" vehsPerHour="206.17862296764477" departLane="free"/>
  <flow id="JF369996" begin="120" fromJunction="J7" toJunction="J6" end="180" vehsPerHour="244.09625701222237" departLane="free"/>
  <flow id="JF369997" begin="180" fromJunction="J0" toJunction="J4" end="240" vehsPerHour="520.9894383729883" departLane="free"/>
  <flow id="JF369998" begin="180" fromJunction="J0" toJunction="J5" end="240" vehsPerHour="497.388603145632" departLane="free"/>
  <flow id="JF369999" begin="180" fromJunction="J3" toJunction="J4" end="240" vehsPerHour="275.8053892270103" departLane="free"/>
  <flow id="JF370000" begin="180" fromJunction="J3" toJunction="J5" end="240" vehsPerHour="317.9792547781169" departLane="free"/>
  <flow id="JF370001" begin="180" fromJunction="J3" toJunction="J6" end="240" vehsPerHour="345.87088274609664" departLane="free"/>
  <flow id="JF370002" begin="180" fromJunction="J3" toJunction="J7" end="240" vehsPerHour="355.38452816642774" departLane="free"/>
  <flow id="JF370003" begin="180" fromJunction="J4" toJunction="J0" end="240" vehsPerHour="98.80372108984622" departLane="free"/>
  <flow id="JF370004" begin="180" fromJunction="J4" toJunction="J3" end="240" vehsPerHour="242.22441533557685" departLane="free"/>
  <flow id="JF370005" begin="180" fromJunction="J4" toJunction="J5" end="240" vehsPerHour="95.20848353290562" departLane="free"/>
  <flow id="JF370006" begin="180" fromJunction="J4" toJunction="J6" end="240" vehsPerHour="44.074194955438045" departLane="free"/>
  <flow id="JF370007" begin="180" fromJunction="J4" toJunction="J7" end="240" vehsPerHour="21.659646048861724" departLane="free"/>
  <flow id="JF370008" begin="180" fromJunction="J5" toJunction="J0" end="240" vehsPerHour="12.044481180694925" departLane="free"/>
  <flow id="JF370009" begin="180" fromJunction="J5" toJunction="J3" end="240" vehsPerHour="194.6340861789039" departLane="free"/>
  <flow id="JF370010" begin="180" fromJunction="J5" toJunction="J4" end="240" vehsPerHour="40.6010692603541" departLane="free"/>
  <flow id="JF370011" begin="180" fromJunction="J5" toJunction="J7" end="240" vehsPerHour="257.58994443357784" departLane="free"/>
  <flow id="JF370012" begin="180" fromJunction="J6" toJunction="J0" end="240" vehsPerHour="185.44903112767037" departLane="free"/>
  <flow id="JF370013" begin="180" fromJunction="J6" toJunction="J3" end="240" vehsPerHour="212.25185766163432" departLane="free"/>
  <flow id="JF370014" begin="180" fromJunction="J6" toJunction="J4" end="240" vehsPerHour="133.46175658568362" departLane="free"/>
  <flow id="JF370015" begin="180" fromJunction="J7" toJunction="J3" end="240" vehsPerHour="239.97329249230853" departLane="free"/>
  <flow id="JF370016" begin="180" fromJunction="J7" toJunction="J4" end="240" vehsPerHour="268.7036394042184" departLane="free"/>
  <flow id="JF370017" begin="180" fromJunction="J7" toJunction="J5" end="240" vehsPerHour="68.44922154981775" departLane="free"/>
  <flow id="JF370018" begin="240" fromJunction="J0" toJunction="J3" end="300" vehsPerHour="181.90279198218815" departLane="free"/>
  <flow id="JF370019" begin="240" fromJunction="J0" toJunction="J6" end="300" vehsPerHour="44.00867340083101" departLane="free"/>
  <flow id="JF370020" begin="240" fromJunction="J0" toJunction="J7" end="300" vehsPerHour="72.59432903147625" departLane="free"/>
  <flow id="JF370021" begin="240" fromJunction="J3" toJunction="J0" end="300" vehsPerHour="470.7842768802262" departLane="free"/>
  <flow id="JF370022" begin="240" fromJunction="J3" toJunction="J5" end="300" vehsPerHour="385.4101173091305" departLane="free"/>
  <flow id="JF370023" begin="240" fromJunction="J3" toJunction="J6" end="300" vehsPerHour="189.72977577957874" departLane="free"/>
  <flow id="JF370024" begin="240" fromJunction="J3" toJunction="J7" end="300" vehsPerHour="271.977999574743" departLane="free"/>
  <flow id="JF370025" begin="240" fromJunction="J4" toJunction="J0" end="300" vehsPerHour="163.20768437959575" departLane="free"/>
  <flow id="JF370026" begin="240" fromJunction="J4" toJunction="J3" end="300" vehsPerHour="98.2768154214424" departLane="free"/>
  <flow id="JF370027" begin="240" fromJunction="J4" toJunction="J5" end="300" vehsPerHour="39.695122337256265" departLane="free"/>
  <flow id="JF370028" begin="240" fromJunction="J4" toJunction="J6" end="300" vehsPerHour="228.39681406433004" departLane="free"/>
  <flow id="JF370029" begin="240" fromJunction="J4" toJunction="J7" end="300" vehsPerHour="237.45529065988475" departLane="free"/>
  <flow id="JF370030" begin="240" fromJunction="J5" toJunction="J0" end="300" vehsPerHour="246.86714203536675" departLane="free"/>
  <flow id="JF370031" begin="240" fromJunction="J5" toJunction="J3" end="300" vehsPerHour="192.30259981771619" departLane="free"/>
  <flow id="JF370032" begin="240" fromJunction="J5" toJunction="J4" end="300" vehsPerHour="238.61587082570335" departLane="free"/>
  <flow id="JF370033" begin="240" fromJunction="J6" toJunction="J0" end="300" vehsPerHour="1.9558004211952844" departLane="free"/>
  <flow id="JF370034" begin="240" fromJunction="J6" toJunction="J3" end="300" vehsPerHour="235.24591090602277" departLane="free"/>
  <flow id="JF370035" begin="240" fromJunction="J6" toJunction="J4" end="300" vehsPerHour="143.6149032295755" departLane="free"/>
  <flow id="JF370036" begin="240" fromJunction="J6" toJunction="J5" end="300" vehsPerHour="211.48943235600473" departLane="free"/>
  <flow id="JF370037" begin="240" fromJunction="J7" toJunction="J0" end="300" vehsPerHour="273.2994546250256" departLane="free"/>
  <flow id="JF370038" begin="240" fromJunction="J7" toJunction="J3" end="300" vehsPerHour="271.07107138589794" departLane="free"/>
  <flow id="JF370039" begin="240" fromJunction="J7" toJunction="J4" end="300" vehsPerHour="141.1026938669658" departLane="free"/>
  <flow id="JF370040" begin="300" fromJunction="J0" toJunction="J4" end="360" vehsPerHour="173.38213170407408" departLane="free"/>
  <flow id="JF370041" begin="300" fromJunction="J0" toJunction="J5" end="360" vehsPerHour="176.11153383020556" departLane="free"/>
  <flow id="JF370042" begin="300" fromJunction="J0" toJunction="J6" end="360" vehsPerHour="492.08200359985057" departLane="free"/>
  <flow id="JF370043" begin="300" fromJunction="J3" toJunction="J0" end="360" vehsPerHour="234.30196762728033" departLane="free"/>
  <flow id="JF370044" begin="300" fromJunction="J3" toJunction="J6" end="360" vehsPerHour="260.75918878487124" departLane="free"/>
  <flow id="JF370045" begin="300" fromJunction="J3" toJunction="J7" end="360" vehsPerHour="538.6445529424324" departLane="free"/>
  <flow id="JF370046" begin="300" fromJunction="J4" toJunction="J0" end="360" vehsPerHour="4.503954774553382" departLane="free"/>
  <flow id="JF370047" begin="300" fromJunction="J4" toJunction="J3" end="360" vehsPerHour="10.009790686093316" departLane="free"/>
  <flow id="JF370048" begin="300" fromJunction="J4" toJunction="J5" end="360" vehsPerHour="164.4094500514464" departLane="free"/>
  <flow id="JF370049" begin="300" fromJunction="J4" toJunction="J6" end="360" vehsPerHour="142.32784997080293" departLane="free"/>
  <flow id="JF370050" begin="300" fromJunction="J4" toJunction="J7" end="360" vehsPerHour="250.1817073563778" departLane="free"/>
  <flow id="JF370051" begin="300" fromJunction="J5" toJunction="J3" end="360" vehsPerHour="231.9543173652534" departLane="free"/>
  <flow id="JF370052" begin="300" fromJunction="J5" toJunction="J7" end="360" vehsPerHour="73.18657410579075" departLane="free"/>
  <flow id="JF370053" begin="300" fromJunction="J6" toJunction="J4" end="360" vehsPerHour="120.84600440004566" departLane="free"/>
  <flow id="JF370054" begin="300" fromJunction="J6" toJunction="J7" end="360" vehsPerHour="60.96869285067993" departLane="free"/>
  <flow id="JF370055" begin="300" fromJunction="J7" toJunction="J4" end="360" vehsPerHour="240.67273254218213" departLane="free"/>
  <flow id="JF370056" begin="300" fromJunction="J7" toJunction="J5" end="360" vehsPerHour="167.3186351875754" departLane="free"/>
  <flow id="JF370057" begin="360" fromJunction="J0" toJunction="J3" end="420" vehsPerHour="175.14461362138292" departLane="free"/>
  <flow id="JF370058" begin="360" fromJunction="J0" toJunction="J4" end="420" vehsPerHour="215.415885074465" departLane="free"/>
  <flow id="JF370059" begin="360" fromJunction="J0" toJunction="J6" end="420" vehsPerHour="68.9340425251786" departLane="free"/>
  <flow id="JF370060" begin="360" fromJunction="J0" toJunction="J7" end="420" vehsPerHour="73.17836415237394" departLane="free"/>
  <flow id="JF370061" begin="360" fromJunction="J3" toJunction="J0" end="420" vehsPerHour="73.99231797299325" departLane="free"/>
  <flow id="JF370062" begin="360" fromJunction="J3" toJunction="J4" end="420" vehsPerHour="333.8518796954698" departLane="free"/>
  <flow id="JF370063" begin="360" fromJunction="J3" toJunction="J5" end="420" vehsPerHour="129.30823433238498" departLane="free"/>
  <flow id="JF370064" begin="360" fromJunction="J3" toJunction="J6" end="420" vehsPerHour="33.85165759558407" departLane="free"/>
  <flow id="JF370065" begin="360" fromJunction="J4" toJunction="J0" end="420" vehsPerHour="255.0510281999644" departLane="free"/>
  <flow id="JF370066" begin="360" fromJunction="J4" toJunction="J3" end="420" vehsPerHour="65.73413710738187" departLane="free"/>
  <flow id="JF370067" begin="360" fromJunction="J4" toJunction="J6" end="420" vehsPerHour="271.8779777863959" departLane="free"/>
  <flow id="JF370068" begin="360" fromJunction="J4" toJunction="J7" end="420" vehsPerHour="241.40652281819814" departLane="free"/>
  <flow id="JF370069" begin="360" fromJunction="J5" toJunction="J3" end="420" vehsPerHour="236.80956340090236" departLane="free"/>
  <flow id="JF370070" begin="360" fromJunction="J5" toJunction="J4" end="420" vehsPerHour="208.59289723860294" departLane="free"/>
  <flow id="JF370071" begin="360" fromJunction="J5" toJunction="J6" end="420" vehsPerHour="164.09952119272876" departLane="free"/>
  <flow id="JF370072" begin="360" fromJunction="J6" toJunction="J0" end="420" vehsPerHour="102.86655905576404" departLane="free"/>
  <flow id="JF370073" begin="360" fromJunction="J6" toJunction="J3" end="420" vehsPerHour="190.23884069164853" departLane="free"/>
  <flow id="JF370074" begin="360" fromJunction="J6" toJunction="J7" end="420" vehsPerHour="220.5376121243545" departLane="free"/>
  <flow id="JF370075" begin="360" fromJunction="J7" toJunction="J3" end="420" vehsPerHour="169.30493948811295" departLane="free"/>
  <flow id="JF370076" begin="360" fromJunction="J7" toJunction="J5" end="420" vehsPerHour="242.38838825936563" departLane="free"/>
  <flow id="JF370077" begin="360" fromJunction="J7" toJunction="J6" end="420" vehsPerHour="182.11323815282333" departLane="free"/>
  <flow id="JF370078" begin="420" fromJunction="J0" toJunction="J3" end="480" vehsPerHour="279.4209334997355" departLane="free"/>
  <flow id="JF370079" begin="420" fromJunction="J0" toJunction="J4" end="480" vehsPerHour="272.34178490640846" departLane="free"/>
  <flow id="JF370080" begin="420" fromJunction="J0" toJunction="J5" end="480" vehsPerHour="128.3934808259907" departLane="free"/>
  <flow id="JF370081" begin="420" fromJunction="J3" toJunction="J4" end="480" vehsPerHour="79.16594888920223" departLane="free"/>
  <flow id="JF370082" begin="420" fromJunction="J3" toJunction="J5" end="480" vehsPerHour="398.7141052040167" departLane="free"/>
  <flow id="JF370083" begin="420" fromJunction="J4" toJunction="J0" end="480" vehsPerHour="269.2149807038678" departLane="free"/>
  <flow id="JF370084" begin="420" fromJunction="J4" toJunction="J6" end="480" vehsPerHour="199.03857963043467" departLane="free"/>
  <flow id="JF370085" begin="420" fromJunction="J5" toJunction="J0" end="480" vehsPerHour="3.4803739079833527" departLane="free"/>
  <flow id="JF370086" begin="420" fromJunction="J5" toJunction="J3" end="480" vehsPerHour="147.44241886573718" departLane="free"/>
  <flow id="JF370087" begin="420" fromJunction="J5" toJunction="J4" end="480" vehsPerHour="32.451668090597636" departLane="free"/>
  <flow id="JF370088" begin="420" fromJunction="J5" toJunction="J7" end="480" vehsPerHour="41.65470090794872" departLane="free"/>
  <flow id="JF370089" begin="420" fromJunction="J6" toJunction="J0" end="480" vehsPerHour="217.8783377656853" departLane="free"/>
  <flow id="JF370090" begin="420" fromJunction="J6" toJunction="J3" end="480" vehsPerHour="125.27680997165557" departLane="free"/>
  <flow id="JF370091" begin="420" fromJunction="J6" toJunction="J4" end="480" vehsPerHour="135.85582250175386" departLane="free"/>
  <flow id="JF370092" begin="420" fromJunction="J6" toJunction="J5" end="480" vehsPerHour="65.712796604619" departLane="free"/>
  <flow id="JF370093" begin="420" fromJunction="J6" toJunction="J7" end="480" vehsPerHour="17.1835443572542" departLane="free"/>
  <flow id="JF370094" begin="420" fromJunction="J7" toJunction="J0" end="480" vehsPerHour="188.1714654058513" departLane="free"/>
  <flow id="JF370095" begin="420" fromJunction="J7" toJunction="J4" end="480" vehsPerHour="115.0141970831903" departLane="free"/>
  <flow id="JF370096" begin="420" fromJunction="J7" toJunction="J5" end="480" vehsPerHour="258.4944324381854" departLane="free"/>
  <flow id="JF370097" begin="420" fromJunction="J7" toJunction="J6" end="480" vehsPerHour="180.2604706162792" departLane="free"/>
  <flow id="JF370098" begin="480" fromJunction="J0" toJunction="J3" end="540" vehsPerHour="453.1997988218892" departLane="free"/>
  <flow id="JF370099" begin="480" fromJunction="J0" toJunction="J4" end="540" vehsPerHour="92.86230215331219" departLane="free"/>
  <flow id="JF370100" begin="480" fromJunction="J0" toJunction="J6" end="540" vehsPerHour="121.1916398982176" departLane="free"/>
  <flow id="JF370101" begin="480" fromJunction="J0" toJunction="J7" end="540" vehsPerHour="371.1921077163557" departLane="free"/>
  <flow id="JF370102" begin="480" fromJunction="J3" toJunction="J5" end="540" vehsPerHour="227.64392915978422" departLane="free"/>
  <flow id="JF370103" begin="480" fromJunction="J3" toJunction="J7" end="540" vehsPerHour="354.6167451503359" departLane="free"/>
  <flow id="JF370104" begin="480" fromJunction="J4" toJunction="J3" end="540" vehsPerHour="174.95778943429394" departLane="free"/>
  <flow id="JF370105" begin="480" fromJunction="J4" toJunction="J6" end="540" vehsPerHour="91.04721191679016" departLane="free"/>
  <flow id="JF370106" begin="480" fromJunction="J4" toJunction="J7" end="540" vehsPerHour="239.22584381056717" departLane="free"/>
  <flow id="JF370107" begin="480" fromJunction="J5" toJunction="J0" end="540" vehsPerHour="51.4902197665917" departLane="free"/>
  <flow id="JF370108" begin="480" fromJunction="J5" toJunction="J3" end="540" vehsPerHour="207.46858162645853" departLane="free"/>
  <flow id="JF370109" begin="480" fromJunction="J5" toJunction="J4" end="540" vehsPerHour="69.26571336583152" departLane="free"/>
  <flow id="JF370110" begin="480" fromJunction="J5" toJunction="J6" end="540" vehsPerHour="41.422361978069226" departLane="free"/>
  <flow id="JF370111" begin="480" fromJunction="J5" toJunction="J7" end="540" vehsPerHour="4.092239720210214" departLane="free"/>
  <flow id="JF370112" begin="480" fromJunction="J6" toJunction="J0" end="540" vehsPerHour="168.04307340310848" departLane="free"/>
  <flow id="JF370113" begin="480" fromJunction="J6" toJunction="J4" end="540" vehsPerHour="173.86116033676922" departLane="free"/>
  <flow id="JF370114" begin="480" fromJunction="J6" toJunction="J5" end="540" vehsPerHour="18.76795171179493" departLane="free"/>
  <flow id="JF370115" begin="480" fromJunction="J6" toJunction="J7" end="540" vehsPerHour="44.25029971618633" departLane="free"/>
  <flow id="JF370116" begin="480" fromJunction="J7" toJunction="J0" end="540" vehsPerHour="61.31331129181721" departLane="free"/>
  <flow id="JF370117" begin="480" fromJunction="J7" toJunction="J3" end="540" vehsPerHour="139.86844944639031" departLane="free"/>
  <flow id="JF370118" begin="540" fromJunction="J0" toJunction="J3" end="600" vehsPerHour="395.37418209421367" departLane="free"/>
  <flow id="JF370119" begin="540" fromJunction="J0" toJunction="J4" end="600" vehsPerHour="22.725526195190547" departLane="free"/>
  <flow id="JF370120" begin="540" fromJunction="J0" toJunction="J5" end="600" vehsPerHour="538.2606284223017" departLane="free"/>
  <flow id="JF370121" begin="540" fromJunction="J0" toJunction="J6" end="600" vehsPerHour="271.17171873326043" departLane="free"/>
  <flow id="JF370122" begin="540" fromJunction="J3" toJunction="J0" end="600" vehsPerHour="548.8014851420712" departLane="free"/>
  <flow id="JF370123" begin="540" fromJunction="J3" toJunction="J5" end="600" vehsPerHour="261.7452884520442" departLane="free"/>
  <flow id="JF370124" begin="540" fromJunction="J3" toJunction="J6" end="600" vehsPerHour="528.1444584723266" departLane="free"/>
  <flow id="JF370125" begin="540" fromJunction="J3" toJunction="J7" end="600" vehsPerHour="253.04809658000067" departLane="free"/>
  <flow id="JF370126" begin="540" fromJunction="J4" toJunction="J3" end="600" vehsPerHour="93.37378138256355" departLane="free"/>
  <flow id="JF370127" begin="540" fromJunction="J4" toJunction="J5" end="600" vehsPerHour="118.81225842938112" departLane="free"/>
  <flow id="JF370128" begin="540" fromJunction="J4" toJunction="J6" end="600" vehsPerHour="167.01764990036793" departLane="free"/>
  <flow id="JF370129" begin="540" fromJunction="J4" toJunction="J7" end="600" vehsPerHour="155.20053303038983" departLane="free"/>
  <flow id="JF370130" begin="540" fromJunction="J5" toJunction="J4" end="600" vehsPerHour="203.06304821441566" departLane="free"/>
  <flow id="JF370131" begin="540" fromJunction="J5" toJunction="J6" end="600" vehsPerHour="45.99570762092317" departLane="free"/>
  <flow id="JF370132" begin="540" fromJunction="J5" toJunction="J7" end="600" vehsPerHour="183.78420469004817" departLane="free"/>
  <flow id="JF370133" begin="540" fromJunction="J6" toJunction="J3" end="600" vehsPerHour="268.32418908718" departLane="free"/>
  <flow id="JF370134" begin="540" fromJunction="J6" toJunction="J4" end="600" vehsPerHour="232.51485800622763" departLane="free"/>
  <flow id="JF370135" begin="540" fromJunction="J6" toJunction="J5" end="600" vehsPerHour="12.455731849553967" departLane="free"/>
  <flow id="JF370136" begin="540" fromJunction="J7" toJunction="J0" end="600" vehsPerHour="72.22733388787707" departLane="free"/>
  <flow id="JF370137" begin="540" fromJunction="J7" toJunction="J4" end="600" vehsPerHour="25.563565856480093" departLane="free"/>
  <flow id="JF370138" begin="540" fromJunction="J7" toJunction="J5" end="600" vehsPerHour="92.08544126934699" departLane="free"/>
  <flow id="JF370139" begin="600" fromJunction="J0" toJunction="J3" end="660" vehsPerHour="149.59371969405234" departLane="free"/>
  <flow id="JF370140" begin="600" fromJunction="J0" toJunction="J4" end="660" vehsPerHour="463.27527743915374" departLane="free"/>
  <flow id="JF370141" begin="600" fromJunction="J0" toJunction="J5" end="660" vehsPerHour="34.34465914886221" departLane="free"/>
  <flow id="JF370142" begin="600" fromJunction="J0" toJunction="J6" end="660" vehsPerHour="240.26230652025015" departLane="free"/>
  <flow id="JF370143" begin="600" fromJunction="J0" toJunction="J7" end="660" vehsPerHour="102.07007591588616" departLane="free"/>
  <flow id="JF370144" begin="600" fromJunction="J3" toJunction="J6" end="660" vehsPerHour="299.6858449129436" departLane="free"/>
  <flow id="JF370145" begin="600" fromJunction="J4" toJunction="J0" end="660" vehsPerHour="196.53358900103117" departLane="free"/>
  <flow id="JF370146" begin="600" fromJunction="J4" toJunction="J3" end="660" vehsPerHour="219.3347599279428" departLane="free"/>
  <flow id="JF370147" begin="600" fromJunction="J4" toJunction="J5" end="660" vehsPerHour="111.26248319749172" departLane="free"/>
  <flow id="JF370148" begin="600" fromJunction="J5" toJunction="J0" end="660" vehsPerHour="107.15952536176356" departLane="free"/>
  <flow id="JF370149" begin="600" fromJunction="J5" toJunction="J3" end="660" vehsPerHour="4.099507312727514" departLane="free"/>
  <flow id="JF370150" begin="600" fromJunction="J5" toJunction="J4" end="660" vehsPerHour="171.1815805698238" departLane="free"/>
  <flow id="JF370151" begin="600" fromJunction="J5" toJunction="J6" end="660" vehsPerHour="34.97677177926923" departLane="free"/>
  <flow id="JF370152" begin="600" fromJunction="J5" toJunction="J7" end="660" vehsPerHour="108.30581955244864" departLane="free"/>
  <flow id="JF370153" begin="600" fromJunction="J6" toJunction="J0" end="660" vehsPerHour="40.72094225839434" departLane="free"/>
  <flow id="JF370154" begin="600" fromJunction="J6" toJunction="J5" end="660" vehsPerHour="66.52804444291134" departLane="free"/>
  <flow id="JF370155" begin="600" fromJunction="J7" toJunction="J0" end="660" vehsPerHour="136.13628224159115" departLane="free"/>
  <flow id="JF370156" begin="600" fromJunction="J7" toJunction="J3" end="660" vehsPerHour="273.0489298134068" departLane="free"/>
  <flow id="JF370157" begin="660" fromJunction="J0" toJunction="J5" end="720" vehsPerHour="198.52065886697034" departLane="free"/>
  <flow id="JF370158" begin="660" fromJunction="J0" toJunction="J6" end="720" vehsPerHour="251.62579019973072" departLane="free"/>
  <flow id="JF370159" begin="660" fromJunction="J0" toJunction="J7" end="720" vehsPerHour="492.71599532555086" departLane="free"/>
  <flow id="JF370160" begin="660" fromJunction="J3" toJunction="J4" end="720" vehsPerHour="442.33038946403184" departLane="free"/>
  <flow id="JF370161" begin="660" fromJunction="J3" toJunction="J5" end="720" vehsPerHour="405.92389628426326" departLane="free"/>
  <flow id="JF370162" begin="660" fromJunction="J3" toJunction="J7" end="720" vehsPerHour="41.20446022542786" departLane="free"/>
  <flow id="JF370163" begin="660" fromJunction="J4" toJunction="J0" end="720" vehsPerHour="84.4994824935136" departLane="free"/>
  <flow id="JF370164" begin="660" fromJunction="J4" toJunction="J3" end="720" vehsPerHour="101.21104848905453" departLane="free"/>
  <flow id="JF370165" begin="660" fromJunction="J4" toJunction="J5" end="720" vehsPerHour="270.4040009887145" departLane="free"/>
  <flow id="JF370166" begin="660" fromJunction="J4" toJunction="J6" end="720" vehsPerHour="58.13372836825996" departLane="free"/>
  <flow id="JF370167" begin="660" fromJunction="J4" toJunction="J7" end="720" vehsPerHour="137.34638345190174" departLane="free"/>