<?xml version="1.0" encoding="UTF-8"?>
<routes xmlns:xsi="http://www.w3.org/2001/XMLSchema-instance" xsi:noNamespaceSchemaLocation="http://sumo.dlr.de/xsd/routes_file.xsd">
  <flow id="JF368181" begin="0" fromJunction="J0" toJunction="J3" end="60" vehsPerHour="87.5173024376655" departLane="free"/>
  <flow id="JF368182" begin="0" fromJunction="J0" toJunction="J5" end="60" vehsPerHour="369.82627493446967" departLane="free"/>
  <flow id="JF368183" begin="0" fromJunction="J0" toJunction="J6" end="60" vehsPerHour="51.7367298077805" departLane="free"/>
  <flow id="JF368184" begin="0" fromJunction="J0" toJunction="J7" end="60" vehsPerHour="383.1956859016357" departLane="free"/>
  <flow id="JF368185" begin="0" fromJunction="J3" toJunction="J0" end="60" vehsPerHour="441.21391603538655" departLane="free"/>
  <flow id="JF368186" begin="0" fromJunction="J3" toJunction="J4" end="60" vehsPerHour="153.94027537118274" departLane="free"/>
  <flow id="JF368187" begin="0" fromJunction="J3" toJunction="J6" end="60" vehsPerHour="480.25432777098433" departLane="free"/>
  <flow id="JF368188" begin="0" fromJunction="J4" toJunction="J0" end="60" vehsPerHour="70.53548589015243" departLane="free"/>
  <flow id="JF368189" begin="0" fromJunction="J4" toJunction="J3" end="60" vehsPerHour="27.050413398225537" departLane="free"/>
  <flow id="JF368190" begin="0" fromJunction="J4" toJunction="J5" end="60" vehsPerHour="31.33920178851889" departLane="free"/>
  <flow id="JF368191" begin="0" fromJunction="J4" toJunction="J6" end="60" vehsPerHour="208.0876089968759" departLane="free"/>
  <flow id="JF368192" begin="0" fromJunction="J4" toJunction="J7" end="60" vehsPerHour="184.39913636299087" departLane="free"/>
  <flow id="JF368193" begin="0" fromJunction="J5" toJunction="J0" end="60" vehsPerHour="28.051878183784975" departLane="free"/>
  <flow id="JF368194" begin="0" fromJunction="J5" toJunction="J6" end="60" vehsPerHour="156.81307744663604" departLane="free"/>
  <flow id="JF368195" begin="0" fromJunction="J6" toJunction="J0" end="60" vehsPerHour="44.918676381536535" departLane="free"/>
  <flow id="JF368196" begin="0" fromJunction="J6" toJunction="J7" end="60" vehsPerHour="140.39272605342666" departLane="free"/>
  <flow id="JF368197" begin="0" fromJunction="J7" toJunction="J0" end="60" vehsPerHour="213.11649153217473" departLane="free"/>
  <flow id="JF368198" begin="0" fromJunction="J7" toJunction="J4" end="60" vehsPerHour="214.74259647557346" departLane="free"/>
  <flow id="JF368199" begin="0" fromJunction="J7" toJunction="J5" end="60" vehsPerHour="195.55281072145405" departLane="free"/>
  <flow id="JF368200" begin="0" fromJunction="J7" toJunction="J6" end="60" vehsPerHour="193.1896650255517" departLane="free"/>
  <flow id="JF368201" begin="60" fromJunction="J0" toJunction="J3" end="120" vehsPerHour="515.580296384902" departLane="free"/>
  <flow id="JF368202" begin="60" fromJunction="J0" toJunction="J7" end="120" vehsPerHour="132.08196547671372" departLane="free"/>
  <flow id="JF368203" begin="60" fromJunction="J3" toJunction="J0" end="120" vehsPerHour="464.0834574828214" departLane="free"/>
  <flow id="JF368204" begin="60" fromJunction="J3" toJunction="J4" end="120" vehsPerHour="207.44248083668734" departLane="free"/>
  <flow id="JF368205" begin="60" fromJunction="J3" toJunction="J7" end="120" vehsPerHour="383.77565503778806" departLane="free"/>
  <flow id="JF368206" begin="60" fromJunction="J4" toJunction="J3" end="120" vehsPerHour="141.49180222118298" departLane="free"/>
  <flow id="JF368207" begin="60" fromJunction="J4" toJunction="J5" end="120" vehsPerHour="201.9989309184561" departLane="free"/>
  <flow id="JF368208" begin="60" fromJunction="J4" toJunction="J6" end="120" vehsPerHour="139.72096210575612" departLane="free"/>
  <flow id="JF368209" begin="60" fromJunction="J4" toJunction="J7" end="120" vehsPerHour="133.79454568563332" departLane="free"/>
  <flow id="JF368210" begin="60" fromJunction="J5" toJunction="J0" end="120" vehsPerHour="104.90631478600956" departLane="free"/>
  <flow id="JF368211" begin="60" fromJunction="J5" toJunction="J4" end="120" vehsPerHour="262.44903815513777" departLane="free"/>
  <flow id="JF368212" begin="60" fromJunction="J6" toJunction="J3" end="120" vehsPerHour="271.19066441410115" departLane="free"/>
  <flow id="JF368213" begin="60" fromJunction="J6" toJunction="J4" end="120" vehsPerHour="103.41187691508686" departLane="free"/>
  <flow id="JF368214" begin="60" fromJunction="J6" toJunction="J5" end="120" vehsPerHour="240.9111076050909" departLane="free"/>
  <flow id="JF368215" begin="60" fromJunction="J6" toJunction="J7" end="120" vehsPerHour="32.43878436264139" departLane="free"/>
  <flow id="JF368216" begin="60" fromJunction="J7" toJunction="J3" end="120" vehsPerHour="154.2088486963885" departLane="free"/>
  <flow id="JF368217" begin="60" fromJunction="J7" toJunction="J6" end="120" vehsPerHour="129.81922929537413" departLane="free"/>
  <flow id="JF368218" begin="120" fromJunction="J0" toJunction="J3" end="180" vehsPerHour="512.4434428876089" departLane="free"/>
  <flow id="JF368219" begin="120" fromJunction="J0" toJunction="J5" end="180" vehsPerHour="38.59480252791398" departLane="free"/>
  <flow id="JF368220" begin="120" fromJunction="J0" toJunction="J6" end="180" vehsPerHour="398.7979566071381" departLane="free"/>
  <flow id="JF368221" begin="120" fromJunction="J3" toJunction="J4" end="180" vehsPerHour="42.27337583038824" departLane="free"/>
  <flow id="JF368222" begin="120" fromJunction="J3" toJunction="J6" end="180" vehsPerHour="253.7918645425632" departLane="free"/>
  <flow id="JF368223" begin="120" fromJunction="J4" toJunction="J3" end="180" vehsPerHour="168.50345880245365" departLane="free"/>
  <flow id="JF368224" begin="120" fromJunction="J4" toJunction="J5" end="180" vehsPerHour="213.4332541532504" departLane="free"/>
  <flow id="JF368225" begin="120" fromJunction="J4" toJunction="J6" end="180" vehsPerHour="162.28464854861588" departLane="free"/>
  <flow id="JF368226" begin="120" fromJunction="J5" toJunction="J0" end="180" vehsPerHour="152.70267612077276" departLane="free"/>
  <flow id="JF368227" begin="120" fromJunction="J5" toJunction="J3" end="180" vehsPerHour="262.4095420548681" departLane="free"/>
  <flow id="JF368228" begin="120" fromJunction="J5" toJunction="J4" end="180" vehsPerHour="218.4382107454936" departLane="free"/>
  <flow id="JF368229" begin="120" fromJunction="J5" toJunction="J6" end="180" vehsPerHour="265.6491824853004" departLane="free"/>
  <flow id="JF368230" begin="120" fromJunction="J5" toJunction="J7" end="180" vehsPerHour="199.3485086262911" departLane="free"/>
  <flow id="JF368231" begin="120" fromJunction="J6" toJunction="J0" end="180" vehsPerHour="97.0428938036414" departLane="free"/>
  <flow id="JF368232" begin="120" fromJunction="J6" toJunction="J3" end="180" vehsPerHour="209.09938635472366" departLane="free"/>
  <flow id="JF368233" begin="120" fromJunction="J6" toJunction="J5" end="180" vehsPerHour="127.25699856718316" departLane="free"/>
  <flow id="JF368234" begin="120" fromJunction="J6" toJunction="J7" end="180" vehsPerHour="28.392402578274677" departLane="free"/>
  <flow id="JF368235" begin="120" fromJunction="J7" toJunction="J3" end="180" vehsPerHour="179.94571906566952" departLane="free"/>
  <flow id="JF368236" begin="120" fromJunction="J7" toJunction="J4" end="180" vehsPerHour="142.4522748546095" departLane="free"/>
  <flow id="JF368237" begin="120" fromJunction="J7" toJunction="J6" end="180" vehsPerHour="2.5753638563020327" departLane="free"/>
  <flow id="JF368238" begin="180" fromJunction="J0" toJunction="J4" end="240" vehsPerHour="96.94230758650771" departLane="free"/>
  <flow id="JF368239" begin="180" fromJunction="J0" toJunction="J7" end="240" vehsPerHour="166.93017322388005" departLane="free"/>
  <flow id="JF368240" begin="180" fromJunction="J3" toJunction="J4" end="240" vehsPerHour="64.91152826769445" departLane="free"/>
  <flow id="JF368241" begin="180" fromJunction="J3" toJunction="J7" end="240" vehsPerHour="374.34485773565376" departLane="free"/>
  <flow id="JF368242" begin="180" fromJunction="J4" toJunction="J5" end="240" vehsPerHour="249.60556246093955" departLane="free"/>
  <flow id="JF368243" begin="180" fromJunction="J4" toJunction="J6" end="240" vehsPerHour="137.82435781236362" departLane="free"/>
  <flow id="JF368244" begin="180" fromJunction="J4" toJunction="J7" end="240" vehsPerHour="170.22963455412236" departLane="free"/>
  <flow id="JF368245" begin="180" fromJunction="J5" toJunction="J0" end="240" vehsPerHour="18.754447599537205" departLane="free"/>
  <flow id="JF368246" begin="180" fromJunction="J5" toJunction="J6" end="240" vehsPerHour="80.02754986906352" departLane="free"/>
  <flow id="JF368247" begin="180" fromJunction="J5" toJunction="J7" end="240" vehsPerHour="89.41895638635118" departLane="free"/>
  <flow id="JF368248" begin="180" fromJunction="J6" toJunction="J0" end="240" vehsPerHour="56.849129641806755" departLane="free"/>
  <flow id="JF368249" begin="180" fromJunction="J6" toJunction="J3" end="240" vehsPerHour="62.30009080277648" departLane="free"/>
  <flow id="JF368250" begin="180" fromJunction="J6" toJunction="J4" end="240" vehsPerHour="111.07913468299034" departLane="free"/>
  <flow id="JF368251" begin="180" fromJunction="J6" toJunction="J5" end="240" vehsPerHour="155.29647239156083" departLane="free"/>
  <flow id="JF368252" begin="180" fromJunction="J6" toJunction="J7" end="240" vehsPerHour="42.76594886234658" departLane="free"/>
  <flow id="JF368253" begin="180" fromJunction="J7" toJunction="J0" end="240" vehsPerHour="31.757901530758858" departLane="free"/>
  <flow id="JF368254" begin="180" fromJunction="J7" toJunction="J5" end="240" vehsPerHour="149.58430826226927" departLane="free"/>
  <flow id="JF368255" begin="180" fromJunction="J7" toJunction="J6" end="240" vehsPerHour="99.54013789650891" departLane="free"/>
  <flow id="JF368256" begin="240" fromJunction="J0" toJunction="J3" end="300" vehsPerHour="259.3893848731611" departLane="free"/>
  <flow id="JF368257" begin="240" fromJunction="J0" toJunction="J5" end="300" vehsPerHour="22.31922022587169" departLane="free"/>
  <flow id="JF368258" begin="240" fromJunction="J0" toJunction="J6" end="300" vehsPerHour="66.42531837951799" departLane="free"/>
  <flow id="JF368259" begin="240" fromJunction="J3" toJunction="J0" end="300" vehsPerHour="338.9612850861606" departLane="free"/>
  <flow id="JF368260" begin="240" fromJunction="J3" toJunction="J4" end="300" vehsPerHour="174.52307024408196" departLane="free"/>
  <flow id="JF368261" begin="240" fromJunction="J3" toJunction="J5" end="300" vehsPerHour="492.88116462051187" departLane="free"/>
  <flow id="JF368262" begin="240" fromJunction="J3" toJunction="J6" end="300" vehsPerHour="365.4725265035171" departLane="free"/>
  <flow id="JF368263" begin="240" fromJunction="J4" toJunction="J5" end="300" vehsPerHour="145.5140370156251" departLane="free"/>
  <flow id="JF368264" begin="240" fromJunction="J4" toJunction="J6" end="300" vehsPerHour="81.30041123978725" departLane="free"/>
  <flow id="JF368265" begin="240" fromJunction="J4" toJunction="J7" end="300" vehsPerHour="211.51650315657142" departLane="free"/>
  <flow id="JF368266" begin="240" fromJunction="J5" toJunction="J0" end="300" vehsPerHour="188.20462238508225" departLane="free"/>
  <flow id="JF368267" begin="240" fromJunction="J5" toJunction="J4" end="300" vehsPerHour="273.1649728559924" departLane="free"/>
  <flow id="JF368268" begin="240" fromJunction="J5" toJunction="J6" end="300" vehsPerHour="111.18843515459962" departLane="free"/>
  <flow id="JF368269" begin="240" fromJunction="J6" toJunction="J3" end="300" vehsPerHour="193.14524220588794" departLane="free"/>
  <flow id="JF368270" begin="240" fromJunction="J6" toJunction="J4" end="300" vehsPerHour="66.73823095360815" departLane="free"/>
  <flow id="JF368271" begin="240" fromJunction="J6" toJunction="J7" end="300" vehsPerHour="65.06090766305087" departLane="free"/>
  <flow id="JF368272" begin="240" fromJunction="J7" toJunction="J4" end="300" vehsPerHour="246.8214126447119" departLane="free"/>
  <flow id="JF368273" begin="240" fromJunction="J7" toJunction="J5" end="300" vehsPerHour="46.727353802143156" departLane="free"/>
  <flow id="JF368274" begin="240" fromJunction="J7" toJunction="J6" end="300" vehsPerHour="72.03757470444025" departLane="free"/>
  <flow id="JF368275" begin="300" fromJunction="J0" toJunction="J3" end="360" vehsPerHour="148.71316305950765" departLane="free"/>
  <flow id="JF368276" begin="300" fromJunction="J0" toJunction="J5" end="360" vehsPerHour="97.98198914770865" departLane="free"/>
  <flow id="JF368277" begin="300" fromJunction="J0" toJunction="J6" end="360" vehsPerHour="75.54310684168578" departLane="free"/>
  <flow id="JF368278" begin="300" fromJunction="J0" toJunction="J7" end="360" vehsPerHour="501.1737593802148" departLane="free"/>
  <flow id="JF368279" begin="300" fromJunction="J3" toJunction="J0" end="360" vehsPerHour="101.95908068053627" departLane="free"/>
  <flow id="JF368280" begin="300" fromJunction="J3" toJunction="J4" end="360" vehsPerHour="459.6894177746323" departLane="free"/>
  <flow id="JF368281" begin="300" fromJunction="J3" toJunction="J5" end="360" vehsPerHour="442.4037899632675" departLane="free"/>
  <flow id="JF368282" begin="300" fromJunction="J3" toJunction="J7" end="360" vehsPerHour="1.3579959807961892" departLane="free"/>
  <flow id="JF368283" begin="300" fromJunction="J4" toJunction="J3" end="360" vehsPerHour="47.83230923189087" departLane="free"/>
  <flow id="JF368284" begin="300" fromJunction="J4" toJunction="J5" end="360" vehsPerHour="52.09345826573573" departLane="free"/>
  <flow id="JF368285" begin="300" fromJunction="J5" toJunction="J3" end="360" vehsPerHour="258.75675364550887" departLane="free"/>
  <flow id="JF368286" begin="300" fromJunction="J5" toJunction="J4" end="360" vehsPerHour="37.76987600337524" departLane="free"/>
  <flow id="JF368287" begin="300" fromJunction="J5" toJunction="J6" end="360" vehsPerHour="101.71202395761567" departLane="free"/>
  <flow id="JF368288" begin="300" fromJunction="J5" toJunction="J7" end="360" vehsPerHour="30.352861582428883" departLane="free"/>
  <flow id="JF368289" begin="300" fromJunction="J6" toJunction="J0" end="360" vehsPerHour="224.62362524813676" departLane="free"/>
  <flow id="JF368290" begin="300" fromJunction="J6" toJunction="J4" end="360" vehsPerHour="165.0599362983752" departLane="free"/>
  <flow id="JF368291" begin="300" fromJunction="J6" toJunction="J5" end="360" vehsPerHour="120.79079132729836" departLane="free"/>
  <flow id="JF368292" begin="300" fromJunction="J6" toJunction="J7" end="360" vehsPerHour="38.321648095860624" departLane="free"/>
  <flow id="JF368293" begin="300" fromJunction="J7" toJunction="J0" end="360" vehsPerHour="85.83247328836488" departLane="free"/>
  <flow id="JF368294" begin="300" fromJunction="J7" toJunction="J3" end="360" vehsPerHour="150.42530055949507" departLane="free"/>
  <flow id="JF368295" begin="300" fromJunction="J7" toJunction="J4" end="360" vehsPerHour="161.45157163593964" departLane="free"/>
  <flow id="JF368296" begin="300" fromJunction="J7" toJunction="J5" end="360" vehsPerHour="231.12598236000088" departLane="free"/>
  <flow id="JF368297" begin="300" fromJunction="J7" toJunction="J6" end="360" vehsPerHour="29.30030239021936" departLane="free"/>
  <flow id="JF368298" begin="360" fromJunction="J0" toJunction="J3" end="420" vehsPerHour="455.49649178104386" departLane="free"/>
  <flow id="JF368299" begin="360" fromJunction="J0" toJunction="J4" end="420" vehsPerHour="149.89289415622616" departLane="free"/>
  <flow id="JF368300" begin="360" fromJunction="J0" toJunction="J6" end="420" vehsPerHour="462.6189755412131" departLane="free"/>
  <flow id="JF368301" begin="360" fromJunction="J0" toJunction="J7" end="420" vehsPerHour="208.5269776545418" departLane="free"/>
  <flow id="JF368302" begin="360" fromJunction="J3" toJunction="J0" end="420" vehsPerHour="249.38364745635997" departLane="free"/>
  <flow id="JF368303" begin="360" fromJunction="J3" toJunction="J5" end="420" vehsPerHour="59.70289610365133" departLane="free"/>
  <flow id="JF368304" begin="360" fromJunction="J3" toJunction="J7" end="420" vehsPerHour="515.1118798169701" departLane="free"/>
  <flow id="JF368305" begin="360" fromJunction="J4" toJunction="J0" end="420" vehsPerHour="38.82467263501942" departLane="free"/>
  <flow id="JF368306" begin="360" fromJunction="J4" toJunction="J5" end="420" vehsPerHour="224.5079584531304" departLane="free"/>
  <flow id="JF368307" begin="360" fromJunction="J4" toJunction="J6" end="420" vehsPerHour="106.76519985802538" departLane="free"/>
  <flow id="JF368308" begin="360" fromJunction="J4" toJunction="J7" end="420" vehsPerHour="253.86940305565145" departLane="free"/>
  <flow id="JF368309" begin="360" fromJunction="J5" toJunction="J0" end="420" vehsPerHour="153.68794212991108" departLane="free"/>
  <flow id="JF368310" begin="360" fromJunction="J5" toJunction="J3" end="420" vehsPerHour="69.34807734920338" departLane="free"/>
  <flow id="JF368311" begin="360" fromJunction="J5" toJunction="J4" end="420" vehsPerHour="83.29221936662276" departLane="free"/>
  <flow id="JF368312" begin="360" fromJunction="J5" toJunction="J6" end="420" vehsPerHour="74.44906576978376" departLane="free"/>
  <flow id="JF368313" begin="360" fromJunction="J5" toJunction="J7" end="420" vehsPerHour="261.6626757489323" departLane="free"/>
  <flow id="JF368314" begin="360" fromJunction="J6" toJunction="J0" end="420" vehsPerHour="99.93810254611665" departLane="free"/>
  <flow id="JF368315" begin="360" fromJunction="J6" toJunction="J3" end="420" vehsPerHour="166.06484842223205" departLane="free"/>
  <flow id="JF368316" begin="360" fromJunction="J6" toJunction="J5" end="420" vehsPerHour="242.49255926919383" departLane="free"/>
  <flow id="JF368317" begin="360" fromJunction="J7" toJunction="J0" end="420" vehsPerHour="91.91573466312663" departLane="free"/>
  <flow id="JF368318" begin="360" fromJunction="J7" toJunction="J5" end="420" vehsPerHour="132.04831023397978" departLane="free"/>
  <flow id="JF368319" begin="360" fromJunction="J7" toJunction="J6" end="420" vehsPerHour="193.15094477174543" departLane="free"/>
  <flow id="JF368320" begin="420" fromJunction="J0" toJunction="J3" end="480" vehsPerHour="505.57369763054083" departLane="free"/>
  <flow id="JF368321" begin="420" fromJunction="J0" toJunction="J4" end="480" vehsPerHour="322.44999932267217" departLane="free"/>
  <flow id="JF368322" begin="420" fromJunction="J0" toJunction="J5" end="480" vehsPerHour="336.50717467839434" departLane="free"/>
  <flow id="JF368323" begin="420" fromJunction="J0" toJunction="J6" end="480" vehsPerHour="67.5216474359087" departLane="free"/>
  <flow id="JF368324" begin="420" fromJunction="J0" toJunction="J7" end="480" vehsPerHour="420.513186718717" departLane="free"/>
  <flow id="JF368325" begin="420" fromJunction="J3" toJunction="J0" end="480" vehsPerHour="237.80428686976705" departLane="free"/>
  <flow id="JF368326" begin="420" fromJunction="J3" toJunction="J4" end="480" vehsPerHour="12.366643512867556" departLane="free"/>
  <flow id="JF368327" begin="420" fromJunction="J3" toJunction="J6" end="480" vehsPerHour="359.10827225300255" departLane="free"/>
  <flow id="JF368328" begin="420" fromJunction="J3" toJunction="J7" end="480" vehsPerHour="379.9113152829019" departLane="free"/>
  <flow id="JF368329" begin="420" fromJunction="J4" toJunction="J0" end="480" vehsPerHour="59.78521166038328" departLane="free"/>
  <flow id="JF368330" begin="420" fromJunction="J4" toJunction="J3" end="480" vehsPerHour="274.12302217839215" departLane="free"/>
  <flow id="JF368331" begin="420" fromJunction="J4" toJunction="J5" end="480" vehsPerHour="154.14574059357793" departLane="free"/>
  <flow id="JF368332" begin="420" fromJunction="J4" toJunction="J6" end="480" vehsPerHour="137.63528653370267" departLane="free"/>
  <flow id="JF368333" begin="420" fromJunction="J5" toJunction="J0" end="480" vehsPerHour="205.6007505443146" departLane="free"/>
  <flow id="JF368334" begin="420" fromJunction="J5" toJunction="J4" end="480" vehsPerHour="34.810392134569966" departLane="free"/>
  <flow id="JF368335" begin="420" fromJunction="J5" toJunction="J7" end="480" vehsPerHour="54.7337736237831" departLane="free"/>
  <flow id="JF368336" begin="420" fromJunction="J6" toJunction="J0" end="480" vehsPerHour="46.50119808689127" departLane="free"/>
  <flow id="JF368337" begin="420" fromJunction="J6" toJunction="J4" end="480" vehsPerHour="192.28510714405124" departLane="free"/>
  <flow id="JF368338" begin="420" fromJunction="J6" toJunction="J5" end="480" vehsPerHour="80.89035254317724" departLane="free"/>
  <flow id="JF368339" begin="420" fromJunction="J6" toJunction="J7" end="480" vehsPerHour="165.05054526091115" departLane="free"/>
  <flow id="JF368340" begin="420" fromJunction="J7" toJunction="J0" end="480" vehsPerHour="138.96274969043674" departLane="free"/>
  <flow id="JF368341" begin="420" fromJunction="J7" toJunction="J3" end="480" vehsPerHour="259.1237024598031" departLane="free"/>
  <flow id="JF368342" begin="420" fromJunction="J7" toJunction="J4" end="480" vehsPerHour="240.7962348324076" departLane="free"/>
  <flow id="JF368343" begin="420" fromJunction="J7" toJunction="J5" end="480" vehsPerHour="148.99104013058218" departLane="free"/>
  <flow id="JF368344" begin="420" fromJunction="J7" toJunction="J6" end="480" vehsPerHour="230.35378278306177" departLane="free"/>
  <flow id="JF368345" begin="480" fromJunction="J0" toJunction="J5" end="540" vehsPerHour="227.28250950154447" departLane="free"/>
  <flow id="JF368346" begin="480" fromJunction="J0" toJunction="J6" end="540" vehsPerHour="255.60598448383024" departLane="free"/>
  <flow id="JF368347" begin="480" fromJunction="J3" toJunction="J4" end="540" vehsPerHour="33.2835674998483" departLane="free"/>
  <flow id="JF368348" begin="480" fromJunction="J3" toJunction="J5" end="540" vehsPerHour="68.69768927599318" departLane="free"/>
  <flow id="JF368349" begin="480" fromJunction="J3" toJunction="J6" end="540" vehsPerHour="50.37427423285189" departLane="free"/>
  <flow id="JF368350" begin="480" fromJunction="J3" toJunction="J7" end="540" vehsPerHour="416.65072703408543" departLane="free"/>
  <flow id="JF368351" begin="480" fromJunction="J4" toJunction="J7" end="540" vehsPerHour="211.63379010130492" departLane="free"/>
  <flow id="JF368352" begin="480" fromJunction="J5" toJunction="J3" end="540" vehsPerHour="185.83459909864615" departLane="free"/>
  <flow id="JF368353" begin="480" fromJunction="J5" toJunction="J4" end="540" vehsPerHour="172.13004179312588" departLane="free"/>
  <flow id="JF368354" begin="480" fromJunction="J5" toJunction="J6" end="540" vehsPerHour="127.46221413262572" departLane="free"/>
  <flow id="JF368355" begin="480" fromJunction="J5" toJunction="J7" end="540" vehsPerHour="163.00548189334987" departLane="free"/>
  <flow id="JF368356" begin="480" fromJunction="J6" toJunction="J0" end="540" vehsPerHour="194.55097479526498" departLane="free"/>
  <flow id="JF368357" begin="480" fromJunction="J6" toJunction="J3" end="540" vehsPerHour="246.15448583038412" departLane="free"/>
  <flow id="JF368358" begin="480" fromJunction="J6" toJunction="J5" end="540" vehsPerHour="209.69962892865178" departLane="free"/>
  <flow id="JF368359" begin="480" fromJunction="J6" toJunction="J7" end="540" vehsPerHour="57.721771338840334" departLane="free"/>
  <flow id="JF368360" begin="480" fromJunction="J7" toJunction="J0" end="540" vehsPerHour="39.02861531374971" departLane="free"/>
  <flow id="JF368361" begin="480" fromJunction="J7" toJunction="J3" end="540" vehsPerHour="70.41380487960112" departLane="free"/>
  <flow id="JF368362" begin="480" fromJunction="J7" toJunction="J4" end="540" vehsPerHour="249.93399730704266" departLane="free"/>
  <flow id="JF368363" begin="480" fromJunction="J7" toJunction="J5" end="540" vehsPerHour="116.26513601509095" departLane="free"/>
  <flow id="JF368364" begin="480" fromJunction="J7" toJunction="J6" end="540" vehsPerHour="171.8738297085118" departLane="free"/>
  <flow id="JF368365" begin="540" fromJunction="J0" toJunction="J4" end="600" vehsPerHour="62.49758299768772" departLane="free"/>
  <flow id="JF368366" begin="540" fromJunction="J0" toJunction="J5" end="600" vehsPerHour="353.7068712432329" departLane="free"/>
  <flow id="JF368367" begin="540" fromJunction="J0" toJunction="J6" end="600" vehsPerHour="332.5963628183647" departLane="free"/>
  <flow id="JF368368" begin="540" fromJunction="J0" toJunction="J7" end="600" vehsPerHour="192.01272268953747" departLane="free"/>
  <flow id="JF368369" begin="540" fromJunction="J3" toJunction="J4" end="600" vehsPerHour="519.270513446265" departLane="free"/>
  <flow id="JF368370" begin="540" fromJunction="J3" toJunction="J6" end="600" vehsPerHour="285.3917552158354" departLane="free"/>
  <flow id="JF368371" begin="540" fromJunction="J3" toJunction="J7" end="600" vehsPerHour="189.5775721459669" departLane="free"/>
  <flow id="JF368372" begin="540" fromJunction="J4" toJunction="J0" end="600" vehsPerHour="24.72640404259617" departLane="free"/>
  <flow id="JF368373" begin="540" fromJunction="J4" toJunction="J3" end="600" vehsPerHour="106.51257346835222" departLane="free"/>
  <flow id="JF368374" begin="540" fromJunction="J4" toJunction="J6" end="600" vehsPerHour="20.24447909079537" departLane="free"/>
  <flow id="JF368375" begin="540" fromJunction="J5" toJunction="J3" end="600" vehsPerHour="35.09012538520425" departLane="free"/>
  <flow id="JF368376" begin="540" fromJunction="J5" toJunction="J4" end="600" vehsPerHour="92.18413636068858" departLane="free"/>
  <flow id="JF368377" begin="540" fromJunction="J5" toJunction="J7" end="600" vehsPerHour="212.91543082933106" departLane="free"/>
  <flow id="JF368378" begin="540" fromJunction="J6" toJunction="J0" end="600" vehsPerHour="159.00523904105344" departLane="free"/>
  <flow id="JF368379" begin="540" fromJunction="J6" toJunction="J3" end="600" vehsPerHour="89.99966596619512" departLane="free"/>
  <flow id="JF368380" begin="540" fromJunction="J6" toJunction="J4" end="600" vehsPerHour="256.53004848697896" departLane="free"/>
  <flow id="JF368381" begin="540" fromJunction="J6" toJunction="J5" end="600" vehsPerHour="260.7523452132362" departLane="free"/>
  <flow id="JF368382" begin="540" fromJunction="J7" toJunction="J4" end="600" vehsPerHour="206.72861253842626" departLane="free"/>
  <flow id="JF368383" begin="600" fromJunction="J0" toJunction="J3" end="660" vehsPerHour="333.9456654426283" departLane="free"/>
  <flow id="JF368384" begin="600" fromJunction="J0" toJunction="J4" end="660" vehsPerHour="535.032970742032" departLane="free"/>
  <flow id="JF368385" begin="600" fromJunction="J0" toJunction="J5" end="660" vehsPerHour="161.15987116740683" departLane="free"/>
  <flow id="JF368386" begin="600" fromJunction="J0" toJunction="J6" end="660" vehsPerHour="93.74423789359243" departLane="free"/>
  <flow id="JF368387" begin="600" fromJunction="J0" toJunction="J7" end="660" vehsPerHour="214.52632381507485" departLane="free"/>
  <flow id="JF368388" begin="600" fromJunction="J3" toJunction="J0" end="660" vehsPerHour="270.02706577876216" departLane="free"/>
  <flow id="JF368389" begin="600" fromJunction="J3" toJunction="J4" end="660" vehsPerHour="524.4184235311841" departLane="free"/>
  <flow id="JF368390" begin="600" fromJunction="J3" toJunction="J5" end="660" vehsPerHour="289.5430373033117" departLane="free"/>
  <flow id="JF368391" begin="600" fromJunction="J3" toJunction="J6" end="660" vehsPerHour="222.17310758761866" departLane="free"/>
  <flow id="JF368392" begin="600" fromJunction="J4" toJunction="J0" end="660" vehsPerHour="160.20569314284666" departLane="free"/>
  <flow id="JF368393" begin="600" fromJunction="J4" toJunction="J3" end="660" vehsPerHour="209.3967341317866" departLane="free"/>
  <flow id="JF368394" begin="600" fromJunction="J4" toJunction="J5" end="660" vehsPerHour="18.334753340825195" departLane="free"/>
  <flow id="JF368395" begin="600" fromJunction="J4" toJunction="J6" end="660" vehsPerHour="141.48964385438703" departLane="free"/>
  <flow id="JF368396" begin="600" fromJunction="J4" toJunction="J7" end="660" vehsPerHour="215.37942703479433" departLane="free"/>
  <flow id="JF368397" begin="600" fromJunction="J5" toJunction="J0" end="660" vehsPerHour="156.04986226884293" departLane="free"/>
  <flow id="JF368398" begin="600" fromJunction="J5" toJunction="J3" end="660" vehsPerHour="168.03207509868022" departLane="free"/>
  <flow id="JF368399" begin="600" fromJunction="J5" toJunction="J4" end="660" vehsPerHour="84.717492964135" departLane="free"/>
  <flow id="JF368400" begin="600" fromJunction="J5" toJunction="J6" end="660" vehsPerHour="146.69044576494707" departLane="free"/>
  <flow id="JF368401" begin="600" fromJunction="J5" toJunction="J7" end="660" vehsPerHour="49.55524342289307" departLane="free"/>
  <flow id="JF368402" begin="600" fromJunction="J6" toJunction="J0" end="660" vehsPerHour="204.65793260931426" departLane="free"/>
  <flow id="JF368403" begin="600" fromJunction="J6" toJunction="J3" end="660" vehsPerHour="191.36106854347202" departLane="free"/>
  <flow id="JF368404" begin="600" fromJunction="J6" toJunction="J4" end="660" vehsPerHour="165.77419015511714" departLane="free"/>
  <flow id="JF368405" begin="600" fromJunction="J6" toJunction="J5" end="660" vehsPerHour="233.45823559476358" departLane="free"/>
  <flow id="JF368406" begin="600" fromJunction="J6" toJunction="J7" end="660" vehsPerHour="136.0187915657248" departLane="free"/>
  <flow id="JF368407" begin="600" fromJunction="J7" toJunction="J0" end="660" vehsPerHour="237.00238076062791" departLane="free"/>
  <flow id="JF368408" begin="600" fromJunction="J7" toJunction="J3" end="660" vehsPerHour="106.2232181745914" departLane="free"/>
  <flow id="JF368409" begin="600" fromJunction="J7" toJunction="J4" end="660" vehsPerHour="226.49067077064558" departLane="free"/>