<?xml version="1.0" encoding="UTF-8"?>
<routes xmlns:xsi="http://www.w3.org/2001/XMLSchema-instance" xsi:noNamespaceSchemaLocation="http://sumo.dlr.de/xsd/routes_file.xsd">
  <flow id="JF366392" begin="0" fromJunction="J0" toJunction="J4" end="60" vehsPerHour="88.38118747632137" departLane="free"/>
  <flow id="JF366393" begin="0" fromJunction="J0" toJunction="J5" end="60" vehsPerHour="39.38314526648297" departLane="free"/>
  <flow id="JF366394" begin="0" fromJunction="J0" toJunction="J6" end="60" vehsPerHour="100.33260973327155" departLane="free"/>
  <flow id="JF366395" begin="0" fromJunction="J0" toJunction="J7" end="60" vehsPerHour="50.213906595633446" departLane="free"/>
  <flow id="JF366396" begin="0" fromJunction="J3" toJunction="J0" end="60" vehsPerHour="159.2780633660984" departLane="free"/>
  <flow id="JF366397" begin="0" fromJunction="J3" toJunction="J4" end="60" vehsPerHour="434.4290853848435" departLane="free"/>
  <flow id="JF366398" begin="0" fromJunction="J3" toJunction="J5" end="60" vehsPerHour="186.746937392769" departLane="free"/>
  <flow id="JF366399" begin="0" fromJunction="J3" toJunction="J6" end="60" vehsPerHour="438.7619088800199" departLane="free"/>
  <flow id="JF366400" begin="0" fromJunction="J3" toJunction="J7" end="60" vehsPerHour="142.49083595537152" departLane="free"/>
  <flow id="JF366401" begin="0" fromJunction="J4" toJunction="J0" end="60" vehsPerHour="92.5481365909942" departLane="free"/>
  <flow id="JF366402" begin="0" fromJunction="J4" toJunction="J3" end="60" vehsPerHour="136.0441801858956" departLane="free"/>
  <flow id="JF366403" begin="0" fromJunction="J4" toJunction="J5" end="60" vehsPerHour="173.4256999408834" departLane="free"/>
  <flow id="JF366404" begin="0" fromJunction="J4" toJunction="J7" end="60" vehsPerHour="126.59259722665522" departLane="free"/>
  <flow id="JF366405" begin="0" fromJunction="J5" toJunction="J3" end="60" vehsPerHour="207.5389571416363" departLane="free"/>
  <flow id="JF366406" begin="0" fromJunction="J5" toJunction="J4" end="60" vehsPerHour="235.00128509830662" departLane="free"/>
  <flow id="JF366407" begin="0" fromJunction="J5" toJunction="J6" end="60" vehsPerHour="180.0091998264527" departLane="free"/>
  <flow id="JF366408" begin="0" fromJunction="J5" toJunction="J7" end="60" vehsPerHour="163.2776618595192" departLane="free"/>
  <flow id="JF366409" begin="0" fromJunction="J6" toJunction="J0" end="60" vehsPerHour="148.08376762246573" departLane="free"/>
  <flow id="JF366410" begin="0" fromJunction="J6" toJunction="J3" end="60" vehsPerHour="20.165350280708545" departLane="free"/>
  <flow id="JF366411" begin="0" fromJunction="J6" toJunction="J4" end="60" vehsPerHour="86.50576227192315" departLane="free"/>
  <flow id="JF366412" begin="0" fromJunction="J6" toJunction="J5" end="60" vehsPerHour="49.87299979975462" departLane="free"/>
  <flow id="JF366413" begin="0" fromJunction="J6" toJunction="J7" end="60" vehsPerHour="118.19328562190903" departLane="free"/>
  <flow id="JF366414" begin="0" fromJunction="J7" toJunction="J3" end="60" vehsPerHour="247.81563169878575" departLane="free"/>
  <flow id="JF366415" begin="0" fromJunction="J7" toJunction="J4" end="60" vehsPerHour="170.76855976575024" departLane="free"/>
  <flow id="JF366416" begin="0" fromJunction="J7" toJunction="J6" end="60" vehsPerHour="266.7375782724255" departLane="free"/>
  <flow id="JF366417" begin="60" fromJunction="J0" toJunction="J3" end="120" vehsPerHour="103.58014845350866" departLane="free"/>
  <flow id="JF366418" begin="60" fromJunction="J0" toJunction="J4" end="120" vehsPerHour="164.59214858577937" departLane="free"/>
  <flow id="JF366419" begin="60" fromJunction="J0" toJunction="J6" end="120" vehsPerHour="205.99841954207244" departLane="free"/>
  <flow id="JF366420" begin="60" fromJunction="J0" toJunction="J7" end="120" vehsPerHour="533.1419909766802" departLane="free"/>
  <flow id="JF366421" begin="60" fromJunction="J3" toJunction="J0" end="120" vehsPerHour="78.29066814212571" departLane="free"/>
  <flow id="JF366422" begin="60" fromJunction="J3" toJunction="J4" end="120" vehsPerHour="486.43644587159713" departLane="free"/>
  <flow id="JF366423" begin="60" fromJunction="J3" toJunction="J7" end="120" vehsPerHour="310.41000622172703" departLane="free"/>
  <flow id="JF366424" begin="60" fromJunction="J4" toJunction="J3" end="120" vehsPerHour="166.80294668199215" departLane="free"/>
  <flow id="JF366425" begin="60" fromJunction="J4" toJunction="J6" end="120" vehsPerHour="198.75834493147116" departLane="free"/>
  <flow id="JF366426" begin="60" fromJunction="J4" toJunction="J7" end="120" vehsPerHour="100.46213073305184" departLane="free"/>
  <flow id="JF366427" begin="60" fromJunction="J5" toJunction="J3" end="120" vehsPerHour="94.60371989276202" departLane="free"/>
  <flow id="JF366428" begin="60" fromJunction="J5" toJunction="J4" end="120" vehsPerHour="267.74700687716387" departLane="free"/>
  <flow id="JF366429" begin="60" fromJunction="J5" toJunction="J6" end="120" vehsPerHour="65.5820002486192" departLane="free"/>
  <flow id="JF366430" begin="60" fromJunction="J6" toJunction="J0" end="120" vehsPerHour="36.172129047880745" departLane="free"/>
  <flow id="JF366431" begin="60" fromJunction="J6" toJunction="J3" end="120" vehsPerHour="179.5092547932564" departLane="free"/>
  <flow id="JF366432" begin="60" fromJunction="J6" toJunction="J4" end="120" vehsPerHour="101.72063422822039" departLane="free"/>
  <flow id="JF366433" begin="60" fromJunction="J6" toJunction="J5" end="120" vehsPerHour="73.63739414520374" departLane="free"/>
  <flow id="JF366434" begin="60" fromJunction="J6" toJunction="J7" end="120" vehsPerHour="219.39972825049836" departLane="free"/>
  <flow id="JF366435" begin="60" fromJunction="J7" toJunction="J3" end="120" vehsPerHour="7.1884171052017445" departLane="free"/>
  <flow id="JF366436" begin="60" fromJunction="J7" toJunction="J4" end="120" vehsPerHour="268.01985582670204" departLane="free"/>
  <flow id="JF366437" begin="60" fromJunction="J7" toJunction="J5" end="120" vehsPerHour="201.93371331461228" departLane="free"/>
  <flow id="JF366438" begin="60" fromJunction="J7" toJunction="J6" end="120" vehsPerHour="166.69184370998602" departLane="free"/>
  <flow id="JF366439" begin="120" fromJunction="J0" toJunction="J3" end="180" vehsPerHour="257.1905745902697" departLane="free"/>
  <flow id="JF366440" begin="120" fromJunction="J0" toJunction="J5" end="180" vehsPerHour="1.884873499687628" departLane="free"/>
  <flow id="JF366441" begin="120" fromJunction="J0" toJunction="J6" end="180" vehsPerHour="284.5257036286175" departLane="free"/>
  <flow id="JF366442" begin="120" fromJunction="J0" toJunction="J7" end="180" vehsPerHour="141.8013594009558" departLane="free"/>
  <flow id="JF366443" begin="120" fromJunction="J3" toJunction="J0" end="180" vehsPerHour="473.49711593098596" departLane="free"/>
  <flow id="JF366444" begin="120" fromJunction="J3" toJunction="J4" end="180" vehsPerHour="183.4789821732609" departLane="free"/>
  <flow id="JF366445" begin="120" fromJunction="J3" toJunction="J5" end="180" vehsPerHour="487.24248175680776" departLane="free"/>
  <flow id="JF366446" begin="120" fromJunction="J3" toJunction="J7" end="180" vehsPerHour="369.8068516141174" departLane="free"/>
  <flow id="JF366447" begin="120" fromJunction="J4" toJunction="J5" end="180" vehsPerHour="64.92922315298713" departLane="free"/>
  <flow id="JF366448" begin="120" fromJunction="J4" toJunction="J6" end="180" vehsPerHour="83.23409449188543" departLane="free"/>
  <flow id="JF366449" begin="120" fromJunction="J4" toJunction="J7" end="180" vehsPerHour="43.977859878906955" departLane="free"/>
  <flow id="JF366450" begin="120" fromJunction="J5" toJunction="J0" end="180" vehsPerHour="223.1744133304301" departLane="free"/>
  <flow id="JF366451" begin="120" fromJunction="J5" toJunction="J4" end="180" vehsPerHour="58.161735143905666" departLane="free"/>
  <flow id="JF366452" begin="120" fromJunction="J5" toJunction="J6" end="180" vehsPerHour="215.5032741118091" departLane="free"/>
  <flow id="JF366453" begin="120" fromJunction="J5" toJunction="J7" end="180" vehsPerHour="184.29431202877478" departLane="free"/>
  <flow id="JF366454" begin="120" fromJunction="J6" toJunction="J4" end="180" vehsPerHour="105.51664755763264" departLane="free"/>
  <flow id="JF366455" begin="120" fromJunction="J6" toJunction="J5" end="180" vehsPerHour="154.42436863000867" departLane="free"/>
  <flow id="JF366456" begin="120" fromJunction="J7" toJunction="J3" end="180" vehsPerHour="253.9957740026489" departLane="free"/>
  <flow id="JF366457" begin="120" fromJunction="J7" toJunction="J4" end="180" vehsPerHour="82.65613488970227" departLane="free"/>
  <flow id="JF366458" begin="120" fromJunction="J7" toJunction="J5" end="180" vehsPerHour="20.778665116635427" departLane="free"/>
  <flow id="JF366459" begin="180" fromJunction="J0" toJunction="J4" end="240" vehsPerHour="378.2362007328067" departLane="free"/>
  <flow id="JF366460" begin="180" fromJunction="J0" toJunction="J5" end="240" vehsPerHour="94.01684941682635" departLane="free"/>
  <flow id="JF366461" begin="180" fromJunction="J0" toJunction="J6" end="240" vehsPerHour="549.5691828016719" departLane="free"/>
  <flow id="JF366462" begin="180" fromJunction="J3" toJunction="J5" end="240" vehsPerHour="504.70679807507645" departLane="free"/>
  <flow id="JF366463" begin="180" fromJunction="J3" toJunction="J7" end="240" vehsPerHour="211.0299079408473" departLane="free"/>
  <flow id="JF366464" begin="180" fromJunction="J4" toJunction="J0" end="240" vehsPerHour="182.6734993049279" departLane="free"/>
  <flow id="JF366465" begin="180" fromJunction="J4" toJunction="J3" end="240" vehsPerHour="158.24550595709107" departLane="free"/>
  <flow id="JF366466" begin="180" fromJunction="J4" toJunction="J5" end="240" vehsPerHour="62.4340871848722" departLane="free"/>
  <flow id="JF366467" begin="180" fromJunction="J4" toJunction="J6" end="240" vehsPerHour="228.58144492234405" departLane="free"/>
  <flow id="JF366468" begin="180" fromJunction="J5" toJunction="J0" end="240" vehsPerHour="121.24380775934988" departLane="free"/>
  <flow id="JF366469" begin="180" fromJunction="J5" toJunction="J3" end="240" vehsPerHour="100.04863874479378" departLane="free"/>
  <flow id="JF366470" begin="180" fromJunction="J5" toJunction="J6" end="240" vehsPerHour="46.78978678082855" departLane="free"/>
  <flow id="JF366471" begin="180" fromJunction="J5" toJunction="J7" end="240" vehsPerHour="129.27168717909836" departLane="free"/>
  <flow id="JF366472" begin="180" fromJunction="J6" toJunction="J0" end="240" vehsPerHour="159.1294950677847" departLane="free"/>
  <flow id="JF366473" begin="180" fromJunction="J6" toJunction="J3" end="240" vehsPerHour="65.54111923709692" departLane="free"/>
  <flow id="JF366474" begin="180" fromJunction="J6" toJunction="J7" end="240" vehsPerHour="223.4534917347046" departLane="free"/>
  <flow id="JF366475" begin="180" fromJunction="J7" toJunction="J5" end="240" vehsPerHour="66.1819077690401" departLane="free"/>
  <flow id="JF366476" begin="180" fromJunction="J7" toJunction="J6" end="240" vehsPerHour="92.32978387702781" departLane="free"/>
  <flow id="JF366477" begin="240" fromJunction="J0" toJunction="J3" end="300" vehsPerHour="49.0554758048963" departLane="free"/>
  <flow id="JF366478" begin="240" fromJunction="J0" toJunction="J4" end="300" vehsPerHour="259.2519519505118" departLane="free"/>
  <flow id="JF366479" begin="240" fromJunction="J0" toJunction="J6" end="300" vehsPerHour="174.39458863729146" departLane="free"/>
  <flow id="JF366480" begin="240" fromJunction="J0" toJunction="J7" end="300" vehsPerHour="248.82994983389588" departLane="free"/>
  <flow id="JF366481" begin="240" fromJunction="J3" toJunction="J0" end="300" vehsPerHour="492.25166769643357" departLane="free"/>
  <flow id="JF366482" begin="240" fromJunction="J3" toJunction="J5" end="300" vehsPerHour="459.6419499873393" departLane="free"/>
  <flow id="JF366483" begin="240" fromJunction="J3" toJunction="J7" end="300" vehsPerHour="547.9688363764552" departLane="free"/>
  <flow id="JF366484" begin="240" fromJunction="J4" toJunction="J0" end="300" vehsPerHour="18.319729054841726" departLane="free"/>
  <flow id="JF366485" begin="240" fromJunction="J4" toJunction="J3" end="300" vehsPerHour="271.60050943808267" departLane="free"/>
  <flow id="JF366486" begin="240" fromJunction="J4" toJunction="J5" end="300" vehsPerHour="211.60378443142176" departLane="free"/>
  <flow id="JF366487" begin="240" fromJunction="J4" toJunction="J6" end="300" vehsPerHour="120.14172969071561" departLane="free"/>
  <flow id="JF366488" begin="240" fromJunction="J4" toJunction="J7" end="300" vehsPerHour="204.21636657561976" departLane="free"/>
  <flow id="JF366489" begin="240" fromJunction="J5" toJunction="J3" end="300" vehsPerHour="83.22364314820705" departLane="free"/>
  <flow id="JF366490" begin="240" fromJunction="J5" toJunction="J6" end="300" vehsPerHour="235.08258935689187" departLane="free"/>
  <flow id="JF366491" begin="240" fromJunction="J5" toJunction="J7" end="300" vehsPerHour="24.820457790514055" departLane="free"/>
  <flow id="JF366492" begin="240" fromJunction="J6" toJunction="J0" end="300" vehsPerHour="226.1450228722737" departLane="free"/>
  <flow id="JF366493" begin="240" fromJunction="J6" toJunction="J3" end="300" vehsPerHour="237.10738747863886" departLane="free"/>
  <flow id="JF366494" begin="240" fromJunction="J6" toJunction="J4" end="300" vehsPerHour="72.6427808466997" departLane="free"/>
  <flow id="JF366495" begin="240" fromJunction="J6" toJunction="J5" end="300" vehsPerHour="144.17728906611646" departLane="free"/>
  <flow id="JF366496" begin="240" fromJunction="J6" toJunction="J7" end="300" vehsPerHour="105.72462669174706" departLane="free"/>
  <flow id="JF366497" begin="240" fromJunction="J7" toJunction="J0" end="300" vehsPerHour="28.18380679591785" departLane="free"/>
  <flow id="JF366498" begin="240" fromJunction="J7" toJunction="J3" end="300" vehsPerHour="26.67892680361444" departLane="free"/>
  <flow id="JF366499" begin="240" fromJunction="J7" toJunction="J4" end="300" vehsPerHour="56.47389326825303" departLane="free"/>
  <flow id="JF366500" begin="240" fromJunction="J7" toJunction="J5" end="300" vehsPerHour="14.429413770768761" departLane="free"/>
  <flow id="JF366501" begin="300" fromJunction="J0" toJunction="J3" end="360" vehsPerHour="541.9873618514008" departLane="free"/>
  <flow id="JF366502" begin="300" fromJunction="J0" toJunction="J4" end="360" vehsPerHour="525.146435198175" departLane="free"/>
  <flow id="JF366503" begin="300" fromJunction="J0" toJunction="J5" end="360" vehsPerHour="284.46078010031204" departLane="free"/>
  <flow id="JF366504" begin="300" fromJunction="J0" toJunction="J6" end="360" vehsPerHour="518.4772263985883" departLane="free"/>
  <flow id="JF366505" begin="300" fromJunction="J3" toJunction="J0" end="360" vehsPerHour="89.8904814331581" departLane="free"/>
  <flow id="JF366506" begin="300" fromJunction="J3" toJunction="J4" end="360" vehsPerHour="410.2970388967062" departLane="free"/>
  <flow id="JF366507" begin="300" fromJunction="J3" toJunction="J5" end="360" vehsPerHour="514.4572359573904" departLane="free"/>
  <flow id="JF366508" begin="300" fromJunction="J4" toJunction="J0" end="360" vehsPerHour="270.1108659961797" departLane="free"/>
  <flow id="JF366509" begin="300" fromJunction="J4" toJunction="J3" end="360" vehsPerHour="75.27169721023112" departLane="free"/>
  <flow id="JF366510" begin="300" fromJunction="J4" toJunction="J6" end="360" vehsPerHour="150.50161523009638" departLane="free"/>
  <flow id="JF366511" begin="300" fromJunction="J4" toJunction="J7" end="360" vehsPerHour="143.64320775649813" departLane="free"/>
  <flow id="JF366512" begin="300" fromJunction="J5" toJunction="J0" end="360" vehsPerHour="240.13731760001477" departLane="free"/>
  <flow id="JF366513" begin="300" fromJunction="J5" toJunction="J3" end="360" vehsPerHour="179.19231501891082" departLane="free"/>
  <flow id="JF366514" begin="300" fromJunction="J5" toJunction="J6" end="360" vehsPerHour="137.4261656504102" departLane="free"/>
  <flow id="JF366515" begin="300" fromJunction="J5" toJunction="J7" end="360" vehsPerHour="257.5318916417398" departLane="free"/>
  <flow id="JF366516" begin="300" fromJunction="J6" toJunction="J0" end="360" vehsPerHour="239.48733590543884" departLane="free"/>
  <flow id="JF366517" begin="300" fromJunction="J6" toJunction="J3" end="360" vehsPerHour="265.1474439935378" departLane="free"/>
  <flow id="JF366518" begin="300" fromJunction="J6" toJunction="J4" end="360" vehsPerHour="177.91260772423408" departLane="free"/>
  <flow id="JF366519" begin="300" fromJunction="J6" toJunction="J7" end="360" vehsPerHour="212.5371095578788" departLane="free"/>
  <flow id="JF366520" begin="300" fromJunction="J7" toJunction="J0" end="360" vehsPerHour="140.88899363452626" departLane="free"/>
  <flow id="JF366521" begin="300" fromJunction="J7" toJunction="J4" end="360" vehsPerHour="142.67471055043993" departLane="free"/>
  <flow id="JF366522" begin="300" fromJunction="J7" toJunction="J5" end="360" vehsPerHour="232.80038908985628" departLane="free"/>
  <flow id="JF366523" begin="300" fromJunction="J7" toJunction="J6" end="360" vehsPerHour="171.74929669584577" departLane="free"/>
  <flow id="JF366524" begin="360" fromJunction="J0" toJunction="J3" end="420" vehsPerHour="406.79503908983685" departLane="free"/>
  <flow id="JF366525" begin="360" fromJunction="J0" toJunction="J4" end="420" vehsPerHour="326.6981692853421" departLane="free"/>
  <flow id="JF366526" begin="360" fromJunction="J0" toJunction="J6" end="420" vehsPerHour="0.08576636611198518" departLane="free"/>
  <flow id="JF366527" begin="360" fromJunction="J3" toJunction="J0" end="420" vehsPerHour="47.522842814514014" departLane="free"/>
  <flow id="JF366528" begin="360" fromJunction="J3" toJunction="J5" end="420" vehsPerHour="347.24001968778254" departLane="free"/>
  <flow id="JF366529" begin="360" fromJunction="J3" toJunction="J6" end="420" vehsPerHour="92.39745849376197" departLane="free"/>
  <flow id="JF366530" begin="360" fromJunction="J4" toJunction="J5" end="420" vehsPerHour="231.2286915322655" departLane="free"/>
  <flow id="JF366531" begin="360" fromJunction="J4" toJunction="J7" end="420" vehsPerHour="38.14480942809481" departLane="free"/>
  <flow id="JF366532" begin="360" fromJunction="J5" toJunction="J0" end="420" vehsPerHour="88.86065619897334" departLane="free"/>
  <flow id="JF366533" begin="360" fromJunction="J5" toJunction="J6" end="420" vehsPerHour="103.00863741477419" departLane="free"/>
  <flow id="JF366534" begin="360" fromJunction="J5" toJunction="J7" end="420" vehsPerHour="34.94326581129082" departLane="free"/>
  <flow id="JF366535" begin="360" fromJunction="J6" toJunction="J0" end="420" vehsPerHour="142.0343105719244" departLane="free"/>
  <flow id="JF366536" begin="360" fromJunction="J6" toJunction="J3" end="420" vehsPerHour="242.8489916714257" departLane="free"/>
  <flow id="JF366537" begin="360" fromJunction="J6" toJunction="J5" end="420" vehsPerHour="117.68132558849489" departLane="free"/>
  <flow id="JF366538" begin="360" fromJunction="J6" toJunction="J7" end="420" vehsPerHour="66.79107117746342" departLane="free"/>
  <flow id="JF366539" begin="360" fromJunction="J7" toJunction="J0" end="420" vehsPerHour="126.12738498587368" departLane="free"/>
  <flow id="JF366540" begin="360" fromJunction="J7" toJunction="J4" end="420" vehsPerHour="61.243771327114615" departLane="free"/>
  <flow id="JF366541" begin="360" fromJunction="J7" toJunction="J5" end="420" vehsPerHour="59.66325417473024" departLane="free"/>
  <flow id="JF366542" begin="360" fromJunction="J7" toJunction="J6" end="420" vehsPerHour="3.350204306137832" departLane="free"/>
  <flow id="JF366543" begin="420" fromJunction="J0" toJunction="J4" end="480" vehsPerHour="210.85444727678092" departLane="free"/>
  <flow id="JF366544" begin="420" fromJunction="J3" toJunction="J0" end="480" vehsPerHour="328.6639697487023" departLane="free"/>
  <flow id="JF366545" begin="420" fromJunction="J3" toJunction="J4" end="480" vehsPerHour="487.23416191747384" departLane="free"/>
  <flow id="JF366546" begin="420" fromJunction="J3" toJunction="J7" end="480" vehsPerHour="30.881267487970263" departLane="free"/>
  <flow id="JF366547" begin="420" fromJunction="J4" toJunction="J0" end="480" vehsPerHour="11.322677469354957" departLane="free"/>
  <flow id="JF366548" begin="420" fromJunction="J4" toJunction="J3" end="480" vehsPerHour="37.87495103907586" departLane="free"/>
  <flow id="JF366549" begin="420" fromJunction="J4" toJunction="J5" end="480" vehsPerHour="160.0185230687183" departLane="free"/>
  <flow id="JF366550" begin="420" fromJunction="J4" toJunction="J6" end="480" vehsPerHour="28.32023723305469" departLane="free"/>
  <flow id="JF366551" begin="420" fromJunction="J4" toJunction="J7" end="480" vehsPerHour="223.85808024558017" departLane="free"/>
  <flow id="JF366552" begin="420" fromJunction="J5" toJunction="J0" end="480" vehsPerHour="66.37280493305632" departLane="free"/>
  <flow id="JF366553" begin="420" fromJunction="J5" toJunction="J3" end="480" vehsPerHour="132.02769860256154" departLane="free"/>
  <flow id="JF366554" begin="420" fromJunction="J5" toJunction="J4" end="480" vehsPerHour="77.16934170173113" departLane="free"/>
  <flow id="JF366555" begin="420" fromJunction="J5" toJunction="J6" end="480" vehsPerHour="197.1831900773835" departLane="free"/>
  <flow id="JF366556" begin="420" fromJunction="J5" toJunction="J7" end="480" vehsPerHour="63.12414595789633" departLane="free"/>
  <flow id="JF366557" begin="420" fromJunction="J6" toJunction="J3" end="480" vehsPerHour="51.280964732552455" departLane="free"/>
  <flow id="JF366558" begin="420" fromJunction="J6" toJunction="J4" end="480" vehsPerHour="207.05306093792382" departLane="free"/>
  <flow id="JF366559" begin="420" fromJunction="J6" toJunction="J7" end="480" vehsPerHour="236.10164971830113" departLane="free"/>
  <flow id="JF366560" begin="420" fromJunction="J7" toJunction="J0" end="480" vehsPerHour="185.7551918328747" departLane="free"/>
  <flow id="JF366561" begin="420" fromJunction="J7" toJunction="J3" end="480" vehsPerHour="219.68167540912708" departLane="free"/>
  <flow id="JF366562" begin="420" fromJunction="J7" toJunction="J4" end="480" vehsPerHour="110.75970069273595" departLane="free"/>
  <flow id="JF366563" begin="420" fromJunction="J7" toJunction="J5" end="480" vehsPerHour="195.491398952132" departLane="free"/>
  <flow id="JF366564" begin="420" fromJunction="J7" toJunction="J6" end="480" vehsPerHour="143.30958682942008" departLane="free"/>
  <flow id="JF366565" begin="480" fromJunction="J0" toJunction="J3" end="540" vehsPerHour="11.87056471331972" departLane="free"/>
  <flow id="JF366566" begin="480" fromJunction="J0" toJunction="J4" end="540" vehsPerHour="137.65576002320142" departLane="free"/>
  <flow id="JF366567" begin="480" fromJunction="J0" toJunction="J5" end="540" vehsPerHour="246.42854740812646" departLane="free"/>
  <flow id="JF366568" begin="480" fromJunction="J0" toJunction="J6" end="540" vehsPerHour="279.5120437221987" departLane="free"/>
  <flow id="JF366569" begin="480" fromJunction="J0" toJunction="J7" end="540" vehsPerHour="205.048170880311" departLane="free"/>
  <flow id="JF366570" begin="480" fromJunction="J3" toJunction="J4" end="540" vehsPerHour="423.4660040667927" departLane="free"/>
  <flow id="JF366571" begin="480" fromJunction="J3" toJunction="J6" end="540" vehsPerHour="243.56871860679217" departLane="free"/>
  <flow id="JF366572" begin="480" fromJunction="J3" toJunction="J7" end="540" vehsPerHour="537.4270102352622" departLane="free"/>
  <flow id="JF366573" begin="480" fromJunction="J4" toJunction="J0" end="540" vehsPerHour="66.5272500680339" departLane="free"/>
  <flow id="JF366574" begin="480" fromJunction="J4" toJunction="J3" end="540" vehsPerHour="80.77869070428764" departLane="free"/>
  <flow id="JF366575" begin="480" fromJunction="J4" toJunction="J5" end="540" vehsPerHour="249.99988167423464" departLane="free"/>
  <flow id="JF366576" begin="480" fromJunction="J4" toJunction="J6" end="540" vehsPerHour="68.99708375918166" departLane="free"/>
  <flow id="JF366577" begin="480" fromJunction="J4" toJunction="J7" end="540" vehsPerHour="198.2915473664809" departLane="free"/>
  <flow id="JF366578" begin="480" fromJunction="J5" toJunction="J4" end="540" vehsPerHour="139.96643810034286" departLane="free"/>
  <flow id="JF366579" begin="480" fromJunction="J5" toJunction="J6" end="540" vehsPerHour="190.7292792640812" departLane="free"/>
  <flow id="JF366580" begin="480" fromJunction="J5" toJunction="J7" end="540" vehsPerHour="10.230225577671353" departLane="free"/>
  <flow id="JF366581" begin="480" fromJunction="J6" toJunction="J3" end="540" vehsPerHour="202.05776828032398" departLane="free"/>
  <flow id="JF366582" begin="480" fromJunction="J6" toJunction="J4" end="540" vehsPerHour="162.75042207638424" departLane="free"/>
  <flow id="JF366583" begin="480" fromJunction="J7" toJunction="J0" end="540" vehsPerHour="254.2348759573152" departLane="free"/>
  <flow id="JF366584" begin="480" fromJunction="J7" toJunction="J3" end="540" vehsPerHour="140.78491468479774" departLane="free"/>
  <flow id="JF366585" begin="480" fromJunction="J7" toJunction="J4" end="540" vehsPerHour="36.57160613907155" departLane="free"/>
  <flow id="JF366586" begin="480" fromJunction="J7" toJunction="J5" end="540" vehsPerHour="47.339505365311865" departLane="free"/>
  <flow id="JF366587" begin="480" fromJunction="J7" toJunction="J6" end="540" vehsPerHour="183.02313150784724" departLane="free"/>
  <flow id="JF366588" begin="540" fromJunction="J0" toJunction="J3" end="600" vehsPerHour="439.8446377979061" departLane="free"/>
  <flow id="JF366589" begin="540" fromJunction="J0" toJunction="J5" end="600" vehsPerHour="232.41451143582827" departLane="free"/>
  <flow id="JF366590" begin="540" fromJunction="J0" toJunction="J6" end="600" vehsPerHour="470.742563534136" departLane="free"/>
  <flow id="JF366591" begin="540" fromJunction="J0" toJunction="J7" end="600" vehsPerHour="286.9564027071767" departLane="free"/>
  <flow id="JF366592" begin="540" fromJunction="J3" toJunction="J6" end="600" vehsPerHour="428.10863417523143" departLane="free"/>
  <flow id="JF366593" begin="540" fromJunction="J3" toJunction="J7" end="600" vehsPerHour="290.3695617664202" departLane="free"/>
  <flow id="JF366594" begin="540" fromJunction="J4" toJunction="J3" end="600" vehsPerHour="71.27851447252333" departLane="free"/>
  <flow id="JF366595" begin="540" fromJunction="J4" toJunction="J5" end="600" vehsPerHour="270.4032374532709" departLane="free"/>
  <flow id="JF366596" begin="540" fromJunction="J4" toJunction="J6" end="600" vehsPerHour="237.94324304766087" departLane="free"/>
  <flow id="JF366597" begin="540" fromJunction="J4" toJunction="J7" end="600" vehsPerHour="133.7014467243174" departLane="free"/>
  <flow id="JF366598" begin="540" fromJunction="J5" toJunction="J0" end="600" vehsPerHour="198.50469851232754" departLane="free"/>
  <flow id="JF366599" begin="540" fromJunction="J5" toJunction="J3" end="600" vehsPerHour="142.07539481288669" departLane="free"/>
  <flow id="JF366600" begin="540" fromJunction="J5" toJunction="J4" end="600" vehsPerHour="202.42596921654467" departLane="free"/>
  <flow id="JF366601" begin="540" fromJunction="J5" toJunction="J6" end="600" vehsPerHour="90.27449956113576" departLane="free"/>
  <flow id="JF366602" begin="540" fromJunction="J5" toJunction="J7" end="600" vehsPerHour="64.05115697363424" departLane="free"/>
  <flow id="JF366603" begin="540" fromJunction="J6" toJunction="J0" end="600" vehsPerHour="215.78102710198837" departLane="free"/>
  <flow id="JF366604" begin="540" fromJunction="J6" toJunction="J3" end="600" vehsPerHour="59.358345342763585" departLane="free"/>
  <flow id="JF366605" begin="540" fromJunction="J6" toJunction="J4" end="600" vehsPerHour="134.5843401363889" departLane="free"/>
  <flow id="JF366606" begin="540" fromJunction="J6" toJunction="J5" end="600" vehsPerHour="219.30896180805325" departLane="free"/>
  <flow id="JF366607" begin="540" fromJunction="J6" toJunction="J7" end="600" vehsPerHour="120.4319423458888" departLane="free"/>
  <flow id="JF366608" begin="540" fromJunction="J7" toJunction="J3" end="600" vehsPerHour="153.66583154776833" departLane="free"/>
  <flow id="JF366609" begin="540" fromJunction="J7" toJunction="J5" end="600" vehsPerHour="122.24264983959915" departLane="free"/>
  <flow id="JF366610" begin="600" fromJunction="J0" toJunction="J4" end="660" vehsPerHour="389.60401856676486" departLane="free"/>
  <flow id="JF366611" begin="600" fromJunction="J0" toJunction="J5" end="660" vehsPerHour="456.69133208546265" departLane="free"/>
  <flow id="JF366612" begin="600" fromJunction="J0" toJunction="J6" end="660" vehsPerHour="325.7305143449268" departLane="free"/>
  <flow id="JF366613" begin="600" fromJunction="J0" toJunction="J7" end="660" vehsPerHour="307.119719998372" departLane="free"/>
  <flow id="JF366614" begin="600" fromJunction="J3" toJunction="J4" end="660" vehsPerHour="539.0428166712487" departLane="free"/>
  <flow id="JF366615" begin="600" fromJunction="J3" toJunction="J6" end="660" vehsPerHour="344.98405885131444" departLane="free"/>
  <flow id="JF366616" begin="600" fromJunction="J4" toJunction="J0" end="660" vehsPerHour="161.70642503719907" departLane="free"/>
  <flow id="JF366617" begin="600" fromJunction="J4" toJunction="J3" end="660" vehsPerHour="63.34004668437915" departLane="free"/>
  <flow id="JF366618" begin="600" fromJunction="J4" toJunction="J5" end="660" vehsPerHour="73.0303316177655" departLane="free"/>
  <flow id="JF366619" begin="600" fromJunction="J4" toJunction="J6" end="660" vehsPerHour="102.35160882790576" departLane="free"/>
  <flow id="JF366620" begin="600" fromJunction="J4" toJunction="J7" end="660" vehsPerHour="216.55550323248448" departLane="free"/>