<?xml version="1.0" encoding="UTF-8"?>
<routes xmlns:xsi="http://www.w3.org/2001/XMLSchema-instance" xsi:noNamespaceSchemaLocation="http://sumo.dlr.de/xsd/routes_file.xsd">
  <flow id="JF371723" begin="0" fromJunction="J0" toJunction="J3" end="60" vehsPerHour="29.301620778654947" departLane="free"/>
  <flow id="JF371724" begin="0" fromJunction="J0" toJunction="J4" end="60" vehsPerHour="39.153369418272995" departLane="free"/>
  <flow id="JF371725" begin="0" fromJunction="J0" toJunction="J6" end="60" vehsPerHour="287.4487870005258" departLane="free"/>
  <flow id="JF371726" begin="0" fromJunction="J3" toJunction="J0" end="60" vehsPerHour="168.11548279568692" departLane="free"/>
  <flow id="JF371727" begin="0" fromJunction="J3" toJunction="J6" end="60" vehsPerHour="223.88533737521985" departLane="free"/>
  <flow id="JF371728" begin="0" fromJunction="J3" toJunction="J7" end="60" vehsPerHour="220.054251864139" departLane="free"/>
  <flow id="JF371729" begin="0" fromJunction="J4" toJunction="J0" end="60" vehsPerHour="173.04334638241485" departLane="free"/>
  <flow id="JF371730" begin="0" fromJunction="J4" toJunction="J3" end="60" vehsPerHour="186.39889861688448" departLane="free"/>
  <flow id="JF371731" begin="0" fromJunction="J4" toJunction="J5" end="60" vehsPerHour="124.01120709036616" departLane="free"/>
  <flow id="JF371732" begin="0" fromJunction="J4" toJunction="J6" end="60" vehsPerHour="204.60526476898045" departLane="free"/>
  <flow id="JF371733" begin="0" fromJunction="J4" toJunction="J7" end="60" vehsPerHour="74.80163394632184" departLane="free"/>
  <flow id="JF371734" begin="0" fromJunction="J5" toJunction="J0" end="60" vehsPerHour="201.09311366470578" departLane="free"/>
  <flow id="JF371735" begin="0" fromJunction="J5" toJunction="J3" end="60" vehsPerHour="173.31813017631052" departLane="free"/>
  <flow id="JF371736" begin="0" fromJunction="J5" toJunction="J6" end="60" vehsPerHour="140.01178340502747" departLane="free"/>
  <flow id="JF371737" begin="0" fromJunction="J5" toJunction="J7" end="60" vehsPerHour="147.52380418253549" departLane="free"/>
  <flow id="JF371738" begin="0" fromJunction="J6" toJunction="J0" end="60" vehsPerHour="273.4184706406785" departLane="free"/>
  <flow id="JF371739" begin="0" fromJunction="J6" toJunction="J3" end="60" vehsPerHour="55.27908822976871" departLane="free"/>
  <flow id="JF371740" begin="0" fromJunction="J6" toJunction="J4" end="60" vehsPerHour="171.515653200648" departLane="free"/>
  <flow id="JF371741" begin="0" fromJunction="J6" toJunction="J7" end="60" vehsPerHour="61.35744551732056" departLane="free"/>
  <flow id="JF371742" begin="0" fromJunction="J7" toJunction="J0" end="60" vehsPerHour="262.9838460430743" departLane="free"/>
  <flow id="JF371743" begin="0" fromJunction="J7" toJunction="J3" end="60" vehsPerHour="85.62573651434403" departLane="free"/>
  <flow id="JF371744" begin="0" fromJunction="J7" toJunction="J4" end="60" vehsPerHour="99.35170208511643" departLane="free"/>
  <flow id="JF371745" begin="0" fromJunction="J7" toJunction="J5" end="60" vehsPerHour="228.37665179141888" departLane="free"/>
  <flow id="JF371746" begin="0" fromJunction="J7" toJunction="J6" end="60" vehsPerHour="12.012773898705655" departLane="free"/>
  <flow id="JF371747" begin="60" fromJunction="J0" toJunction="J3" end="120" vehsPerHour="351.0517842923883" departLane="free"/>
  <flow id="JF371748" begin="60" fromJunction="J0" toJunction="J4" end="120" vehsPerHour="277.7303247099513" departLane="free"/>
  <flow id="JF371749" begin="60" fromJunction="J0" toJunction="J6" end="120" vehsPerHour="513.8771955230576" departLane="free"/>
  <flow id="JF371750" begin="60" fromJunction="J0" toJunction="J7" end="120" vehsPerHour="80.85304808085904" departLane="free"/>
  <flow id="JF371751" begin="60" fromJunction="J3" toJunction="J0" end="120" vehsPerHour="20.34587621490374" departLane="free"/>
  <flow id="JF371752" begin="60" fromJunction="J3" toJunction="J6" end="120" vehsPerHour="376.2512884093604" departLane="free"/>
  <flow id="JF371753" begin="60" fromJunction="J4" toJunction="J0" end="120" vehsPerHour="137.56120552323057" departLane="free"/>
  <flow id="JF371754" begin="60" fromJunction="J4" toJunction="J3" end="120" vehsPerHour="203.7255828123195" departLane="free"/>
  <flow id="JF371755" begin="60" fromJunction="J4" toJunction="J7" end="120" vehsPerHour="89.18095869279811" departLane="free"/>
  <flow id="JF371756" begin="60" fromJunction="J5" toJunction="J3" end="120" vehsPerHour="135.71734319470994" departLane="free"/>
  <flow id="JF371757" begin="60" fromJunction="J5" toJunction="J6" end="120" vehsPerHour="251.57729762170058" departLane="free"/>
  <flow id="JF371758" begin="60" fromJunction="J5" toJunction="J7" end="120" vehsPerHour="138.61803806341922" departLane="free"/>
  <flow id="JF371759" begin="60" fromJunction="J6" toJunction="J0" end="120" vehsPerHour="73.43003219996683" departLane="free"/>
  <flow id="JF371760" begin="60" fromJunction="J6" toJunction="J3" end="120" vehsPerHour="77.77830281939237" departLane="free"/>
  <flow id="JF371761" begin="60" fromJunction="J6" toJunction="J4" end="120" vehsPerHour="130.51583910850312" departLane="free"/>
  <flow id="JF371762" begin="60" fromJunction="J7" toJunction="J3" end="120" vehsPerHour="151.9696310787375" departLane="free"/>
  <flow id="JF371763" begin="60" fromJunction="J7" toJunction="J4" end="120" vehsPerHour="88.91776773610434" departLane="free"/>
  <flow id="JF371764" begin="60" fromJunction="J7" toJunction="J6" end="120" vehsPerHour="116.35001777153572" departLane="free"/>
  <flow id="JF371765" begin="120" fromJunction="J0" toJunction="J3" end="180" vehsPerHour="539.271373848598" departLane="free"/>
  <flow id="JF371766" begin="120" fromJunction="J0" toJunction="J4" end="180" vehsPerHour="422.2819266890456" departLane="free"/>
  <flow id="JF371767" begin="120" fromJunction="J0" toJunction="J5" end="180" vehsPerHour="88.45590381437154" departLane="free"/>
  <flow id="JF371768" begin="120" fromJunction="J0" toJunction="J6" end="180" vehsPerHour="316.6007612275253" departLane="free"/>
  <flow id="JF371769" begin="120" fromJunction="J0" toJunction="J7" end="180" vehsPerHour="155.73180228751602" departLane="free"/>
  <flow id="JF371770" begin="120" fromJunction="J3" toJunction="J0" end="180" vehsPerHour="319.4074758866111" departLane="free"/>
  <flow id="JF371771" begin="120" fromJunction="J3" toJunction="J4" end="180" vehsPerHour="327.46831044701844" departLane="free"/>
  <flow id="JF371772" begin="120" fromJunction="J3" toJunction="J6" end="180" vehsPerHour="380.5237800502209" departLane="free"/>
  <flow id="JF371773" begin="120" fromJunction="J3" toJunction="J7" end="180" vehsPerHour="502.3726026242594" departLane="free"/>
  <flow id="JF371774" begin="120" fromJunction="J4" toJunction="J3" end="180" vehsPerHour="95.38149746527395" departLane="free"/>
  <flow id="JF371775" begin="120" fromJunction="J4" toJunction="J5" end="180" vehsPerHour="52.10374587363449" departLane="free"/>
  <flow id="JF371776" begin="120" fromJunction="J4" toJunction="J6" end="180" vehsPerHour="53.788331547724994" departLane="free"/>
  <flow id="JF371777" begin="120" fromJunction="J4" toJunction="J7" end="180" vehsPerHour="77.12445924461895" departLane="free"/>
  <flow id="JF371778" begin="120" fromJunction="J5" toJunction="J0" end="180" vehsPerHour="123.35399319009926" departLane="free"/>
  <flow id="JF371779" begin="120" fromJunction="J5" toJunction="J3" end="180" vehsPerHour="254.58584751596587" departLane="free"/>
  <flow id="JF371780" begin="120" fromJunction="J5" toJunction="J6" end="180" vehsPerHour="264.66698881988947" departLane="free"/>
  <flow id="JF371781" begin="120" fromJunction="J6" toJunction="J0" end="180" vehsPerHour="240.19341824416117" departLane="free"/>
  <flow id="JF371782" begin="120" fromJunction="J6" toJunction="J5" end="180" vehsPerHour="127.22950709736435" departLane="free"/>
  <flow id="JF371783" begin="120" fromJunction="J7" toJunction="J3" end="180" vehsPerHour="46.290864104959375" departLane="free"/>
  <flow id="JF371784" begin="120" fromJunction="J7" toJunction="J5" end="180" vehsPerHour="272.95766551299977" departLane="free"/>
  <flow id="JF371785" begin="120" fromJunction="J7" toJunction="J6" end="180" vehsPerHour="269.22776315328343" departLane="free"/>
  <flow id="JF371786" begin="180" fromJunction="J0" toJunction="J3" end="240" vehsPerHour="247.97170246841162" departLane="free"/>
  <flow id="JF371787" begin="180" fromJunction="J0" toJunction="J5" end="240" vehsPerHour="272.14560646367346" departLane="free"/>
  <flow id="JF371788" begin="180" fromJunction="J0" toJunction="J6" end="240" vehsPerHour="136.38464708522727" departLane="free"/>
  <flow id="JF371789" begin="180" fromJunction="J0" toJunction="J7" end="240" vehsPerHour="20.578939046049694" departLane="free"/>
  <flow id="JF371790" begin="180" fromJunction="J3" toJunction="J0" end="240" vehsPerHour="303.5858746882593" departLane="free"/>
  <flow id="JF371791" begin="180" fromJunction="J3" toJunction="J5" end="240" vehsPerHour="83.95061466600383" departLane="free"/>
  <flow id="JF371792" begin="180" fromJunction="J3" toJunction="J6" end="240" vehsPerHour="43.16988057068341" departLane="free"/>
  <flow id="JF371793" begin="180" fromJunction="J3" toJunction="J7" end="240" vehsPerHour="82.2335531904901" departLane="free"/>
  <flow id="JF371794" begin="180" fromJunction="J4" toJunction="J0" end="240" vehsPerHour="115.10070779457641" departLane="free"/>
  <flow id="JF371795" begin="180" fromJunction="J4" toJunction="J3" end="240" vehsPerHour="254.2971842689032" departLane="free"/>
  <flow id="JF371796" begin="180" fromJunction="J4" toJunction="J5" end="240" vehsPerHour="150.95472905857793" departLane="free"/>
  <flow id="JF371797" begin="180" fromJunction="J4" toJunction="J6" end="240" vehsPerHour="91.90742638609535" departLane="free"/>
  <flow id="JF371798" begin="180" fromJunction="J4" toJunction="J7" end="240" vehsPerHour="81.74685716863878" departLane="free"/>
  <flow id="JF371799" begin="180" fromJunction="J5" toJunction="J0" end="240" vehsPerHour="205.36419738540144" departLane="free"/>
  <flow id="JF371800" begin="180" fromJunction="J5" toJunction="J3" end="240" vehsPerHour="26.490121124153468" departLane="free"/>
  <flow id="JF371801" begin="180" fromJunction="J5" toJunction="J4" end="240" vehsPerHour="235.40120076945848" departLane="free"/>
  <flow id="JF371802" begin="180" fromJunction="J6" toJunction="J0" end="240" vehsPerHour="195.15169539134675" departLane="free"/>
  <flow id="JF371803" begin="180" fromJunction="J6" toJunction="J4" end="240" vehsPerHour="165.92164868733926" departLane="free"/>
  <flow id="JF371804" begin="180" fromJunction="J6" toJunction="J7" end="240" vehsPerHour="44.41977982063033" departLane="free"/>
  <flow id="JF371805" begin="180" fromJunction="J7" toJunction="J0" end="240" vehsPerHour="72.66019143460339" departLane="free"/>
  <flow id="JF371806" begin="180" fromJunction="J7" toJunction="J3" end="240" vehsPerHour="5.980957035592373" departLane="free"/>
  <flow id="JF371807" begin="180" fromJunction="J7" toJunction="J4" end="240" vehsPerHour="105.77588124556931" departLane="free"/>
  <flow id="JF371808" begin="180" fromJunction="J7" toJunction="J5" end="240" vehsPerHour="118.46632585219616" departLane="free"/>
  <flow id="JF371809" begin="240" fromJunction="J0" toJunction="J4" end="300" vehsPerHour="374.9462978895213" departLane="free"/>
  <flow id="JF371810" begin="240" fromJunction="J0" toJunction="J5" end="300" vehsPerHour="55.627321396344755" departLane="free"/>
  <flow id="JF371811" begin="240" fromJunction="J0" toJunction="J6" end="300" vehsPerHour="20.447475371598006" departLane="free"/>
  <flow id="JF371812" begin="240" fromJunction="J3" toJunction="J4" end="300" vehsPerHour="519.4585582112529" departLane="free"/>
  <flow id="JF371813" begin="240" fromJunction="J3" toJunction="J5" end="300" vehsPerHour="256.35048596318495" departLane="free"/>
  <flow id="JF371814" begin="240" fromJunction="J3" toJunction="J7" end="300" vehsPerHour="507.0319998629648" departLane="free"/>
  <flow id="JF371815" begin="240" fromJunction="J4" toJunction="J0" end="300" vehsPerHour="260.8801534794152" departLane="free"/>
  <flow id="JF371816" begin="240" fromJunction="J4" toJunction="J3" end="300" vehsPerHour="171.42500016459198" departLane="free"/>
  <flow id="JF371817" begin="240" fromJunction="J4" toJunction="J5" end="300" vehsPerHour="262.94533592356333" departLane="free"/>
  <flow id="JF371818" begin="240" fromJunction="J4" toJunction="J6" end="300" vehsPerHour="150.9125411177833" departLane="free"/>
  <flow id="JF371819" begin="240" fromJunction="J4" toJunction="J7" end="300" vehsPerHour="143.60626199241506" departLane="free"/>
  <flow id="JF371820" begin="240" fromJunction="J5" toJunction="J0" end="300" vehsPerHour="209.83162464806907" departLane="free"/>
  <flow id="JF371821" begin="240" fromJunction="J5" toJunction="J3" end="300" vehsPerHour="185.7144265422663" departLane="free"/>
  <flow id="JF371822" begin="240" fromJunction="J5" toJunction="J4" end="300" vehsPerHour="163.556765628697" departLane="free"/>
  <flow id="JF371823" begin="240" fromJunction="J5" toJunction="J7" end="300" vehsPerHour="91.54166336951566" departLane="free"/>
  <flow id="JF371824" begin="240" fromJunction="J6" toJunction="J0" end="300" vehsPerHour="136.9662388600331" departLane="free"/>
  <flow id="JF371825" begin="240" fromJunction="J6" toJunction="J4" end="300" vehsPerHour="129.6226217133925" departLane="free"/>
  <flow id="JF371826" begin="240" fromJunction="J6" toJunction="J5" end="300" vehsPerHour="92.92159292963579" departLane="free"/>
  <flow id="JF371827" begin="240" fromJunction="J6" toJunction="J7" end="300" vehsPerHour="93.45405486052225" departLane="free"/>
  <flow id="JF371828" begin="240" fromJunction="J7" toJunction="J0" end="300" vehsPerHour="94.70080039555684" departLane="free"/>
  <flow id="JF371829" begin="240" fromJunction="J7" toJunction="J4" end="300" vehsPerHour="83.9392569785065" departLane="free"/>
  <flow id="JF371830" begin="240" fromJunction="J7" toJunction="J5" end="300" vehsPerHour="49.24671002562033" departLane="free"/>
  <flow id="JF371831" begin="240" fromJunction="J7" toJunction="J6" end="300" vehsPerHour="263.98914658095555" departLane="free"/>
  <flow id="JF371832" begin="300" fromJunction="J0" toJunction="J3" end="360" vehsPerHour="222.06063561267695" departLane="free"/>
  <flow id="JF371833" begin="300" fromJunction="J0" toJunction="J5" end="360" vehsPerHour="462.76597776786934" departLane="free"/>
  <flow id="JF371834" begin="300" fromJunction="J0" toJunction="J6" end="360" vehsPerHour="138.04002178158683" departLane="free"/>
  <flow id="JF371835" begin="300" fromJunction="J3" toJunction="J4" end="360" vehsPerHour="441.0518052768592" departLane="free"/>
  <flow id="JF371836" begin="300" fromJunction="J3" toJunction="J5" end="360" vehsPerHour="219.17140953133548" departLane="free"/>
  <flow id="JF371837" begin="300" fromJunction="J3" toJunction="J7" end="360" vehsPerHour="261.33517548880553" departLane="free"/>
  <flow id="JF371838" begin="300" fromJunction="J4" toJunction="J0" end="360" vehsPerHour="249.65100494777462" departLane="free"/>
  <flow id="JF371839" begin="300" fromJunction="J4" toJunction="J3" end="360" vehsPerHour="127.1258928086793" departLane="free"/>
  <flow id="JF371840" begin="300" fromJunction="J4" toJunction="J7" end="360" vehsPerHour="153.81322134051302" departLane="free"/>
  <flow id="JF371841" begin="300" fromJunction="J5" toJunction="J0" end="360" vehsPerHour="24.372759466715575" departLane="free"/>
  <flow id="JF371842" begin="300" fromJunction="J5" toJunction="J3" end="360" vehsPerHour="10.427621471222988" departLane="free"/>
  <flow id="JF371843" begin="300" fromJunction="J5" toJunction="J4" end="360" vehsPerHour="178.33964967304237" departLane="free"/>
  <flow id="JF371844" begin="300" fromJunction="J5" toJunction="J7" end="360" vehsPerHour="48.27843301889242" departLane="free"/>
  <flow id="JF371845" begin="300" fromJunction="J6" toJunction="J0" end="360" vehsPerHour="199.30791552530846" departLane="free"/>
  <flow id="JF371846" begin="300" fromJunction="J6" toJunction="J3" end="360" vehsPerHour="110.82823641664376" departLane="free"/>
  <flow id="JF371847" begin="300" fromJunction="J6" toJunction="J4" end="360" vehsPerHour="19.06187945654483" departLane="free"/>
  <flow id="JF371848" begin="300" fromJunction="J6" toJunction="J5" end="360" vehsPerHour="273.074657223972" departLane="free"/>
  <flow id="JF371849" begin="300" fromJunction="J7" toJunction="J3" end="360" vehsPerHour="27.551645906621232" departLane="free"/>
  <flow id="JF371850" begin="300" fromJunction="J7" toJunction="J5" end="360" vehsPerHour="210.549898488519" departLane="free"/>
  <flow id="JF371851" begin="360" fromJunction="J0" toJunction="J3" end="420" vehsPerHour="464.7121570059506" departLane="free"/>
  <flow id="JF371852" begin="360" fromJunction="J0" toJunction="J4" end="420" vehsPerHour="506.23716326520923" departLane="free"/>
  <flow id="JF371853" begin="360" fromJunction="J0" toJunction="J5" end="420" vehsPerHour="491.4261802518023" departLane="free"/>
  <flow id="JF371854" begin="360" fromJunction="J0" toJunction="J6" end="420" vehsPerHour="1.946114416631384" departLane="free"/>
  <flow id="JF371855" begin="360" fromJunction="J3" toJunction="J0" end="420" vehsPerHour="5.511714016630868" departLane="free"/>
  <flow id="JF371856" begin="360" fromJunction="J3" toJunction="J4" end="420" vehsPerHour="492.3073390715081" departLane="free"/>
  <flow id="JF371857" begin="360" fromJunction="J3" toJunction="J5" end="420" vehsPerHour="490.2037861789279" departLane="free"/>
  <flow id="JF371858" begin="360" fromJunction="J3" toJunction="J6" end="420" vehsPerHour="426.66082273436865" departLane="free"/>
  <flow id="JF371859" begin="360" fromJunction="J4" toJunction="J0" end="420" vehsPerHour="98.93056790255254" departLane="free"/>
  <flow id="JF371860" begin="360" fromJunction="J4" toJunction="J3" end="420" vehsPerHour="202.67436710381975" departLane="free"/>
  <flow id="JF371861" begin="360" fromJunction="J5" toJunction="J3" end="420" vehsPerHour="196.5886861125328" departLane="free"/>
  <flow id="JF371862" begin="360" fromJunction="J5" toJunction="J6" end="420" vehsPerHour="197.56238384078563" departLane="free"/>
  <flow id="JF371863" begin="360" fromJunction="J5" toJunction="J7" end="420" vehsPerHour="15.441107588509839" departLane="free"/>
  <flow id="JF371864" begin="360" fromJunction="J6" toJunction="J3" end="420" vehsPerHour="163.1665476259993" departLane="free"/>
  <flow id="JF371865" begin="360" fromJunction="J6" toJunction="J4" end="420" vehsPerHour="99.52229950629817" departLane="free"/>
  <flow id="JF371866" begin="360" fromJunction="J6" toJunction="J7" end="420" vehsPerHour="192.22433505436317" departLane="free"/>
  <flow id="JF371867" begin="360" fromJunction="J7" toJunction="J0" end="420" vehsPerHour="28.321613286137588" departLane="free"/>
  <flow id="JF371868" begin="360" fromJunction="J7" toJunction="J3" end="420" vehsPerHour="22.579658592478378" departLane="free"/>
  <flow id="JF371869" begin="360" fromJunction="J7" toJunction="J4" end="420" vehsPerHour="109.56877526596821" departLane="free"/>
  <flow id="JF371870" begin="360" fromJunction="J7" toJunction="J5" end="420" vehsPerHour="13.880107115051487" departLane="free"/>
  <flow id="JF371871" begin="360" fromJunction="J7" toJunction="J6" end="420" vehsPerHour="257.9027837648372" departLane="free"/>
  <flow id="JF371872" begin="420" fromJunction="J0" toJunction="J3" end="480" vehsPerHour="511.4789349975338" departLane="free"/>
  <flow id="JF371873" begin="420" fromJunction="J0" toJunction="J4" end="480" vehsPerHour="251.50768691067148" departLane="free"/>
  <flow id="JF371874" begin="420" fromJunction="J0" toJunction="J6" end="480" vehsPerHour="77.9134506958806" departLane="free"/>
  <flow id="JF371875" begin="420" fromJunction="J0" toJunction="J7" end="480" vehsPerHour="63.682201031908775" departLane="free"/>
  <flow id="JF371876" begin="420" fromJunction="J3" toJunction="J4" end="480" vehsPerHour="355.4027131942865" departLane="free"/>
  <flow id="JF371877" begin="420" fromJunction="J3" toJunction="J5" end="480" vehsPerHour="253.65028301680704" departLane="free"/>
  <flow id="JF371878" begin="420" fromJunction="J3" toJunction="J7" end="480" vehsPerHour="266.97735000233234" departLane="free"/>
  <flow id="JF371879" begin="420" fromJunction="J4" toJunction="J0" end="480" vehsPerHour="64.03190630113461" departLane="free"/>
  <flow id="JF371880" begin="420" fromJunction="J4" toJunction="J3" end="480" vehsPerHour="36.604656330948366" departLane="free"/>
  <flow id="JF371881" begin="420" fromJunction="J4" toJunction="J7" end="480" vehsPerHour="71.07359775623286" departLane="free"/>
  <flow id="JF371882" begin="420" fromJunction="J5" toJunction="J3" end="480" vehsPerHour="258.00769438596967" departLane="free"/>
  <flow id="JF371883" begin="420" fromJunction="J5" toJunction="J6" end="480" vehsPerHour="12.17046194459219" departLane="free"/>
  <flow id="JF371884" begin="420" fromJunction="J5" toJunction="J7" end="480" vehsPerHour="248.38293870959504" departLane="free"/>
  <flow id="JF371885" begin="420" fromJunction="J6" toJunction="J0" end="480" vehsPerHour="199.70159531732654" departLane="free"/>
  <flow id="JF371886" begin="420" fromJunction="J6" toJunction="J3" end="480" vehsPerHour="32.42098966850937" departLane="free"/>
  <flow id="JF371887" begin="420" fromJunction="J6" toJunction="J7" end="480" vehsPerHour="85.52688465486222" departLane="free"/>
  <flow id="JF371888" begin="420" fromJunction="J7" toJunction="J0" end="480" vehsPerHour="204.1709763859968" departLane="free"/>
  <flow id="JF371889" begin="420" fromJunction="J7" toJunction="J3" end="480" vehsPerHour="14.818089434386527" departLane="free"/>
  <flow id="JF371890" begin="420" fromJunction="J7" toJunction="J5" end="480" vehsPerHour="8.984528284864412" departLane="free"/>
  <flow id="JF371891" begin="420" fromJunction="J7" toJunction="J6" end="480" vehsPerHour="7.163444390070141" departLane="free"/>
  <flow id="JF371892" begin="480" fromJunction="J0" toJunction="J3" end="540" vehsPerHour="517.1144326737972" departLane="free"/>
  <flow id="JF371893" begin="480" fromJunction="J0" toJunction="J5" end="540" vehsPerHour="115.01708506104264" departLane="free"/>
  <flow id="JF371894" begin="480" fromJunction="J0" toJunction="J6" end="540" vehsPerHour="431.10827535828474" departLane="free"/>
  <flow id="JF371895" begin="480" fromJunction="J0" toJunction="J7" end="540" vehsPerHour="281.58875259168246" departLane="free"/>
  <flow id="JF371896" begin="480" fromJunction="J3" toJunction="J4" end="540" vehsPerHour="489.0956363790959" departLane="free"/>
  <flow id="JF371897" begin="480" fromJunction="J3" toJunction="J7" end="540" vehsPerHour="343.7938440562614" departLane="free"/>
  <flow id="JF371898" begin="480" fromJunction="J4" toJunction="J0" end="540" vehsPerHour="58.645886043031496" departLane="free"/>
  <flow id="JF371899" begin="480" fromJunction="J4" toJunction="J5" end="540" vehsPerHour="131.34693880132636" departLane="free"/>
  <flow id="JF371900" begin="480" fromJunction="J4" toJunction="J6" end="540" vehsPerHour="124.19575438930224" departLane="free"/>
  <flow id="JF371901" begin="480" fromJunction="J4" toJunction="J7" end="540" vehsPerHour="270.2756151839058" departLane="free"/>
  <flow id="JF371902" begin="480" fromJunction="J5" toJunction="J3" end="540" vehsPerHour="254.8517250119091" departLane="free"/>
  <flow id="JF371903" begin="480" fromJunction="J5" toJunction="J4" end="540" vehsPerHour="87.57788432665713" departLane="free"/>
  <flow id="JF371904" begin="480" fromJunction="J5" toJunction="J6" end="540" vehsPerHour="222.83973115216307" departLane="free"/>
  <flow id="JF371905" begin="480" fromJunction="J5" toJunction="J7" end="540" vehsPerHour="84.54324721691296" departLane="free"/>
  <flow id="JF371906" begin="480" fromJunction="J6" toJunction="J0" end="540" vehsPerHour="41.4051206285987" departLane="free"/>
  <flow id="JF371907" begin="480" fromJunction="J6" toJunction="J5" end="540" vehsPerHour="233.97025361524607" departLane="free"/>
  <flow id="JF371908" begin="480" fromJunction="J7" toJunction="J3" end="540" vehsPerHour="94.83700366223142" departLane="free"/>
  <flow id="JF371909" begin="480" fromJunction="J7" toJunction="J6" end="540" vehsPerHour="187.49720337020122" departLane="free"/>
  <flow id="JF371910" begin="540" fromJunction="J0" toJunction="J4" end="600" vehsPerHour="124.56210132247071" departLane="free"/>
  <flow id="JF371911" begin="540" fromJunction="J0" toJunction="J5" end="600" vehsPerHour="377.161157556555" departLane="free"/>
  <flow id="JF371912" begin="540" fromJunction="J0" toJunction="J6" end="600" vehsPerHour="166.37813652178795" departLane="free"/>
  <flow id="JF371913" begin="540" fromJunction="J0" toJunction="J7" end="600" vehsPerHour="192.22933030297187" departLane="free"/>
  <flow id="JF371914" begin="540" fromJunction="J3" toJunction="J4" end="600" vehsPerHour="161.34187079836707" departLane="free"/>
  <flow id="JF371915" begin="540" fromJunction="J3" toJunction="J5" end="600" vehsPerHour="98.3228065999372" departLane="free"/>
  <flow id="JF371916" begin="540" fromJunction="J3" toJunction="J6" end="600" vehsPerHour="225.84648908111868" departLane="free"/>
  <flow id="JF371917" begin="540" fromJunction="J3" toJunction="J7" end="600" vehsPerHour="338.48632261373785" departLane="free"/>
  <flow id="JF371918" begin="540" fromJunction="J4" toJunction="J3" end="600" vehsPerHour="88.66274299165177" departLane="free"/>
  <flow id="JF371919" begin="540" fromJunction="J4" toJunction="J5" end="600" vehsPerHour="20.53167833466505" departLane="free"/>
  <flow id="JF371920" begin="540" fromJunction="J4" toJunction="J7" end="600" vehsPerHour="196.95977129718105" departLane="free"/>
  <flow id="JF371921" begin="540" fromJunction="J5" toJunction="J4" end="600" vehsPerHour="157.3650009322536" departLane="free"/>
  <flow id="JF371922" begin="540" fromJunction="J5" toJunction="J6" end="600" vehsPerHour="134.74937356415077" departLane="free"/>
  <flow id="JF371923" begin="540" fromJunction="J5" toJunction="J7" end="600" vehsPerHour="191.65432646871525" departLane="free"/>
  <flow id="JF371924" begin="540" fromJunction="J6" toJunction="J0" end="600" vehsPerHour="188.75843476800134" departLane="free"/>
  <flow id="JF371925" begin="540" fromJunction="J6" toJunction="J3" end="600" vehsPerHour="79.911075305231" departLane="free"/>
  <flow id="JF371926" begin="540" fromJunction="J6" toJunction="J4" end="600" vehsPerHour="177.7059199014709" departLane="free"/>
  <flow id="JF371927" begin="540" fromJunction="J6" toJunction="J5" end="600" vehsPerHour="141.2793010444075" departLane="free"/>
  <flow id="JF371928" begin="540" fromJunction="J7" toJunction="J3" end="600" vehsPerHour="249.8219675683465" departLane="free"/>
  <flow id="JF371929" begin="540" fromJunction="J7" toJunction="J4" end="600" vehsPerHour="165.02715291075214" departLane="free"/>
  <flow id="JF371930" begin="540" fromJunction="J7" toJunction="J5" end="600" vehsPerHour="116.26786132137016" departLane="free"/>
  <flow id="JF371931" begin="540" fromJunction="J7" toJunction="J6" end="600" vehsPerHour="102.97895317549838" departLane="free"/>
  <flow id="JF371932" begin="600" fromJunction="J0" toJunction="J3" end="660" vehsPerHour="27.168925810751453" departLane="free"/>
  <flow id="JF371933" begin="600" fromJunction="J0" toJunction="J4" end="660" vehsPerHour="167.60370472847416" departLane="free"/>
  <flow id="JF371934" begin="600" fromJunction="J0" toJunction="J6" end="660" vehsPerHour="397.4243439124479" departLane="free"/>
  <flow id="JF371935" begin="600" fromJunction="J0" toJunction="J7" end="660" vehsPerHour="175.18155287964126" departLane="free"/>
  <flow id="JF371936" begin="600" fromJunction="J3" toJunction="J4" end="660" vehsPerHour="373.03368576751615" departLane="free"/>
  <flow id="JF371937" begin="600" fromJunction="J3" toJunction="J5" end="660" vehsPerHour="540.6261240654192" departLane="free"/>
  <flow id="JF371938" begin="600" fromJunction="J3" toJunction="J7" end="660" vehsPerHour="434.47993762133234" departLane="free"/>
  <flow id="JF371939" begin="600" fromJunction="J4" toJunction="J0" end="660" vehsPerHour="75.4271479983601" departLane="free"/>
  <flow id="JF371940" begin="600" fromJunction="J4" toJunction="J3" end="660" vehsPerHour="214.1817584043465" departLane="free"/>
  <flow id="JF371941" begin="600" fromJunction="J4" toJunction="J7" end="660" vehsPerHour="129.00824319508743" departLane="free"/>
  <flow id="JF371942" begin="600" fromJunction="J5" toJunction="J4" end="660" vehsPerHour="71.01618218251487" departLane="free"/>
  <flow id="JF371943" begin="600" fromJunction="J5" toJunction="J6" end="660" vehsPerHour="121.09496849521543" departLane="free"/>
  <flow id="JF371944" begin="600" fromJunction="J5" toJunction="J7" end="660" vehsPerHour="139.82320596740524" departLane="free"/>
  <flow id="JF371945" begin="600" fromJunction="J6" toJunction="J0" end="660" vehsPerHour="135.53788830443096" departLane="free"/>
  <flow id="JF371946" begin="600" fromJunction="J6" toJunction="J3" end="660" vehsPerHour="147.34069624631655" departLane="free"/>
  <flow id="JF371947" begin="600" fromJunction="J6" toJunction="J4" end="660" vehsPerHour="257.8902123238076" departLane="free"/>
  <flow id="JF371948" begin="600" fromJunction="J6" toJunction="J5" end="660" vehsPerHour="193.20647288680198" departLane="free"/>
  <flow id="JF371949" begin="600" fromJunction="J7" toJunction="J4" end="660" vehsPerHour="49.74961532922923" departLane="free"/>
  <flow id="JF371950" begin="600" fromJunction="J7" toJunction="J5" end="660" vehsPerHour="82.64505265277428" departLane="free"/>
  <flow id="JF371951" begin="600" fromJunction="J7" toJunction="J6" end="660" vehsPerHour="177.5700548642133" departLane="free"/>