<?xml version="1.0" encoding="UTF-8"?>
<routes xmlns:xsi="http://www.w3.org/2001/XMLSchema-instance" xsi:noNamespaceSchemaLocation="http://sumo.dlr.de/xsd/routes_file.xsd">
  <flow id="JF73318" begin="0" fromJunction="J0" toJunction="J3" end="60" vehsPerHour="132.180107295854" departLane="free"/>
  <flow id="JF73319" begin="0" fromJunction="J0" toJunction="J6" end="60" vehsPerHour="160.96201753017866" departLane="free"/>
  <flow id="JF73320" begin="0" fromJunction="J3" toJunction="J4" end="60" vehsPerHour="507.20174094495434" departLane="free"/>
  <flow id="JF73321" begin="0" fromJunction="J3" toJunction="J6" end="60" vehsPerHour="152.0377980934101" departLane="free"/>
  <flow id="JF73322" begin="0" fromJunction="J4" toJunction="J3" end="60" vehsPerHour="102.80263878562653" departLane="free"/>
  <flow id="JF73323" begin="0" fromJunction="J4" toJunction="J5" end="60" vehsPerHour="267.5616258907067" departLane="free"/>
  <flow id="JF73324" begin="0" fromJunction="J4" toJunction="J6" end="60" vehsPerHour="47.85983262704049" departLane="free"/>
  <flow id="JF73325" begin="0" fromJunction="J5" toJunction="J0" end="60" vehsPerHour="238.27383727213711" departLane="free"/>
  <flow id="JF73326" begin="0" fromJunction="J5" toJunction="J3" end="60" vehsPerHour="134.0292373562382" departLane="free"/>
  <flow id="JF73327" begin="0" fromJunction="J5" toJunction="J4" end="60" vehsPerHour="187.14640518400216" departLane="free"/>
  <flow id="JF73328" begin="0" fromJunction="J6" toJunction="J5" end="60" vehsPerHour="154.24550307692596" departLane="free"/>
  <flow id="JF73329" begin="0" fromJunction="J6" toJunction="J7" end="60" vehsPerHour="137.0349823942742" departLane="free"/>
  <flow id="JF73330" begin="0" fromJunction="J7" toJunction="J3" end="60" vehsPerHour="65.33118253997552" departLane="free"/>
  <flow id="JF73331" begin="0" fromJunction="J7" toJunction="J4" end="60" vehsPerHour="94.74290744969939" departLane="free"/>
  <flow id="JF73332" begin="0" fromJunction="J7" toJunction="J5" end="60" vehsPerHour="204.96098750352428" departLane="free"/>
  <flow id="JF73333" begin="60" fromJunction="J0" toJunction="J3" end="120" vehsPerHour="159.5216948203029" departLane="free"/>
  <flow id="JF73334" begin="60" fromJunction="J0" toJunction="J6" end="120" vehsPerHour="282.65057819880667" departLane="free"/>
  <flow id="JF73335" begin="60" fromJunction="J0" toJunction="J7" end="120" vehsPerHour="51.56345745128515" departLane="free"/>
  <flow id="JF73336" begin="60" fromJunction="J3" toJunction="J0" end="120" vehsPerHour="406.1188914799877" departLane="free"/>
  <flow id="JF73337" begin="60" fromJunction="J3" toJunction="J5" end="120" vehsPerHour="66.37210598419193" departLane="free"/>
  <flow id="JF73338" begin="60" fromJunction="J4" toJunction="J0" end="120" vehsPerHour="162.0750548256315" departLane="free"/>
  <flow id="JF73339" begin="60" fromJunction="J4" toJunction="J3" end="120" vehsPerHour="109.75490311275043" departLane="free"/>
  <flow id="JF73340" begin="60" fromJunction="J4" toJunction="J6" end="120" vehsPerHour="264.9212810812145" departLane="free"/>
  <flow id="JF73341" begin="60" fromJunction="J5" toJunction="J0" end="120" vehsPerHour="8.800412110358602" departLane="free"/>
  <flow id="JF73342" begin="60" fromJunction="J5" toJunction="J3" end="120" vehsPerHour="39.35152499745298" departLane="free"/>
  <flow id="JF73343" begin="60" fromJunction="J5" toJunction="J4" end="120" vehsPerHour="13.64165196362908" departLane="free"/>
  <flow id="JF73344" begin="60" fromJunction="J5" toJunction="J6" end="120" vehsPerHour="248.0638851247062" departLane="free"/>
  <flow id="JF73345" begin="60" fromJunction="J6" toJunction="J0" end="120" vehsPerHour="155.3199289195135" departLane="free"/>
  <flow id="JF73346" begin="60" fromJunction="J6" toJunction="J3" end="120" vehsPerHour="242.66368026166376" departLane="free"/>
  <flow id="JF73347" begin="60" fromJunction="J6" toJunction="J4" end="120" vehsPerHour="181.7515340975407" departLane="free"/>
  <flow id="JF73348" begin="60" fromJunction="J7" toJunction="J0" end="120" vehsPerHour="206.80859112422442" departLane="free"/>
  <flow id="JF73349" begin="60" fromJunction="J7" toJunction="J3" end="120" vehsPerHour="235.5653659685574" departLane="free"/>
  <flow id="JF73350" begin="60" fromJunction="J7" toJunction="J4" end="120" vehsPerHour="201.86039565668864" departLane="free"/>
  <flow id="JF73351" begin="60" fromJunction="J7" toJunction="J6" end="120" vehsPerHour="201.30101637756798" departLane="free"/>
  <flow id="JF73352" begin="120" fromJunction="J0" toJunction="J3" end="180" vehsPerHour="162.9617553014987" departLane="free"/>
  <flow id="JF73353" begin="120" fromJunction="J0" toJunction="J4" end="180" vehsPerHour="18.463755249077366" departLane="free"/>
  <flow id="JF73354" begin="120" fromJunction="J0" toJunction="J5" end="180" vehsPerHour="199.24459827317176" departLane="free"/>
  <flow id="JF73355" begin="120" fromJunction="J0" toJunction="J7" end="180" vehsPerHour="379.0789646574145" departLane="free"/>
  <flow id="JF73356" begin="120" fromJunction="J3" toJunction="J0" end="180" vehsPerHour="286.7292704660081" departLane="free"/>
  <flow id="JF73357" begin="120" fromJunction="J3" toJunction="J4" end="180" vehsPerHour="18.306993307314862" departLane="free"/>
  <flow id="JF73358" begin="120" fromJunction="J3" toJunction="J6" end="180" vehsPerHour="531.3046739424638" departLane="free"/>
  <flow id="JF73359" begin="120" fromJunction="J3" toJunction="J7" end="180" vehsPerHour="223.61139459436973" departLane="free"/>
  <flow id="JF73360" begin="120" fromJunction="J4" toJunction="J3" end="180" vehsPerHour="64.876327852239" departLane="free"/>
  <flow id="JF73361" begin="120" fromJunction="J4" toJunction="J5" end="180" vehsPerHour="39.30270085462036" departLane="free"/>
  <flow id="JF73362" begin="120" fromJunction="J4" toJunction="J7" end="180" vehsPerHour="76.17781580370358" departLane="free"/>
  <flow id="JF73363" begin="120" fromJunction="J5" toJunction="J0" end="180" vehsPerHour="135.2842047377402" departLane="free"/>
  <flow id="JF73364" begin="120" fromJunction="J5" toJunction="J3" end="180" vehsPerHour="199.2752658415207" departLane="free"/>
  <flow id="JF73365" begin="120" fromJunction="J5" toJunction="J7" end="180" vehsPerHour="48.47484520729447" departLane="free"/>
  <flow id="JF73366" begin="120" fromJunction="J6" toJunction="J0" end="180" vehsPerHour="267.78859318022114" departLane="free"/>
  <flow id="JF73367" begin="120" fromJunction="J6" toJunction="J3" end="180" vehsPerHour="71.59561947672294" departLane="free"/>
  <flow id="JF73368" begin="120" fromJunction="J6" toJunction="J7" end="180" vehsPerHour="151.80263186852403" departLane="free"/>
  <flow id="JF73369" begin="120" fromJunction="J7" toJunction="J0" end="180" vehsPerHour="13.850913008585477" departLane="free"/>
  <flow id="JF73370" begin="120" fromJunction="J7" toJunction="J5" end="180" vehsPerHour="139.31736599367025" departLane="free"/>
  <flow id="JF73371" begin="120" fromJunction="J7" toJunction="J6" end="180" vehsPerHour="12.185629094981453" departLane="free"/>
  <flow id="JF73372" begin="180" fromJunction="J0" toJunction="J3" end="240" vehsPerHour="6.288391216474676" departLane="free"/>
  <flow id="JF73373" begin="180" fromJunction="J0" toJunction="J4" end="240" vehsPerHour="490.1281569039431" departLane="free"/>
  <flow id="JF73374" begin="180" fromJunction="J0" toJunction="J5" end="240" vehsPerHour="257.7818422788128" departLane="free"/>
  <flow id="JF73375" begin="180" fromJunction="J0" toJunction="J7" end="240" vehsPerHour="165.0618417388429" departLane="free"/>
  <flow id="JF73376" begin="180" fromJunction="J3" toJunction="J0" end="240" vehsPerHour="315.65664786772606" departLane="free"/>
  <flow id="JF73377" begin="180" fromJunction="J3" toJunction="J4" end="240" vehsPerHour="396.15219085362816" departLane="free"/>
  <flow id="JF73378" begin="180" fromJunction="J3" toJunction="J6" end="240" vehsPerHour="2.9427196883090496" departLane="free"/>
  <flow id="JF73379" begin="180" fromJunction="J4" toJunction="J0" end="240" vehsPerHour="155.19415136011798" departLane="free"/>
  <flow id="JF73380" begin="180" fromJunction="J4" toJunction="J3" end="240" vehsPerHour="119.32333074144746" departLane="free"/>
  <flow id="JF73381" begin="180" fromJunction="J4" toJunction="J6" end="240" vehsPerHour="1.5908217674387364" departLane="free"/>
  <flow id="JF73382" begin="180" fromJunction="J4" toJunction="J7" end="240" vehsPerHour="71.58923976064321" departLane="free"/>
  <flow id="JF73383" begin="180" fromJunction="J5" toJunction="J0" end="240" vehsPerHour="208.62994017895576" departLane="free"/>
  <flow id="JF73384" begin="180" fromJunction="J5" toJunction="J3" end="240" vehsPerHour="31.358286826669346" departLane="free"/>
  <flow id="JF73385" begin="180" fromJunction="J5" toJunction="J4" end="240" vehsPerHour="252.05671574900737" departLane="free"/>
  <flow id="JF73386" begin="180" fromJunction="J5" toJunction="J7" end="240" vehsPerHour="36.101560573650445" departLane="free"/>
  <flow id="JF73387" begin="180" fromJunction="J6" toJunction="J5" end="240" vehsPerHour="63.25539813723971" departLane="free"/>
  <flow id="JF73388" begin="180" fromJunction="J6" toJunction="J7" end="240" vehsPerHour="207.1744091379122" departLane="free"/>
  <flow id="JF73389" begin="180" fromJunction="J7" toJunction="J0" end="240" vehsPerHour="140.1587267018424" departLane="free"/>
  <flow id="JF73390" begin="180" fromJunction="J7" toJunction="J3" end="240" vehsPerHour="185.51305453125843" departLane="free"/>
  <flow id="JF73391" begin="180" fromJunction="J7" toJunction="J5" end="240" vehsPerHour="217.80799253028758" departLane="free"/>
  <flow id="JF73392" begin="180" fromJunction="J7" toJunction="J6" end="240" vehsPerHour="228.02864323954645" departLane="free"/>
  <flow id="JF73393" begin="240" fromJunction="J0" toJunction="J3" end="300" vehsPerHour="147.5729723465752" departLane="free"/>
  <flow id="JF73394" begin="240" fromJunction="J0" toJunction="J4" end="300" vehsPerHour="426.31590145963986" departLane="free"/>
  <flow id="JF73395" begin="240" fromJunction="J0" toJunction="J5" end="300" vehsPerHour="514.6034299963877" departLane="free"/>
  <flow id="JF73396" begin="240" fromJunction="J3" toJunction="J0" end="300" vehsPerHour="218.59014203281515" departLane="free"/>
  <flow id="JF73397" begin="240" fromJunction="J3" toJunction="J4" end="300" vehsPerHour="237.98853147385609" departLane="free"/>
  <flow id="JF73398" begin="240" fromJunction="J3" toJunction="J5" end="300" vehsPerHour="279.64995592043385" departLane="free"/>
  <flow id="JF73399" begin="240" fromJunction="J3" toJunction="J6" end="300" vehsPerHour="244.2197102791263" departLane="free"/>
  <flow id="JF73400" begin="240" fromJunction="J3" toJunction="J7" end="300" vehsPerHour="385.244292941064" departLane="free"/>
  <flow id="JF73401" begin="240" fromJunction="J4" toJunction="J0" end="300" vehsPerHour="208.30292298257157" departLane="free"/>
  <flow id="JF73402" begin="240" fromJunction="J4" toJunction="J5" end="300" vehsPerHour="58.62566566401659" departLane="free"/>
  <flow id="JF73403" begin="240" fromJunction="J4" toJunction="J6" end="300" vehsPerHour="202.55193540299314" departLane="free"/>
  <flow id="JF73404" begin="240" fromJunction="J5" toJunction="J3" end="300" vehsPerHour="223.67440181747008" departLane="free"/>
  <flow id="JF73405" begin="240" fromJunction="J5" toJunction="J4" end="300" vehsPerHour="54.97726582389443" departLane="free"/>
  <flow id="JF73406" begin="240" fromJunction="J5" toJunction="J6" end="300" vehsPerHour="229.59400750169243" departLane="free"/>
  <flow id="JF73407" begin="240" fromJunction="J5" toJunction="J7" end="300" vehsPerHour="3.0211006927907915" departLane="free"/>
  <flow id="JF73408" begin="240" fromJunction="J6" toJunction="J3" end="300" vehsPerHour="76.02836707318083" departLane="free"/>
  <flow id="JF73409" begin="240" fromJunction="J6" toJunction="J4" end="300" vehsPerHour="210.62913547063206" departLane="free"/>
  <flow id="JF73410" begin="240" fromJunction="J6" toJunction="J7" end="300" vehsPerHour="203.45820053396534" departLane="free"/>
  <flow id="JF73411" begin="240" fromJunction="J7" toJunction="J0" end="300" vehsPerHour="67.0908966751594" departLane="free"/>
  <flow id="JF73412" begin="240" fromJunction="J7" toJunction="J4" end="300" vehsPerHour="53.43852928143104" departLane="free"/>
  <flow id="JF73413" begin="240" fromJunction="J7" toJunction="J5" end="300" vehsPerHour="251.62478253888753" departLane="free"/>
  <flow id="JF73414" begin="240" fromJunction="J7" toJunction="J6" end="300" vehsPerHour="263.3733369187523" departLane="free"/>
  <flow id="JF73415" begin="300" fromJunction="J0" toJunction="J3" end="360" vehsPerHour="219.91345860456153" departLane="free"/>
  <flow id="JF73416" begin="300" fromJunction="J0" toJunction="J5" end="360" vehsPerHour="240.97923384150596" departLane="free"/>
  <flow id="JF73417" begin="300" fromJunction="J0" toJunction="J6" end="360" vehsPerHour="366.6994827799385" departLane="free"/>
  <flow id="JF73418" begin="300" fromJunction="J0" toJunction="J7" end="360" vehsPerHour="193.34335124622805" departLane="free"/>
  <flow id="JF73419" begin="300" fromJunction="J3" toJunction="J0" end="360" vehsPerHour="518.401085523066" departLane="free"/>
  <flow id="JF73420" begin="300" fromJunction="J3" toJunction="J4" end="360" vehsPerHour="194.54717730281058" departLane="free"/>
  <flow id="JF73421" begin="300" fromJunction="J3" toJunction="J5" end="360" vehsPerHour="415.1331365684423" departLane="free"/>
  <flow id="JF73422" begin="300" fromJunction="J3" toJunction="J7" end="360" vehsPerHour="488.7496703814537" departLane="free"/>
  <flow id="JF73423" begin="300" fromJunction="J4" toJunction="J0" end="360" vehsPerHour="62.87888152634874" departLane="free"/>
  <flow id="JF73424" begin="300" fromJunction="J4" toJunction="J3" end="360" vehsPerHour="44.90582003030691" departLane="free"/>
  <flow id="JF73425" begin="300" fromJunction="J4" toJunction="J5" end="360" vehsPerHour="117.06820688320805" departLane="free"/>
  <flow id="JF73426" begin="300" fromJunction="J4" toJunction="J7" end="360" vehsPerHour="117.7516167983648" departLane="free"/>
  <flow id="JF73427" begin="300" fromJunction="J5" toJunction="J3" end="360" vehsPerHour="245.32738422306147" departLane="free"/>
  <flow id="JF73428" begin="300" fromJunction="J5" toJunction="J4" end="360" vehsPerHour="188.9813369896576" departLane="free"/>
  <flow id="JF73429" begin="300" fromJunction="J5" toJunction="J7" end="360" vehsPerHour="228.68780085162305" departLane="free"/>
  <flow id="JF73430" begin="300" fromJunction="J6" toJunction="J0" end="360" vehsPerHour="219.53977991279336" departLane="free"/>
  <flow id="JF73431" begin="300" fromJunction="J6" toJunction="J3" end="360" vehsPerHour="54.75176832523428" departLane="free"/>
  <flow id="JF73432" begin="300" fromJunction="J6" toJunction="J5" end="360" vehsPerHour="214.77184438131093" departLane="free"/>
  <flow id="JF73433" begin="300" fromJunction="J6" toJunction="J7" end="360" vehsPerHour="16.948125010980498" departLane="free"/>
  <flow id="JF73434" begin="300" fromJunction="J7" toJunction="J0" end="360" vehsPerHour="140.33745373015586" departLane="free"/>
  <flow id="JF73435" begin="300" fromJunction="J7" toJunction="J3" end="360" vehsPerHour="0.9908526890327316" departLane="free"/>
  <flow id="JF73436" begin="300" fromJunction="J7" toJunction="J4" end="360" vehsPerHour="129.47481255885634" departLane="free"/>
  <flow id="JF73437" begin="300" fromJunction="J7" toJunction="J5" end="360" vehsPerHour="258.6793218481911" departLane="free"/>
  <flow id="JF73438" begin="300" fromJunction="J7" toJunction="J6" end="360" vehsPerHour="260.985101828155" departLane="free"/>
  <flow id="JF73439" begin="360" fromJunction="J0" toJunction="J4" end="420" vehsPerHour="77.09869951854536" departLane="free"/>
  <flow id="JF73440" begin="360" fromJunction="J0" toJunction="J5" end="420" vehsPerHour="198.78430117530925" departLane="free"/>
  <flow id="JF73441" begin="360" fromJunction="J0" toJunction="J6" end="420" vehsPerHour="200.2360966437859" departLane="free"/>
  <flow id="JF73442" begin="360" fromJunction="J3" toJunction="J0" end="420" vehsPerHour="287.5692616311507" departLane="free"/>
  <flow id="JF73443" begin="360" fromJunction="J3" toJunction="J4" end="420" vehsPerHour="386.2223312952439" departLane="free"/>
  <flow id="JF73444" begin="360" fromJunction="J3" toJunction="J5" end="420" vehsPerHour="468.7505569743329" departLane="free"/>
  <flow id="JF73445" begin="360" fromJunction="J3" toJunction="J7" end="420" vehsPerHour="69.39840951044619" departLane="free"/>
  <flow id="JF73446" begin="360" fromJunction="J4" toJunction="J0" end="420" vehsPerHour="250.24922734570976" departLane="free"/>
  <flow id="JF73447" begin="360" fromJunction="J4" toJunction="J3" end="420" vehsPerHour="235.58538891420704" departLane="free"/>
  <flow id="JF73448" begin="360" fromJunction="J4" toJunction="J7" end="420" vehsPerHour="42.761763273476106" departLane="free"/>
  <flow id="JF73449" begin="360" fromJunction="J5" toJunction="J0" end="420" vehsPerHour="60.53110189962003" departLane="free"/>
  <flow id="JF73450" begin="360" fromJunction="J5" toJunction="J4" end="420" vehsPerHour="26.336463927307307" departLane="free"/>
  <flow id="JF73451" begin="360" fromJunction="J5" toJunction="J6" end="420" vehsPerHour="168.97842299801798" departLane="free"/>
  <flow id="JF73452" begin="360" fromJunction="J6" toJunction="J0" end="420" vehsPerHour="66.39943555096264" departLane="free"/>
  <flow id="JF73453" begin="360" fromJunction="J6" toJunction="J3" end="420" vehsPerHour="120.68004194586548" departLane="free"/>
  <flow id="JF73454" begin="360" fromJunction="J6" toJunction="J4" end="420" vehsPerHour="165.60543434676265" departLane="free"/>
  <flow id="JF73455" begin="360" fromJunction="J6" toJunction="J5" end="420" vehsPerHour="161.0344898458648" departLane="free"/>
  <flow id="JF73456" begin="360" fromJunction="J6" toJunction="J7" end="420" vehsPerHour="53.39085978094066" departLane="free"/>
  <flow id="JF73457" begin="360" fromJunction="J7" toJunction="J0" end="420" vehsPerHour="233.6686220213004" departLane="free"/>
  <flow id="JF73458" begin="360" fromJunction="J7" toJunction="J4" end="420" vehsPerHour="17.32470490612311" departLane="free"/>
  <flow id="JF73459" begin="360" fromJunction="J7" toJunction="J5" end="420" vehsPerHour="154.09767623426114" departLane="free"/>
  <flow id="JF73460" begin="360" fromJunction="J7" toJunction="J6" end="420" vehsPerHour="46.61360750567004" departLane="free"/>
  <flow id="JF73461" begin="420" fromJunction="J0" toJunction="J3" end="480" vehsPerHour="9.580150498525578" departLane="free"/>
  <flow id="JF73462" begin="420" fromJunction="J0" toJunction="J4" end="480" vehsPerHour="328.963339001145" departLane="free"/>
  <flow id="JF73463" begin="420" fromJunction="J0" toJunction="J6" end="480" vehsPerHour="325.2847503051869" departLane="free"/>
  <flow id="JF73464" begin="420" fromJunction="J3" toJunction="J4" end="480" vehsPerHour="532.89813226415" departLane="free"/>
  <flow id="JF73465" begin="420" fromJunction="J3" toJunction="J6" end="480" vehsPerHour="12.853928391039515" departLane="free"/>
  <flow id="JF73466" begin="420" fromJunction="J4" toJunction="J0" end="480" vehsPerHour="74.2525186474366" departLane="free"/>
  <flow id="JF73467" begin="420" fromJunction="J4" toJunction="J3" end="480" vehsPerHour="113.66064991537597" departLane="free"/>
  <flow id="JF73468" begin="420" fromJunction="J4" toJunction="J5" end="480" vehsPerHour="46.597043039577514" departLane="free"/>
  <flow id="JF73469" begin="420" fromJunction="J4" toJunction="J6" end="480" vehsPerHour="104.08234018460489" departLane="free"/>
  <flow id="JF73470" begin="420" fromJunction="J5" toJunction="J0" end="480" vehsPerHour="141.7346020604754" departLane="free"/>
  <flow id="JF73471" begin="420" fromJunction="J5" toJunction="J4" end="480" vehsPerHour="261.47509424782004" departLane="free"/>
  <flow id="JF73472" begin="420" fromJunction="J6" toJunction="J0" end="480" vehsPerHour="179.04379697578034" departLane="free"/>
  <flow id="JF73473" begin="420" fromJunction="J6" toJunction="J3" end="480" vehsPerHour="113.48536744973556" departLane="free"/>
  <flow id="JF73474" begin="420" fromJunction="J6" toJunction="J4" end="480" vehsPerHour="205.56566645606813" departLane="free"/>
  <flow id="JF73475" begin="420" fromJunction="J6" toJunction="J7" end="480" vehsPerHour="194.39868816416507" departLane="free"/>
  <flow id="JF73476" begin="420" fromJunction="J7" toJunction="J3" end="480" vehsPerHour="107.13940981972279" departLane="free"/>
  <flow id="JF73477" begin="420" fromJunction="J7" toJunction="J4" end="480" vehsPerHour="75.67355696498866" departLane="free"/>
  <flow id="JF73478" begin="420" fromJunction="J7" toJunction="J6" end="480" vehsPerHour="69.23494500257554" departLane="free"/>
  <flow id="JF73479" begin="480" fromJunction="J0" toJunction="J4" end="540" vehsPerHour="98.40955125192427" departLane="free"/>
  <flow id="JF73480" begin="480" fromJunction="J0" toJunction="J5" end="540" vehsPerHour="91.44592933816425" departLane="free"/>
  <flow id="JF73481" begin="480" fromJunction="J0" toJunction="J6" end="540" vehsPerHour="513.4790043176981" departLane="free"/>
  <flow id="JF73482" begin="480" fromJunction="J0" toJunction="J7" end="540" vehsPerHour="394.09288919793966" departLane="free"/>
  <flow id="JF73483" begin="480" fromJunction="J3" toJunction="J0" end="540" vehsPerHour="243.14422561253963" departLane="free"/>
  <flow id="JF73484" begin="480" fromJunction="J3" toJunction="J6" end="540" vehsPerHour="537.5592364674981" departLane="free"/>
  <flow id="JF73485" begin="480" fromJunction="J3" toJunction="J7" end="540" vehsPerHour="518.1213080858192" departLane="free"/>
  <flow id="JF73486" begin="480" fromJunction="J4" toJunction="J0" end="540" vehsPerHour="176.13456480625297" departLane="free"/>
  <flow id="JF73487" begin="480" fromJunction="J4" toJunction="J3" end="540" vehsPerHour="171.75823360420765" departLane="free"/>
  <flow id="JF73488" begin="480" fromJunction="J4" toJunction="J5" end="540" vehsPerHour="191.54295992382245" departLane="free"/>
  <flow id="JF73489" begin="480" fromJunction="J4" toJunction="J6" end="540" vehsPerHour="75.94621956837837" departLane="free"/>
  <flow id="JF73490" begin="480" fromJunction="J5" toJunction="J0" end="540" vehsPerHour="179.857749200987" departLane="free"/>
  <flow id="JF73491" begin="480" fromJunction="J5" toJunction="J3" end="540" vehsPerHour="260.2151581939538" departLane="free"/>
  <flow id="JF73492" begin="480" fromJunction="J5" toJunction="J4" end="540" vehsPerHour="116.28929669116422" departLane="free"/>
  <flow id="JF73493" begin="480" fromJunction="J5" toJunction="J6" end="540" vehsPerHour="75.50235967761826" departLane="free"/>
  <flow id="JF73494" begin="480" fromJunction="J5" toJunction="J7" end="540" vehsPerHour="262.61358102633926" departLane="free"/>
  <flow id="JF73495" begin="480" fromJunction="J6" toJunction="J0" end="540" vehsPerHour="245.25436905674" departLane="free"/>
  <flow id="JF73496" begin="480" fromJunction="J6" toJunction="J5" end="540" vehsPerHour="127.95653817819807" departLane="free"/>
  <flow id="JF73497" begin="480" fromJunction="J6" toJunction="J7" end="540" vehsPerHour="208.4026874094196" departLane="free"/>
  <flow id="JF73498" begin="480" fromJunction="J7" toJunction="J0" end="540" vehsPerHour="25.121469272060207" departLane="free"/>
  <flow id="JF73499" begin="480" fromJunction="J7" toJunction="J3" end="540" vehsPerHour="112.53875881305926" departLane="free"/>
  <flow id="JF73500" begin="540" fromJunction="J0" toJunction="J4" end="600" vehsPerHour="381.7304878047765" departLane="free"/>
  <flow id="JF73501" begin="540" fromJunction="J0" toJunction="J5" end="600" vehsPerHour="540.2566167425009" departLane="free"/>
  <flow id="JF73502" begin="540" fromJunction="J0" toJunction="J6" end="600" vehsPerHour="18.46648128700868" departLane="free"/>
  <flow id="JF73503" begin="540" fromJunction="J3" toJunction="J4" end="600" vehsPerHour="61.16241988030379" departLane="free"/>
  <flow id="JF73504" begin="540" fromJunction="J3" toJunction="J6" end="600" vehsPerHour="294.24199156113406" departLane="free"/>
  <flow id="JF73505" begin="540" fromJunction="J4" toJunction="J0" end="600" vehsPerHour="238.70908776461283" departLane="free"/>
  <flow id="JF73506" begin="540" fromJunction="J4" toJunction="J5" end="600" vehsPerHour="141.65174164072477" departLane="free"/>
  <flow id="JF73507" begin="540" fromJunction="J5" toJunction="J0" end="600" vehsPerHour="39.94373378963567" departLane="free"/>
  <flow id="JF73508" begin="540" fromJunction="J5" toJunction="J6" end="600" vehsPerHour="166.41003974113076" departLane="free"/>
  <flow id="JF73509" begin="540" fromJunction="J5" toJunction="J7" end="600" vehsPerHour="38.29161236749616" departLane="free"/>
  <flow id="JF73510" begin="540" fromJunction="J6" toJunction="J0" end="600" vehsPerHour="185.06600454547623" departLane="free"/>
  <flow id="JF73511" begin="540" fromJunction="J6" toJunction="J5" end="600" vehsPerHour="57.629114374176574" departLane="free"/>
  <flow id="JF73512" begin="540" fromJunction="J6" toJunction="J7" end="600" vehsPerHour="36.944021351891195" departLane="free"/>
  <flow id="JF73513" begin="540" fromJunction="J7" toJunction="J0" end="600" vehsPerHour="200.43801924191848" departLane="free"/>
  <flow id="JF73514" begin="540" fromJunction="J7" toJunction="J3" end="600" vehsPerHour="157.56260763997554" departLane="free"/>
  <flow id="JF73515" begin="540" fromJunction="J7" toJunction="J4" end="600" vehsPerHour="74.4108798032812" departLane="free"/>
  <flow id="JF73516" begin="540" fromJunction="J7" toJunction="J6" end="600" vehsPerHour="269.90882170294066" departLane="free"/>
  <flow id="JF73517" begin="600" fromJunction="J0" toJunction="J3" end="660" vehsPerHour="10.297220719844809" departLane="free"/>
  <flow id="JF73518" begin="600" fromJunction="J0" toJunction="J5" end="660" vehsPerHour="387.4555726400008" departLane="free"/>
  <flow id="JF73519" begin="600" fromJunction="J0" toJunction="J6" end="660" vehsPerHour="6.362320474664837" departLane="free"/>
  <flow id="JF73520" begin="600" fromJunction="J0" toJunction="J7" end="660" vehsPerHour="79.54629479329874" departLane="free"/>
  <flow id="JF73521" begin="600" fromJunction="J3" toJunction="J0" end="660" vehsPerHour="86.67192919375904" departLane="free"/>
  <flow id="JF73522" begin="600" fromJunction="J3" toJunction="J4" end="660" vehsPerHour="240.6464567239069" departLane="free"/>
  <flow id="JF73523" begin="600" fromJunction="J3" toJunction="J5" end="660" vehsPerHour="149.45184752905877" departLane="free"/>
  <flow id="JF73524" begin="600" fromJunction="J3" toJunction="J6" end="660" vehsPerHour="66.5370362419739" departLane="free"/>
  <flow id="JF73525" begin="600" fromJunction="J3" toJunction="J7" end="660" vehsPerHour="543.4232555077501" departLane="free"/>
  <flow id="JF73526" begin="600" fromJunction="J4" toJunction="J0" end="660" vehsPerHour="22.202683182706654" departLane="free"/>
  <flow id="JF73527" begin="600" fromJunction="J4" toJunction="J5" end="660" vehsPerHour="152.6364761881524" departLane="free"/>
  <flow id="JF73528" begin="600" fromJunction="J4" toJunction="J6" end="660" vehsPerHour="20.30541446047599" departLane="free"/>
  <flow id="JF73529" begin="600" fromJunction="J4" toJunction="J7" end="660" vehsPerHour="126.06790296443518" departLane="free"/>
  <flow id="JF73530" begin="600" fromJunction="J5" toJunction="J0" end="660" vehsPerHour="26.00089502615616" departLane="free"/>
  <flow id="JF73531" begin="600" fromJunction="J5" toJunction="J3" end="660" vehsPerHour="45.15870675806656" departLane="free"/>
  <flow id="JF73532" begin="600" fromJunction="J5" toJunction="J4" end="660" vehsPerHour="105.51448294755488" departLane="free"/>
  <flow id="JF73533" begin="600" fromJunction="J5" toJunction="J6" end="660" vehsPerHour="9.256218438880511" departLane="free"/>
  <flow id="JF73534" begin="600" fromJunction="J6" toJunction="J3" end="660" vehsPerHour="42.65297380826305" departLane="free"/>
  <flow id="JF73535" begin="600" fromJunction="J6" toJunction="J4" end="660" vehsPerHour="86.36488117425212" departLane="free"/>
  <flow id="JF73536" begin="600" fromJunction="J6" toJunction="J7" end="660" vehsPerHour="183.35809483861206" departLane="free"/>
  <flow id="JF73537" begin="600" fromJunction="J7" toJunction="J3" end="660" vehsPerHour="215.76605431571087" departLane="free"/>
  <flow id="JF73538" begin="600" fromJunction="J7" toJunction="J4" end="660" vehsPerHour="118.45656874503572" departLane="free"/>
  <flow id="JF73539" begin="600" fromJunction="J7" toJunction="J5" end="660" vehsPerHour="239.95390449926947" departLane="free"/>
  <flow id="JF73540" begin="600" fromJunction="J7" toJunction="J6" end="660" vehsPerHour="201.57424663959728" departLane="free"/>
  <flow id="JF73541" begin="660" fromJunction="J0" toJunction="J3" end="720" vehsPerHour="344.0892327532742" departLane="free"/>
  <flow id="JF73542" begin="660" fromJunction="J0" toJunction="J4" end="720" vehsPerHour="168.94111888997827" departLane="free"/>
  <flow id="JF73543" begin="660" fromJunction="J0" toJunction="J7" end="720" vehsPerHour="118.4091839410505" departLane="free"/>
  <flow id="JF73544" begin="660" fromJunction="J3" toJunction="J4" end="720" vehsPerHour="215.48987074217047" departLane="free"/>
  <flow id="JF73545" begin="660" fromJunction="J3" toJunction="J5" end="720" vehsPerHour="411.67409100144846" departLane="free"/>
  <flow id="JF73546" begin="660" fromJunction="J3" toJunction="J7" end="720" vehsPerHour="373.329511740096" departLane="free"/>
  <flow id="JF73547" begin="660" fromJunction="J4" toJunction="J5" end="720" vehsPerHour="245.88383078712695" departLane="free"/>