<?xml version="1.0" encoding="UTF-8"?>
<routes xmlns:xsi="http://www.w3.org/2001/XMLSchema-instance" xsi:noNamespaceSchemaLocation="http://sumo.dlr.de/xsd/routes_file.xsd">
  <flow id="JF56672" begin="0" fromJunction="J0" toJunction="J12" end="360" vehsPerHour="34.57661329427605" departLane="free" arrivalSpeed="0.0"/>
  <flow id="JF56673" begin="0" fromJunction="J0" toJunction="J14" end="360" vehsPerHour="0.3762101642079637" departLane="free" arrivalSpeed="0.0"/>
  <flow id="JF56674" begin="0" fromJunction="J0" toJunction="J15" end="360" vehsPerHour="7.043361937697676" departLane="free" arrivalSpeed="0.0"/>
  <flow id="JF56675" begin="0" fromJunction="J0" toJunction="J16" end="360" vehsPerHour="39.95677796757376" departLane="free" arrivalSpeed="0.0"/>
  <flow id="JF56676" begin="0" fromJunction="J0" toJunction="J2" end="360" vehsPerHour="67.40788149866282" departLane="free" arrivalSpeed="0.0"/>
  <flow id="JF56677" begin="0" fromJunction="J0" toJunction="J3" end="360" vehsPerHour="51.69868592206708" departLane="free" arrivalSpeed="0.0"/>
  <flow id="JF56678" begin="0" fromJunction="J0" toJunction="J7" end="360" vehsPerHour="40.01382048530916" departLane="free" arrivalSpeed="0.0"/>
  <flow id="JF56679" begin="0" fromJunction="J0" toJunction="J8" end="360" vehsPerHour="14.522350080908629" departLane="free" arrivalSpeed="0.0"/>
  <flow id="JF56680" begin="0" fromJunction="J12" toJunction="J0" end="360" vehsPerHour="1.1397300553079384" departLane="free" arrivalSpeed="0.0"/>
  <flow id="JF56681" begin="0" fromJunction="J12" toJunction="J13" end="360" vehsPerHour="63.52761514423637" departLane="free" arrivalSpeed="0.0"/>
  <flow id="JF56682" begin="0" fromJunction="J12" toJunction="J14" end="360" vehsPerHour="56.70718699009615" departLane="free" arrivalSpeed="0.0"/>
  <flow id="JF56683" begin="0" fromJunction="J12" toJunction="J15" end="360" vehsPerHour="21.500607590506384" departLane="free" arrivalSpeed="0.0"/>
  <flow id="JF56684" begin="0" fromJunction="J12" toJunction="J16" end="360" vehsPerHour="4.347007832209749" departLane="free" arrivalSpeed="0.0"/>
  <flow id="JF56685" begin="0" fromJunction="J12" toJunction="J2" end="360" vehsPerHour="66.10319763890212" departLane="free" arrivalSpeed="0.0"/>
  <flow id="JF56686" begin="0" fromJunction="J12" toJunction="J3" end="360" vehsPerHour="60.14997208237768" departLane="free" arrivalSpeed="0.0"/>
  <flow id="JF56687" begin="0" fromJunction="J12" toJunction="J7" end="360" vehsPerHour="55.75378220057067" departLane="free" arrivalSpeed="0.0"/>
  <flow id="JF56688" begin="0" fromJunction="J12" toJunction="J8" end="360" vehsPerHour="46.37157342880422" departLane="free" arrivalSpeed="0.0"/>
  <flow id="JF56689" begin="0" fromJunction="J13" toJunction="J0" end="360" vehsPerHour="56.82044311800029" departLane="free" arrivalSpeed="0.0"/>
  <flow id="JF56690" begin="0" fromJunction="J13" toJunction="J12" end="360" vehsPerHour="22.572631233542882" departLane="free" arrivalSpeed="0.0"/>
  <flow id="JF56691" begin="0" fromJunction="J13" toJunction="J16" end="360" vehsPerHour="49.08536888884756" departLane="free" arrivalSpeed="0.0"/>
  <flow id="JF56692" begin="0" fromJunction="J13" toJunction="J2" end="360" vehsPerHour="52.74350915738004" departLane="free" arrivalSpeed="0.0"/>
  <flow id="JF56693" begin="0" fromJunction="J13" toJunction="J3" end="360" vehsPerHour="39.548105250376985" departLane="free" arrivalSpeed="0.0"/>
  <flow id="JF56694" begin="0" fromJunction="J13" toJunction="J6" end="360" vehsPerHour="0.5795325580574294" departLane="free" arrivalSpeed="0.0"/>
  <flow id="JF56695" begin="0" fromJunction="J13" toJunction="J8" end="360" vehsPerHour="33.941308202746676" departLane="free" arrivalSpeed="0.0"/>
  <flow id="JF56696" begin="0" fromJunction="J13" toJunction="J9" end="360" vehsPerHour="4.680634686611496" departLane="free" arrivalSpeed="0.0"/>
  <flow id="JF56697" begin="0" fromJunction="J14" toJunction="J12" end="360" vehsPerHour="66.42254623963743" departLane="free" arrivalSpeed="0.0"/>
  <flow id="JF56698" begin="0" fromJunction="J14" toJunction="J13" end="360" vehsPerHour="13.810066194617185" departLane="free" arrivalSpeed="0.0"/>
  <flow id="JF56699" begin="0" fromJunction="J14" toJunction="J15" end="360" vehsPerHour="38.03715661196033" departLane="free" arrivalSpeed="0.0"/>
  <flow id="JF56700" begin="0" fromJunction="J14" toJunction="J16" end="360" vehsPerHour="15.068019369915683" departLane="free" arrivalSpeed="0.0"/>
  <flow id="JF56701" begin="0" fromJunction="J14" toJunction="J2" end="360" vehsPerHour="52.31438877010862" departLane="free" arrivalSpeed="0.0"/>
  <flow id="JF56702" begin="0" fromJunction="J14" toJunction="J3" end="360" vehsPerHour="18.636281508672102" departLane="free" arrivalSpeed="0.0"/>
  <flow id="JF56703" begin="0" fromJunction="J14" toJunction="J6" end="360" vehsPerHour="62.47148781109273" departLane="free" arrivalSpeed="0.0"/>
  <flow id="JF56704" begin="0" fromJunction="J14" toJunction="J8" end="360" vehsPerHour="67.25376386735182" departLane="free" arrivalSpeed="0.0"/>
  <flow id="JF56705" begin="0" fromJunction="J15" toJunction="J0" end="360" vehsPerHour="29.012842712756623" departLane="free" arrivalSpeed="0.0"/>
  <flow id="JF56706" begin="0" fromJunction="J15" toJunction="J13" end="360" vehsPerHour="49.99075251382169" departLane="free" arrivalSpeed="0.0"/>
  <flow id="JF56707" begin="0" fromJunction="J15" toJunction="J14" end="360" vehsPerHour="11.248758961280585" departLane="free" arrivalSpeed="0.0"/>
  <flow id="JF56708" begin="0" fromJunction="J15" toJunction="J16" end="360" vehsPerHour="23.96458221952834" departLane="free" arrivalSpeed="0.0"/>
  <flow id="JF56709" begin="0" fromJunction="J15" toJunction="J2" end="360" vehsPerHour="16.074215117532766" departLane="free" arrivalSpeed="0.0"/>
  <flow id="JF56710" begin="0" fromJunction="J15" toJunction="J3" end="360" vehsPerHour="33.967837124640134" departLane="free" arrivalSpeed="0.0"/>
  <flow id="JF56711" begin="0" fromJunction="J15" toJunction="J8" end="360" vehsPerHour="30.684234135820848" departLane="free" arrivalSpeed="0.0"/>
  <flow id="JF56712" begin="0" fromJunction="J15" toJunction="J9" end="360" vehsPerHour="45.05252148286054" departLane="free" arrivalSpeed="0.0"/>
  <flow id="JF56713" begin="0" fromJunction="J16" toJunction="J12" end="360" vehsPerHour="56.56624401147942" departLane="free" arrivalSpeed="0.0"/>
  <flow id="JF56714" begin="0" fromJunction="J16" toJunction="J15" end="360" vehsPerHour="14.403214164778904" departLane="free" arrivalSpeed="0.0"/>
  <flow id="JF56715" begin="0" fromJunction="J16" toJunction="J6" end="360" vehsPerHour="61.06606056087966" departLane="free" arrivalSpeed="0.0"/>
  <flow id="JF56716" begin="0" fromJunction="J16" toJunction="J7" end="360" vehsPerHour="38.529461009299716" departLane="free" arrivalSpeed="0.0"/>
  <flow id="JF56717" begin="0" fromJunction="J16" toJunction="J9" end="360" vehsPerHour="84.84784528154968" departLane="free" arrivalSpeed="0.0"/>
  <flow id="JF56718" begin="0" fromJunction="J2" toJunction="J0" end="360" vehsPerHour="100.94091499704989" departLane="free" arrivalSpeed="0.0"/>
  <flow id="JF56719" begin="0" fromJunction="J2" toJunction="J13" end="360" vehsPerHour="85.84536131263172" departLane="free" arrivalSpeed="0.0"/>
  <flow id="JF56720" begin="0" fromJunction="J2" toJunction="J14" end="360" vehsPerHour="68.26802862317116" departLane="free" arrivalSpeed="0.0"/>
  <flow id="JF56721" begin="0" fromJunction="J2" toJunction="J15" end="360" vehsPerHour="107.82958709957421" departLane="free" arrivalSpeed="0.0"/>
  <flow id="JF56722" begin="0" fromJunction="J2" toJunction="J3" end="360" vehsPerHour="128.65659446846726" departLane="free" arrivalSpeed="0.0"/>
  <flow id="JF56723" begin="0" fromJunction="J2" toJunction="J6" end="360" vehsPerHour="3.774633122838376" departLane="free" arrivalSpeed="0.0"/>
  <flow id="JF56724" begin="0" fromJunction="J2" toJunction="J7" end="360" vehsPerHour="34.65989099664608" departLane="free" arrivalSpeed="0.0"/>
  <flow id="JF56725" begin="0" fromJunction="J3" toJunction="J0" end="360" vehsPerHour="34.33634644685669" departLane="free" arrivalSpeed="0.0"/>
  <flow id="JF56726" begin="0" fromJunction="J3" toJunction="J12" end="360" vehsPerHour="31.915990665392286" departLane="free" arrivalSpeed="0.0"/>
  <flow id="JF56727" begin="0" fromJunction="J3" toJunction="J15" end="360" vehsPerHour="35.94658270219457" departLane="free" arrivalSpeed="0.0"/>
  <flow id="JF56728" begin="0" fromJunction="J3" toJunction="J16" end="360" vehsPerHour="58.515163528672815" departLane="free" arrivalSpeed="0.0"/>
  <flow id="JF56729" begin="0" fromJunction="J3" toJunction="J6" end="360" vehsPerHour="6.68969796712538" departLane="free" arrivalSpeed="0.0"/>
  <flow id="JF56730" begin="0" fromJunction="J3" toJunction="J8" end="360" vehsPerHour="19.054224541175763" departLane="free" arrivalSpeed="0.0"/>
  <flow id="JF56731" begin="0" fromJunction="J3" toJunction="J9" end="360" vehsPerHour="5.477549299500737" departLane="free" arrivalSpeed="0.0"/>
  <flow id="JF56732" begin="0" fromJunction="J6" toJunction="J0" end="360" vehsPerHour="0.3358141779888277" departLane="free" arrivalSpeed="0.0"/>
  <flow id="JF56733" begin="0" fromJunction="J6" toJunction="J13" end="360" vehsPerHour="54.18391579396261" departLane="free" arrivalSpeed="0.0"/>
  <flow id="JF56734" begin="0" fromJunction="J6" toJunction="J14" end="360" vehsPerHour="29.868838067392787" departLane="free" arrivalSpeed="0.0"/>
  <flow id="JF56735" begin="0" fromJunction="J6" toJunction="J15" end="360" vehsPerHour="2.9320100791469113" departLane="free" arrivalSpeed="0.0"/>
  <flow id="JF56736" begin="0" fromJunction="J6" toJunction="J3" end="360" vehsPerHour="2.632482610870226" departLane="free" arrivalSpeed="0.0"/>
  <flow id="JF56737" begin="0" fromJunction="J6" toJunction="J7" end="360" vehsPerHour="30.904937292931997" departLane="free" arrivalSpeed="0.0"/>
  <flow id="JF56738" begin="0" fromJunction="J6" toJunction="J8" end="360" vehsPerHour="36.04649446988458" departLane="free" arrivalSpeed="0.0"/>
  <flow id="JF56739" begin="0" fromJunction="J7" toJunction="J0" end="360" vehsPerHour="30.777951147940954" departLane="free" arrivalSpeed="0.0"/>
  <flow id="JF56740" begin="0" fromJunction="J7" toJunction="J12" end="360" vehsPerHour="6.533803911113556" departLane="free" arrivalSpeed="0.0"/>
  <flow id="JF56741" begin="0" fromJunction="J7" toJunction="J15" end="360" vehsPerHour="50.77840760471049" departLane="free" arrivalSpeed="0.0"/>
  <flow id="JF56742" begin="0" fromJunction="J7" toJunction="J16" end="360" vehsPerHour="65.61427651303909" departLane="free" arrivalSpeed="0.0"/>
  <flow id="JF56743" begin="0" fromJunction="J7" toJunction="J3" end="360" vehsPerHour="54.82957164617473" departLane="free" arrivalSpeed="0.0"/>
  <flow id="JF56744" begin="0" fromJunction="J7" toJunction="J6" end="360" vehsPerHour="32.61397026503384" departLane="free" arrivalSpeed="0.0"/>
  <flow id="JF56745" begin="0" fromJunction="J7" toJunction="J8" end="360" vehsPerHour="56.457149005402165" departLane="free" arrivalSpeed="0.0"/>
  <flow id="JF56746" begin="0" fromJunction="J7" toJunction="J9" end="360" vehsPerHour="55.976320558973285" departLane="free" arrivalSpeed="0.0"/>
  <flow id="JF56747" begin="0" fromJunction="J8" toJunction="J0" end="360" vehsPerHour="19.21742631959449" departLane="free" arrivalSpeed="0.0"/>
  <flow id="JF56748" begin="0" fromJunction="J8" toJunction="J16" end="360" vehsPerHour="37.839164748760396" departLane="free" arrivalSpeed="0.0"/>
  <flow id="JF56749" begin="0" fromJunction="J8" toJunction="J3" end="360" vehsPerHour="63.46673845238754" departLane="free" arrivalSpeed="0.0"/>
  <flow id="JF56750" begin="0" fromJunction="J8" toJunction="J6" end="360" vehsPerHour="7.456201057872251" departLane="free" arrivalSpeed="0.0"/>
  <flow id="JF56751" begin="0" fromJunction="J8" toJunction="J7" end="360" vehsPerHour="5.946711169387311" departLane="free" arrivalSpeed="0.0"/>
  <flow id="JF56752" begin="0" fromJunction="J9" toJunction="J0" end="360" vehsPerHour="27.116284711276737" departLane="free" arrivalSpeed="0.0"/>
  <flow id="JF56753" begin="0" fromJunction="J9" toJunction="J12" end="360" vehsPerHour="15.385983682870338" departLane="free" arrivalSpeed="0.0"/>
  <flow id="JF56754" begin="0" fromJunction="J9" toJunction="J13" end="360" vehsPerHour="8.980984266839851" departLane="free" arrivalSpeed="0.0"/>
  <flow id="JF56755" begin="0" fromJunction="J9" toJunction="J14" end="360" vehsPerHour="36.0598432098802" departLane="free" arrivalSpeed="0.0"/>
  <flow id="JF56756" begin="0" fromJunction="J9" toJunction="J15" end="360" vehsPerHour="48.59933745435393" departLane="free" arrivalSpeed="0.0"/>
  <flow id="JF56757" begin="0" fromJunction="J9" toJunction="J16" end="360" vehsPerHour="38.607992405326684" departLane="free" arrivalSpeed="0.0"/>
  <flow id="JF56758" begin="0" fromJunction="J9" toJunction="J2" end="360" vehsPerHour="61.77232914749793" departLane="free" arrivalSpeed="0.0"/>
  <flow id="JF56759" begin="0" fromJunction="J9" toJunction="J3" end="360" vehsPerHour="6.343285244422551" departLane="free" arrivalSpeed="0.0"/>
  <flow id="JF56760" begin="0" fromJunction="J9" toJunction="J7" end="360" vehsPerHour="49.83727263343001" departLane="free" arrivalSpeed="0.0"/>
  <flow id="JF56761" begin="0" fromJunction="J9" toJunction="J8" end="360" vehsPerHour="64.78061535563863" departLane="free" arrivalSpeed="0.0"/>
  <flow id="JF56762" begin="360" fromJunction="J0" toJunction="J12" end="720" vehsPerHour="35.86453511965209" departLane="free" arrivalSpeed="0.0"/>
  <flow id="JF56763" begin="360" fromJunction="J0" toJunction="J13" end="720" vehsPerHour="44.93104315582969" departLane="free" arrivalSpeed="0.0"/>
  <flow id="JF56764" begin="360" fromJunction="J0" toJunction="J14" end="720" vehsPerHour="0.3295571784655034" departLane="free" arrivalSpeed="0.0"/>
  <flow id="JF56765" begin="360" fromJunction="J0" toJunction="J16" end="720" vehsPerHour="60.49307715199928" departLane="free" arrivalSpeed="0.0"/>
  <flow id="JF56766" begin="360" fromJunction="J0" toJunction="J2" end="720" vehsPerHour="67.58439251235839" departLane="free" arrivalSpeed="0.0"/>
  <flow id="JF56767" begin="360" fromJunction="J0" toJunction="J3" end="720" vehsPerHour="53.12520975683829" departLane="free" arrivalSpeed="0.0"/>
  <flow id="JF56768" begin="360" fromJunction="J0" toJunction="J6" end="720" vehsPerHour="66.31578682937408" departLane="free" arrivalSpeed="0.0"/>
  <flow id="JF56769" begin="360" fromJunction="J0" toJunction="J8" end="720" vehsPerHour="40.86875871005324" departLane="free" arrivalSpeed="0.0"/>
  <flow id="JF56770" begin="360" fromJunction="J0" toJunction="J9" end="720" vehsPerHour="39.548773760611866" departLane="free" arrivalSpeed="0.0"/>
  <flow id="JF56771" begin="360" fromJunction="J12" toJunction="J0" end="720" vehsPerHour="12.619247767450053" departLane="free" arrivalSpeed="0.0"/>
  <flow id="JF56772" begin="360" fromJunction="J12" toJunction="J13" end="720" vehsPerHour="50.652416682669404" departLane="free" arrivalSpeed="0.0"/>
  <flow id="JF56773" begin="360" fromJunction="J12" toJunction="J15" end="720" vehsPerHour="64.40895315278412" departLane="free" arrivalSpeed="0.0"/>
  <flow id="JF56774" begin="360" fromJunction="J12" toJunction="J16" end="720" vehsPerHour="4.987564517279845" departLane="free" arrivalSpeed="0.0"/>
  <flow id="JF56775" begin="360" fromJunction="J12" toJunction="J8" end="720" vehsPerHour="36.185689010212606" departLane="free" arrivalSpeed="0.0"/>
  <flow id="JF56776" begin="360" fromJunction="J12" toJunction="J9" end="720" vehsPerHour="66.10047165507441" departLane="free" arrivalSpeed="0.0"/>
  <flow id="JF56777" begin="360" fromJunction="J13" toJunction="J0" end="720" vehsPerHour="47.30231811965102" departLane="free" arrivalSpeed="0.0"/>
  <flow id="JF56778" begin="360" fromJunction="J13" toJunction="J12" end="720" vehsPerHour="5.1363432919179575" departLane="free" arrivalSpeed="0.0"/>
  <flow id="JF56779" begin="360" fromJunction="J13" toJunction="J15" end="720" vehsPerHour="38.84759600604497" departLane="free" arrivalSpeed="0.0"/>
  <flow id="JF56780" begin="360" fromJunction="J13" toJunction="J2" end="720" vehsPerHour="37.513584717197084" departLane="free" arrivalSpeed="0.0"/>
  <flow id="JF56781" begin="360" fromJunction="J13" toJunction="J6" end="720" vehsPerHour="42.777735170673004" departLane="free" arrivalSpeed="0.0"/>
  <flow id="JF56782" begin="360" fromJunction="J13" toJunction="J7" end="720" vehsPerHour="52.8879213722047" departLane="free" arrivalSpeed="0.0"/>
  <flow id="JF56783" begin="360" fromJunction="J13" toJunction="J8" end="720" vehsPerHour="48.89566273700298" departLane="free" arrivalSpeed="0.0"/>
  <flow id="JF56784" begin="360" fromJunction="J14" toJunction="J0" end="720" vehsPerHour="34.0915512370048" departLane="free" arrivalSpeed="0.0"/>
  <flow id="JF56785" begin="360" fromJunction="J14" toJunction="J12" end="720" vehsPerHour="25.50408088754733" departLane="free" arrivalSpeed="0.0"/>
  <flow id="JF56786" begin="360" fromJunction="J14" toJunction="J15" end="720" vehsPerHour="63.79473549998661" departLane="free" arrivalSpeed="0.0"/>
  <flow id="JF56787" begin="360" fromJunction="J14" toJunction="J16" end="720" vehsPerHour="32.985357994465836" departLane="free" arrivalSpeed="0.0"/>
  <flow id="JF56788" begin="360" fromJunction="J14" toJunction="J6" end="720" vehsPerHour="17.77816404690516" departLane="free" arrivalSpeed="0.0"/>
  <flow id="JF56789" begin="360" fromJunction="J14" toJunction="J8" end="720" vehsPerHour="3.4805971882873004" departLane="free" arrivalSpeed="0.0"/>
  <flow id="JF56790" begin="360" fromJunction="J14" toJunction="J9" end="720" vehsPerHour="65.19834862697974" departLane="free" arrivalSpeed="0.0"/>
  <flow id="JF56791" begin="360" fromJunction="J15" toJunction="J0" end="720" vehsPerHour="60.367453788242145" departLane="free" arrivalSpeed="0.0"/>
  <flow id="JF56792" begin="360" fromJunction="J15" toJunction="J12" end="720" vehsPerHour="26.126098549451896" departLane="free" arrivalSpeed="0.0"/>
  <flow id="JF56793" begin="360" fromJunction="J15" toJunction="J13" end="720" vehsPerHour="54.1181212431432" departLane="free" arrivalSpeed="0.0"/>
  <flow id="JF56794" begin="360" fromJunction="J15" toJunction="J14" end="720" vehsPerHour="23.031906274615494" departLane="free" arrivalSpeed="0.0"/>
  <flow id="JF56795" begin="360" fromJunction="J15" toJunction="J16" end="720" vehsPerHour="11.552409704972757" departLane="free" arrivalSpeed="0.0"/>
  <flow id="JF56796" begin="360" fromJunction="J15" toJunction="J2" end="720" vehsPerHour="56.89592601675018" departLane="free" arrivalSpeed="0.0"/>
  <flow id="JF56797" begin="360" fromJunction="J15" toJunction="J6" end="720" vehsPerHour="59.07270974398976" departLane="free" arrivalSpeed="0.0"/>
  <flow id="JF56798" begin="360" fromJunction="J15" toJunction="J7" end="720" vehsPerHour="50.53344626730659" departLane="free" arrivalSpeed="0.0"/>
  <flow id="JF56799" begin="360" fromJunction="J15" toJunction="J8" end="720" vehsPerHour="30.49471470913183" departLane="free" arrivalSpeed="0.0"/>
  <flow id="JF56800" begin="360" fromJunction="J15" toJunction="J9" end="720" vehsPerHour="52.23230877369964" departLane="free" arrivalSpeed="0.0"/>
  <flow id="JF56801" begin="360" fromJunction="J16" toJunction="J0" end="720" vehsPerHour="44.383668829946714" departLane="free" arrivalSpeed="0.0"/>
  <flow id="JF56802" begin="360" fromJunction="J16" toJunction="J12" end="720" vehsPerHour="41.03445986573837" departLane="free" arrivalSpeed="0.0"/>
  <flow id="JF56803" begin="360" fromJunction="J16" toJunction="J13" end="720" vehsPerHour="117.8668346483318" departLane="free" arrivalSpeed="0.0"/>
  <flow id="JF56804" begin="360" fromJunction="J16" toJunction="J15" end="720" vehsPerHour="7.50639407174061" departLane="free" arrivalSpeed="0.0"/>
  <flow id="JF56805" begin="360" fromJunction="J16" toJunction="J2" end="720" vehsPerHour="65.99190126473624" departLane="free" arrivalSpeed="0.0"/>
  <flow id="JF56806" begin="360" fromJunction="J16" toJunction="J3" end="720" vehsPerHour="86.32828416211781" departLane="free" arrivalSpeed="0.0"/>
  <flow id="JF56807" begin="360" fromJunction="J16" toJunction="J6" end="720" vehsPerHour="29.47727677758335" departLane="free" arrivalSpeed="0.0"/>
  <flow id="JF56808" begin="360" fromJunction="J16" toJunction="J7" end="720" vehsPerHour="110.80440906930637" departLane="free" arrivalSpeed="0.0"/>
  <flow id="JF56809" begin="360" fromJunction="J16" toJunction="J8" end="720" vehsPerHour="24.162160496550023" departLane="free" arrivalSpeed="0.0"/>
  <flow id="JF56810" begin="360" fromJunction="J2" toJunction="J0" end="720" vehsPerHour="85.63714487050476" departLane="free" arrivalSpeed="0.0"/>
  <flow id="JF56811" begin="360" fromJunction="J2" toJunction="J12" end="720" vehsPerHour="31.259827232480145" departLane="free" arrivalSpeed="0.0"/>
  <flow id="JF56812" begin="360" fromJunction="J2" toJunction="J13" end="720" vehsPerHour="126.37939327918058" departLane="free" arrivalSpeed="0.0"/>
  <flow id="JF56813" begin="360" fromJunction="J2" toJunction="J14" end="720" vehsPerHour="127.84920598441936" departLane="free" arrivalSpeed="0.0"/>
  <flow id="JF56814" begin="360" fromJunction="J2" toJunction="J15" end="720" vehsPerHour="132.7620841237774" departLane="free" arrivalSpeed="0.0"/>
  <flow id="JF56815" begin="360" fromJunction="J2" toJunction="J3" end="720" vehsPerHour="55.605485201364154" departLane="free" arrivalSpeed="0.0"/>
  <flow id="JF56816" begin="360" fromJunction="J2" toJunction="J6" end="720" vehsPerHour="114.94272285211225" departLane="free" arrivalSpeed="0.0"/>
  <flow id="JF56817" begin="360" fromJunction="J2" toJunction="J7" end="720" vehsPerHour="53.695028759950304" departLane="free" arrivalSpeed="0.0"/>
  <flow id="JF56818" begin="360" fromJunction="J2" toJunction="J9" end="720" vehsPerHour="60.832149286888374" departLane="free" arrivalSpeed="0.0"/>
  <flow id="JF56819" begin="360" fromJunction="J3" toJunction="J0" end="720" vehsPerHour="25.985400327768087" departLane="free" arrivalSpeed="0.0"/>
  <flow id="JF56820" begin="360" fromJunction="J3" toJunction="J12" end="720" vehsPerHour="54.68795742848238" departLane="free" arrivalSpeed="0.0"/>
  <flow id="JF56821" begin="360" fromJunction="J3" toJunction="J13" end="720" vehsPerHour="33.44593964892051" departLane="free" arrivalSpeed="0.0"/>
  <flow id="JF56822" begin="360" fromJunction="J3" toJunction="J14" end="720" vehsPerHour="2.1852858950691463" departLane="free" arrivalSpeed="0.0"/>
  <flow id="JF56823" begin="360" fromJunction="J3" toJunction="J15" end="720" vehsPerHour="33.34269143197085" departLane="free" arrivalSpeed="0.0"/>
  <flow id="JF56824" begin="360" fromJunction="J3" toJunction="J16" end="720" vehsPerHour="60.63499226398042" departLane="free" arrivalSpeed="0.0"/>
  <flow id="JF56825" begin="360" fromJunction="J3" toJunction="J2" end="720" vehsPerHour="64.0000076120548" departLane="free" arrivalSpeed="0.0"/>
  <flow id="JF56826" begin="360" fromJunction="J3" toJunction="J6" end="720" vehsPerHour="21.570601458030055" departLane="free" arrivalSpeed="0.0"/>
  <flow id="JF56827" begin="360" fromJunction="J3" toJunction="J7" end="720" vehsPerHour="4.304149078735001" departLane="free" arrivalSpeed="0.0"/>
  <flow id="JF56828" begin="360" fromJunction="J3" toJunction="J8" end="720" vehsPerHour="40.970636208703176" departLane="free" arrivalSpeed="0.0"/>
  <flow id="JF56829" begin="360" fromJunction="J6" toJunction="J0" end="720" vehsPerHour="26.52022382861899" departLane="free" arrivalSpeed="0.0"/>
  <flow id="JF56830" begin="360" fromJunction="J6" toJunction="J15" end="720" vehsPerHour="68.0921313717169" departLane="free" arrivalSpeed="0.0"/>
  <flow id="JF56831" begin="360" fromJunction="J6" toJunction="J16" end="720" vehsPerHour="16.674007306182915" departLane="free" arrivalSpeed="0.0"/>
  <flow id="JF56832" begin="360" fromJunction="J6" toJunction="J3" end="720" vehsPerHour="18.47932715066506" departLane="free" arrivalSpeed="0.0"/>
  <flow id="JF56833" begin="360" fromJunction="J6" toJunction="J8" end="720" vehsPerHour="8.079134414723457" departLane="free" arrivalSpeed="0.0"/>
  <flow id="JF56834" begin="360" fromJunction="J7" toJunction="J12" end="720" vehsPerHour="28.53499841225787" departLane="free" arrivalSpeed="0.0"/>
  <flow id="JF56835" begin="360" fromJunction="J7" toJunction="J13" end="720" vehsPerHour="23.108519829028467" departLane="free" arrivalSpeed="0.0"/>
  <flow id="JF56836" begin="360" fromJunction="J7" toJunction="J14" end="720" vehsPerHour="10.310363409957192" departLane="free" arrivalSpeed="0.0"/>
  <flow id="JF56837" begin="360" fromJunction="J7" toJunction="J15" end="720" vehsPerHour="14.799565309869381" departLane="free" arrivalSpeed="0.0"/>
  <flow id="JF56838" begin="360" fromJunction="J7" toJunction="J2" end="720" vehsPerHour="54.31354618405373" departLane="free" arrivalSpeed="0.0"/>
  <flow id="JF56839" begin="360" fromJunction="J7" toJunction="J3" end="720" vehsPerHour="67.95297896213845" departLane="free" arrivalSpeed="0.0"/>
  <flow id="JF56840" begin="360" fromJunction="J7" toJunction="J8" end="720" vehsPerHour="9.64543249992388" departLane="free" arrivalSpeed="0.0"/>
  <flow id="JF56841" begin="360" fromJunction="J7" toJunction="J9" end="720" vehsPerHour="19.287851006761194" departLane="free" arrivalSpeed="0.0"/>
  <flow id="JF56842" begin="360" fromJunction="J8" toJunction="J0" end="720" vehsPerHour="31.66752724574903" departLane="free" arrivalSpeed="0.0"/>
  <flow id="JF56843" begin="360" fromJunction="J8" toJunction="J12" end="720" vehsPerHour="8.941394609917474" departLane="free" arrivalSpeed="0.0"/>
  <flow id="JF56844" begin="360" fromJunction="J8" toJunction="J13" end="720" vehsPerHour="45.56306686592437" departLane="free" arrivalSpeed="0.0"/>
  <flow id="JF56845" begin="360" fromJunction="J8" toJunction="J14" end="720" vehsPerHour="12.99220631087517" departLane="free" arrivalSpeed="0.0"/>
  <flow id="JF56846" begin="360" fromJunction="J8" toJunction="J16" end="720" vehsPerHour="30.747491809646334" departLane="free" arrivalSpeed="0.0"/>
  <flow id="JF56847" begin="360" fromJunction="J8" toJunction="J2" end="720" vehsPerHour="6.030472299359559" departLane="free" arrivalSpeed="0.0"/>
  <flow id="JF56848" begin="360" fromJunction="J8" toJunction="J3" end="720" vehsPerHour="60.27371928013629" departLane="free" arrivalSpeed="0.0"/>
  <flow id="JF56849" begin="360" fromJunction="J8" toJunction="J9" end="720" vehsPerHour="21.227796348081412" departLane="free" arrivalSpeed="0.0"/>
  <flow id="JF56850" begin="360" fromJunction="J9" toJunction="J14" end="720" vehsPerHour="23.595791717095903" departLane="free" arrivalSpeed="0.0"/>
  <flow id="JF56851" begin="360" fromJunction="J9" toJunction="J15" end="720" vehsPerHour="59.589577465138184" departLane="free" arrivalSpeed="0.0"/>
  <flow id="JF56852" begin="360" fromJunction="J9" toJunction="J16" end="720" vehsPerHour="56.8768661934554" departLane="free" arrivalSpeed="0.0"/>
  <flow id="JF56853" begin="360" fromJunction="J9" toJunction="J2" end="720" vehsPerHour="67.95229391312684" departLane="free" arrivalSpeed="0.0"/>
  <flow id="JF56854" begin="360" fromJunction="J9" toJunction="J3" end="720" vehsPerHour="57.41999370136182" departLane="free" arrivalSpeed="0.0"/>
  <flow id="JF56855" begin="360" fromJunction="J9" toJunction="J6" end="720" vehsPerHour="22.274121762929358" departLane="free" arrivalSpeed="0.0"/>
  <flow id="JF56856" begin="720" fromJunction="J0" toJunction="J12" end="1080" vehsPerHour="65.60457301599045" departLane="free" arrivalSpeed="0.0"/>
  <flow id="JF56857" begin="720" fromJunction="J0" toJunction="J15" end="1080" vehsPerHour="41.19898995512975" departLane="free" arrivalSpeed="0.0"/>
  <flow id="JF56858" begin="720" fromJunction="J0" toJunction="J16" end="1080" vehsPerHour="31.56705870406162" departLane="free" arrivalSpeed="0.0"/>
  <flow id="JF56859" begin="720" fromJunction="J0" toJunction="J6" end="1080" vehsPerHour="4.415655934224877" departLane="free" arrivalSpeed="0.0"/>
  <flow id="JF56860" begin="720" fromJunction="J0" toJunction="J7" end="1080" vehsPerHour="4.310438747091508" departLane="free" arrivalSpeed="0.0"/>
  <flow id="JF56861" begin="720" fromJunction="J0" toJunction="J9" end="1080" vehsPerHour="39.73955724317601" departLane="free" arrivalSpeed="0.0"/>
  <flow id="JF56862" begin="720" fromJunction="J12" toJunction="J0" end="1080" vehsPerHour="54.39940861328587" departLane="free" arrivalSpeed="0.0"/>
  <flow id="JF56863" begin="720" fromJunction="J12" toJunction="J14" end="1080" vehsPerHour="28.978333240944536" departLane="free" arrivalSpeed="0.0"/>
  <flow id="JF56864" begin="720" fromJunction="J12" toJunction="J15" end="1080" vehsPerHour="45.61996471312891" departLane="free" arrivalSpeed="0.0"/>
  <flow id="JF56865" begin="720" fromJunction="J12" toJunction="J3" end="1080" vehsPerHour="32.92532816375709" departLane="free" arrivalSpeed="0.0"/>
  <flow id="JF56866" begin="720" fromJunction="J12" toJunction="J6" end="1080" vehsPerHour="10.773600445774962" departLane="free" arrivalSpeed="0.0"/>
  <flow id="JF56867" begin="720" fromJunction="J12" toJunction="J7" end="1080" vehsPerHour="30.633590474216852" departLane="free" arrivalSpeed="0.0"/>
  <flow id="JF56868" begin="720" fromJunction="J12" toJunction="J8" end="1080" vehsPerHour="25.971196531223153" departLane="free" arrivalSpeed="0.0"/>
  <flow id="JF56869" begin="720" fromJunction="J13" toJunction="J0" end="1080" vehsPerHour="33.17646449395239" departLane="free" arrivalSpeed="0.0"/>
  <flow id="JF56870" begin="720" fromJunction="J13" toJunction="J12" end="1080" vehsPerHour="60.51589869630044" departLane="free" arrivalSpeed="0.0"/>
  <flow id="JF56871" begin="720" fromJunction="J13" toJunction="J14" end="1080" vehsPerHour="40.59645198288894" departLane="free" arrivalSpeed="0.0"/>
  <flow id="JF56872" begin="720" fromJunction="J13" toJunction="J15" end="1080" vehsPerHour="42.02257612007705" departLane="free" arrivalSpeed="0.0"/>