<?xml version="1.0" encoding="UTF-8"?>
<routes xmlns:xsi="http://www.w3.org/2001/XMLSchema-instance" xsi:noNamespaceSchemaLocation="http://sumo.dlr.de/xsd/routes_file.xsd">
  <flow id="JF84070" begin="0" fromJunction="J0" toJunction="J3" end="60" vehsPerHour="416.8120257094241" departLane="free"/>
  <flow id="JF84071" begin="0" fromJunction="J0" toJunction="J4" end="60" vehsPerHour="41.93444409176359" departLane="free"/>
  <flow id="JF84072" begin="0" fromJunction="J0" toJunction="J5" end="60" vehsPerHour="66.12196053849682" departLane="free"/>
  <flow id="JF84073" begin="0" fromJunction="J0" toJunction="J6" end="60" vehsPerHour="361.60073211449264" departLane="free"/>
  <flow id="JF84074" begin="0" fromJunction="J3" toJunction="J0" end="60" vehsPerHour="158.55808447686886" departLane="free"/>
  <flow id="JF84075" begin="0" fromJunction="J3" toJunction="J4" end="60" vehsPerHour="351.6614438522213" departLane="free"/>
  <flow id="JF84076" begin="0" fromJunction="J3" toJunction="J5" end="60" vehsPerHour="167.6135166743221" departLane="free"/>
  <flow id="JF84077" begin="0" fromJunction="J4" toJunction="J0" end="60" vehsPerHour="103.38484714455237" departLane="free"/>
  <flow id="JF84078" begin="0" fromJunction="J4" toJunction="J3" end="60" vehsPerHour="266.06247913868975" departLane="free"/>
  <flow id="JF84079" begin="0" fromJunction="J4" toJunction="J5" end="60" vehsPerHour="247.86780545068825" departLane="free"/>
  <flow id="JF84080" begin="0" fromJunction="J4" toJunction="J6" end="60" vehsPerHour="86.01004936776496" departLane="free"/>
  <flow id="JF84081" begin="0" fromJunction="J4" toJunction="J7" end="60" vehsPerHour="155.5332612047531" departLane="free"/>
  <flow id="JF84082" begin="0" fromJunction="J5" toJunction="J0" end="60" vehsPerHour="195.98597605074445" departLane="free"/>
  <flow id="JF84083" begin="0" fromJunction="J5" toJunction="J3" end="60" vehsPerHour="138.11239986397663" departLane="free"/>
  <flow id="JF84084" begin="0" fromJunction="J5" toJunction="J6" end="60" vehsPerHour="145.21671487177593" departLane="free"/>
  <flow id="JF84085" begin="0" fromJunction="J5" toJunction="J7" end="60" vehsPerHour="82.26842431168542" departLane="free"/>
  <flow id="JF84086" begin="0" fromJunction="J6" toJunction="J3" end="60" vehsPerHour="60.909819990967144" departLane="free"/>
  <flow id="JF84087" begin="0" fromJunction="J6" toJunction="J4" end="60" vehsPerHour="100.66019704479051" departLane="free"/>
  <flow id="JF84088" begin="0" fromJunction="J6" toJunction="J7" end="60" vehsPerHour="71.42233221013494" departLane="free"/>
  <flow id="JF84089" begin="0" fromJunction="J7" toJunction="J0" end="60" vehsPerHour="182.52006220692834" departLane="free"/>
  <flow id="JF84090" begin="0" fromJunction="J7" toJunction="J3" end="60" vehsPerHour="96.22214695921781" departLane="free"/>
  <flow id="JF84091" begin="60" fromJunction="J0" toJunction="J5" end="120" vehsPerHour="246.42952159880403" departLane="free"/>
  <flow id="JF84092" begin="60" fromJunction="J0" toJunction="J6" end="120" vehsPerHour="121.51043722356324" departLane="free"/>
  <flow id="JF84093" begin="60" fromJunction="J0" toJunction="J7" end="120" vehsPerHour="327.9567385108398" departLane="free"/>
  <flow id="JF84094" begin="60" fromJunction="J3" toJunction="J6" end="120" vehsPerHour="195.83782768639176" departLane="free"/>
  <flow id="JF84095" begin="60" fromJunction="J3" toJunction="J7" end="120" vehsPerHour="155.81071632541432" departLane="free"/>
  <flow id="JF84096" begin="60" fromJunction="J4" toJunction="J0" end="120" vehsPerHour="123.14529331310565" departLane="free"/>
  <flow id="JF84097" begin="60" fromJunction="J4" toJunction="J3" end="120" vehsPerHour="24.085448920187407" departLane="free"/>
  <flow id="JF84098" begin="60" fromJunction="J4" toJunction="J5" end="120" vehsPerHour="34.455320870966425" departLane="free"/>
  <flow id="JF84099" begin="60" fromJunction="J4" toJunction="J6" end="120" vehsPerHour="148.52146823306532" departLane="free"/>
  <flow id="JF84100" begin="60" fromJunction="J4" toJunction="J7" end="120" vehsPerHour="245.47439516387863" departLane="free"/>
  <flow id="JF84101" begin="60" fromJunction="J5" toJunction="J0" end="120" vehsPerHour="54.27776415063286" departLane="free"/>
  <flow id="JF84102" begin="60" fromJunction="J5" toJunction="J4" end="120" vehsPerHour="120.7193876353291" departLane="free"/>
  <flow id="JF84103" begin="60" fromJunction="J5" toJunction="J6" end="120" vehsPerHour="152.04746476364403" departLane="free"/>
  <flow id="JF84104" begin="60" fromJunction="J6" toJunction="J0" end="120" vehsPerHour="83.8108889086921" departLane="free"/>
  <flow id="JF84105" begin="60" fromJunction="J6" toJunction="J4" end="120" vehsPerHour="170.82522424192442" departLane="free"/>
  <flow id="JF84106" begin="60" fromJunction="J6" toJunction="J5" end="120" vehsPerHour="54.75529556791155" departLane="free"/>
  <flow id="JF84107" begin="60" fromJunction="J6" toJunction="J7" end="120" vehsPerHour="121.53628120972186" departLane="free"/>
  <flow id="JF84108" begin="60" fromJunction="J7" toJunction="J0" end="120" vehsPerHour="96.52978107321378" departLane="free"/>
  <flow id="JF84109" begin="60" fromJunction="J7" toJunction="J3" end="120" vehsPerHour="268.8783025880121" departLane="free"/>
  <flow id="JF84110" begin="60" fromJunction="J7" toJunction="J4" end="120" vehsPerHour="69.87959421549974" departLane="free"/>
  <flow id="JF84111" begin="60" fromJunction="J7" toJunction="J5" end="120" vehsPerHour="265.82716672919355" departLane="free"/>
  <flow id="JF84112" begin="120" fromJunction="J0" toJunction="J3" end="180" vehsPerHour="202.36915690332785" departLane="free"/>
  <flow id="JF84113" begin="120" fromJunction="J0" toJunction="J4" end="180" vehsPerHour="222.25651257577144" departLane="free"/>
  <flow id="JF84114" begin="120" fromJunction="J0" toJunction="J5" end="180" vehsPerHour="16.33284069334283" departLane="free"/>
  <flow id="JF84115" begin="120" fromJunction="J0" toJunction="J7" end="180" vehsPerHour="353.4923266416209" departLane="free"/>
  <flow id="JF84116" begin="120" fromJunction="J3" toJunction="J0" end="180" vehsPerHour="209.40667579154612" departLane="free"/>
  <flow id="JF84117" begin="120" fromJunction="J3" toJunction="J4" end="180" vehsPerHour="73.59501551054389" departLane="free"/>
  <flow id="JF84118" begin="120" fromJunction="J3" toJunction="J5" end="180" vehsPerHour="325.7711715261511" departLane="free"/>
  <flow id="JF84119" begin="120" fromJunction="J3" toJunction="J6" end="180" vehsPerHour="10.255321239830232" departLane="free"/>
  <flow id="JF84120" begin="120" fromJunction="J3" toJunction="J7" end="180" vehsPerHour="132.6662339975945" departLane="free"/>
  <flow id="JF84121" begin="120" fromJunction="J4" toJunction="J0" end="180" vehsPerHour="158.39527733083682" departLane="free"/>
  <flow id="JF84122" begin="120" fromJunction="J4" toJunction="J6" end="180" vehsPerHour="114.74671949354101" departLane="free"/>
  <flow id="JF84123" begin="120" fromJunction="J4" toJunction="J7" end="180" vehsPerHour="57.73404225906412" departLane="free"/>
  <flow id="JF84124" begin="120" fromJunction="J5" toJunction="J0" end="180" vehsPerHour="136.88797274081472" departLane="free"/>
  <flow id="JF84125" begin="120" fromJunction="J5" toJunction="J3" end="180" vehsPerHour="88.9809872091695" departLane="free"/>
  <flow id="JF84126" begin="120" fromJunction="J5" toJunction="J4" end="180" vehsPerHour="67.98044239318725" departLane="free"/>
  <flow id="JF84127" begin="120" fromJunction="J5" toJunction="J6" end="180" vehsPerHour="208.2371316184644" departLane="free"/>
  <flow id="JF84128" begin="120" fromJunction="J6" toJunction="J0" end="180" vehsPerHour="266.78958628915234" departLane="free"/>
  <flow id="JF84129" begin="120" fromJunction="J7" toJunction="J0" end="180" vehsPerHour="118.50651977968519" departLane="free"/>
  <flow id="JF84130" begin="120" fromJunction="J7" toJunction="J3" end="180" vehsPerHour="219.42796824933714" departLane="free"/>
  <flow id="JF84131" begin="120" fromJunction="J7" toJunction="J5" end="180" vehsPerHour="95.86606301077845" departLane="free"/>
  <flow id="JF84132" begin="180" fromJunction="J0" toJunction="J3" end="240" vehsPerHour="276.3794150478436" departLane="free"/>
  <flow id="JF84133" begin="180" fromJunction="J0" toJunction="J4" end="240" vehsPerHour="286.1441383385134" departLane="free"/>
  <flow id="JF84134" begin="180" fromJunction="J0" toJunction="J5" end="240" vehsPerHour="215.90934401656173" departLane="free"/>
  <flow id="JF84135" begin="180" fromJunction="J0" toJunction="J6" end="240" vehsPerHour="49.22579041883053" departLane="free"/>
  <flow id="JF84136" begin="180" fromJunction="J0" toJunction="J7" end="240" vehsPerHour="63.91817242672959" departLane="free"/>
  <flow id="JF84137" begin="180" fromJunction="J3" toJunction="J4" end="240" vehsPerHour="350.3845907632963" departLane="free"/>
  <flow id="JF84138" begin="180" fromJunction="J3" toJunction="J5" end="240" vehsPerHour="220.56470174802072" departLane="free"/>
  <flow id="JF84139" begin="180" fromJunction="J3" toJunction="J6" end="240" vehsPerHour="15.239429267966507" departLane="free"/>
  <flow id="JF84140" begin="180" fromJunction="J3" toJunction="J7" end="240" vehsPerHour="282.4814117201672" departLane="free"/>
  <flow id="JF84141" begin="180" fromJunction="J4" toJunction="J0" end="240" vehsPerHour="148.50517173913846" departLane="free"/>
  <flow id="JF84142" begin="180" fromJunction="J4" toJunction="J7" end="240" vehsPerHour="270.49806824402623" departLane="free"/>
  <flow id="JF84143" begin="180" fromJunction="J5" toJunction="J3" end="240" vehsPerHour="16.114260311057617" departLane="free"/>
  <flow id="JF84144" begin="180" fromJunction="J5" toJunction="J7" end="240" vehsPerHour="24.880498266917552" departLane="free"/>
  <flow id="JF84145" begin="180" fromJunction="J6" toJunction="J5" end="240" vehsPerHour="249.14629924096215" departLane="free"/>
  <flow id="JF84146" begin="180" fromJunction="J7" toJunction="J0" end="240" vehsPerHour="247.29917697255863" departLane="free"/>
  <flow id="JF84147" begin="180" fromJunction="J7" toJunction="J4" end="240" vehsPerHour="5.997635328553332" departLane="free"/>
  <flow id="JF84148" begin="180" fromJunction="J7" toJunction="J5" end="240" vehsPerHour="226.16631771222944" departLane="free"/>
  <flow id="JF84149" begin="240" fromJunction="J0" toJunction="J3" end="300" vehsPerHour="214.11605411730957" departLane="free"/>
  <flow id="JF84150" begin="240" fromJunction="J0" toJunction="J4" end="300" vehsPerHour="102.12895482340863" departLane="free"/>
  <flow id="JF84151" begin="240" fromJunction="J0" toJunction="J5" end="300" vehsPerHour="406.3210728000649" departLane="free"/>
  <flow id="JF84152" begin="240" fromJunction="J3" toJunction="J0" end="300" vehsPerHour="406.33977713882456" departLane="free"/>
  <flow id="JF84153" begin="240" fromJunction="J3" toJunction="J6" end="300" vehsPerHour="205.8433011775486" departLane="free"/>
  <flow id="JF84154" begin="240" fromJunction="J3" toJunction="J7" end="300" vehsPerHour="375.0215743298914" departLane="free"/>
  <flow id="JF84155" begin="240" fromJunction="J4" toJunction="J0" end="300" vehsPerHour="13.52475652282176" departLane="free"/>
  <flow id="JF84156" begin="240" fromJunction="J4" toJunction="J3" end="300" vehsPerHour="206.52696749083586" departLane="free"/>
  <flow id="JF84157" begin="240" fromJunction="J4" toJunction="J6" end="300" vehsPerHour="168.96189621255988" departLane="free"/>
  <flow id="JF84158" begin="240" fromJunction="J4" toJunction="J7" end="300" vehsPerHour="60.744963810377314" departLane="free"/>
  <flow id="JF84159" begin="240" fromJunction="J5" toJunction="J0" end="300" vehsPerHour="193.05885829604665" departLane="free"/>
  <flow id="JF84160" begin="240" fromJunction="J5" toJunction="J3" end="300" vehsPerHour="116.20211932616742" departLane="free"/>
  <flow id="JF84161" begin="240" fromJunction="J5" toJunction="J4" end="300" vehsPerHour="59.58878173062505" departLane="free"/>
  <flow id="JF84162" begin="240" fromJunction="J5" toJunction="J6" end="300" vehsPerHour="40.35916344949396" departLane="free"/>
  <flow id="JF84163" begin="240" fromJunction="J6" toJunction="J0" end="300" vehsPerHour="207.03136918498333" departLane="free"/>
  <flow id="JF84164" begin="240" fromJunction="J6" toJunction="J3" end="300" vehsPerHour="115.16298808068049" departLane="free"/>
  <flow id="JF84165" begin="240" fromJunction="J6" toJunction="J4" end="300" vehsPerHour="163.05406874060947" departLane="free"/>
  <flow id="JF84166" begin="240" fromJunction="J7" toJunction="J0" end="300" vehsPerHour="231.6845544764437" departLane="free"/>
  <flow id="JF84167" begin="240" fromJunction="J7" toJunction="J3" end="300" vehsPerHour="54.229260994517325" departLane="free"/>
  <flow id="JF84168" begin="240" fromJunction="J7" toJunction="J4" end="300" vehsPerHour="25.320086085604572" departLane="free"/>
  <flow id="JF84169" begin="240" fromJunction="J7" toJunction="J5" end="300" vehsPerHour="127.01970717139979" departLane="free"/>
  <flow id="JF84170" begin="240" fromJunction="J7" toJunction="J6" end="300" vehsPerHour="10.791757171725767" departLane="free"/>
  <flow id="JF84171" begin="300" fromJunction="J0" toJunction="J3" end="360" vehsPerHour="206.6206013657762" departLane="free"/>
  <flow id="JF84172" begin="300" fromJunction="J0" toJunction="J4" end="360" vehsPerHour="327.64582066880894" departLane="free"/>
  <flow id="JF84173" begin="300" fromJunction="J0" toJunction="J6" end="360" vehsPerHour="84.52547241702042" departLane="free"/>
  <flow id="JF84174" begin="300" fromJunction="J0" toJunction="J7" end="360" vehsPerHour="126.511133850431" departLane="free"/>
  <flow id="JF84175" begin="300" fromJunction="J3" toJunction="J0" end="360" vehsPerHour="194.665020888451" departLane="free"/>
  <flow id="JF84176" begin="300" fromJunction="J3" toJunction="J4" end="360" vehsPerHour="55.96889271872529" departLane="free"/>
  <flow id="JF84177" begin="300" fromJunction="J3" toJunction="J5" end="360" vehsPerHour="190.3102086136333" departLane="free"/>
  <flow id="JF84178" begin="300" fromJunction="J4" toJunction="J3" end="360" vehsPerHour="122.95004706505621" departLane="free"/>
  <flow id="JF84179" begin="300" fromJunction="J4" toJunction="J5" end="360" vehsPerHour="152.46833366539698" departLane="free"/>
  <flow id="JF84180" begin="300" fromJunction="J4" toJunction="J6" end="360" vehsPerHour="39.84047118269913" departLane="free"/>
  <flow id="JF84181" begin="300" fromJunction="J5" toJunction="J0" end="360" vehsPerHour="171.3971369429067" departLane="free"/>
  <flow id="JF84182" begin="300" fromJunction="J5" toJunction="J4" end="360" vehsPerHour="1.322734416959857" departLane="free"/>
  <flow id="JF84183" begin="300" fromJunction="J5" toJunction="J7" end="360" vehsPerHour="110.5314299434728" departLane="free"/>
  <flow id="JF84184" begin="300" fromJunction="J6" toJunction="J0" end="360" vehsPerHour="198.15569018721175" departLane="free"/>
  <flow id="JF84185" begin="300" fromJunction="J6" toJunction="J4" end="360" vehsPerHour="224.19908518084222" departLane="free"/>
  <flow id="JF84186" begin="300" fromJunction="J6" toJunction="J7" end="360" vehsPerHour="267.23027017893696" departLane="free"/>
  <flow id="JF84187" begin="300" fromJunction="J7" toJunction="J0" end="360" vehsPerHour="142.7216186750639" departLane="free"/>
  <flow id="JF84188" begin="300" fromJunction="J7" toJunction="J3" end="360" vehsPerHour="224.91087779579877" departLane="free"/>
  <flow id="JF84189" begin="300" fromJunction="J7" toJunction="J5" end="360" vehsPerHour="72.29426077823518" departLane="free"/>
  <flow id="JF84190" begin="300" fromJunction="J7" toJunction="J6" end="360" vehsPerHour="6.653014440179924" departLane="free"/>
  <flow id="JF84191" begin="360" fromJunction="J0" toJunction="J7" end="420" vehsPerHour="111.74915672743131" departLane="free"/>
  <flow id="JF84192" begin="360" fromJunction="J3" toJunction="J0" end="420" vehsPerHour="422.3962896946514" departLane="free"/>
  <flow id="JF84193" begin="360" fromJunction="J3" toJunction="J6" end="420" vehsPerHour="300.0828047484294" departLane="free"/>
  <flow id="JF84194" begin="360" fromJunction="J3" toJunction="J7" end="420" vehsPerHour="349.7065752528203" departLane="free"/>
  <flow id="JF84195" begin="360" fromJunction="J4" toJunction="J3" end="420" vehsPerHour="221.76149612575136" departLane="free"/>
  <flow id="JF84196" begin="360" fromJunction="J4" toJunction="J5" end="420" vehsPerHour="126.78158852552454" departLane="free"/>
  <flow id="JF84197" begin="360" fromJunction="J4" toJunction="J6" end="420" vehsPerHour="17.804756558833848" departLane="free"/>
  <flow id="JF84198" begin="360" fromJunction="J4" toJunction="J7" end="420" vehsPerHour="251.96959808458175" departLane="free"/>
  <flow id="JF84199" begin="360" fromJunction="J5" toJunction="J0" end="420" vehsPerHour="72.87369435024287" departLane="free"/>
  <flow id="JF84200" begin="360" fromJunction="J5" toJunction="J3" end="420" vehsPerHour="18.078583639205718" departLane="free"/>
  <flow id="JF84201" begin="360" fromJunction="J5" toJunction="J4" end="420" vehsPerHour="35.71476111039087" departLane="free"/>
  <flow id="JF84202" begin="360" fromJunction="J5" toJunction="J6" end="420" vehsPerHour="114.35137585311384" departLane="free"/>
  <flow id="JF84203" begin="360" fromJunction="J6" toJunction="J0" end="420" vehsPerHour="86.79435432231062" departLane="free"/>
  <flow id="JF84204" begin="360" fromJunction="J6" toJunction="J3" end="420" vehsPerHour="266.40555233831384" departLane="free"/>
  <flow id="JF84205" begin="360" fromJunction="J6" toJunction="J4" end="420" vehsPerHour="23.02507200164838" departLane="free"/>
  <flow id="JF84206" begin="360" fromJunction="J6" toJunction="J7" end="420" vehsPerHour="194.9299458760718" departLane="free"/>
  <flow id="JF84207" begin="360" fromJunction="J7" toJunction="J0" end="420" vehsPerHour="122.34226718080146" departLane="free"/>
  <flow id="JF84208" begin="360" fromJunction="J7" toJunction="J3" end="420" vehsPerHour="115.12579080566631" departLane="free"/>
  <flow id="JF84209" begin="360" fromJunction="J7" toJunction="J4" end="420" vehsPerHour="251.9916869606533" departLane="free"/>
  <flow id="JF84210" begin="360" fromJunction="J7" toJunction="J6" end="420" vehsPerHour="8.368374058250014" departLane="free"/>
  <flow id="JF84211" begin="420" fromJunction="J0" toJunction="J3" end="480" vehsPerHour="10.27132845116303" departLane="free"/>
  <flow id="JF84212" begin="420" fromJunction="J0" toJunction="J4" end="480" vehsPerHour="386.42762044849457" departLane="free"/>
  <flow id="JF84213" begin="420" fromJunction="J0" toJunction="J5" end="480" vehsPerHour="317.8082795404778" departLane="free"/>
  <flow id="JF84214" begin="420" fromJunction="J0" toJunction="J6" end="480" vehsPerHour="510.83237798687486" departLane="free"/>
  <flow id="JF84215" begin="420" fromJunction="J0" toJunction="J7" end="480" vehsPerHour="203.72995647116713" departLane="free"/>
  <flow id="JF84216" begin="420" fromJunction="J3" toJunction="J0" end="480" vehsPerHour="306.769786197754" departLane="free"/>
  <flow id="JF84217" begin="420" fromJunction="J3" toJunction="J4" end="480" vehsPerHour="88.72428847368967" departLane="free"/>
  <flow id="JF84218" begin="420" fromJunction="J3" toJunction="J5" end="480" vehsPerHour="14.557402241176945" departLane="free"/>
  <flow id="JF84219" begin="420" fromJunction="J3" toJunction="J7" end="480" vehsPerHour="55.3441525253007" departLane="free"/>
  <flow id="JF84220" begin="420" fromJunction="J4" toJunction="J0" end="480" vehsPerHour="119.27221328323805" departLane="free"/>
  <flow id="JF84221" begin="420" fromJunction="J4" toJunction="J5" end="480" vehsPerHour="250.18373143821117" departLane="free"/>
  <flow id="JF84222" begin="420" fromJunction="J4" toJunction="J6" end="480" vehsPerHour="172.62763952927182" departLane="free"/>
  <flow id="JF84223" begin="420" fromJunction="J4" toJunction="J7" end="480" vehsPerHour="155.7168951984574" departLane="free"/>
  <flow id="JF84224" begin="420" fromJunction="J5" toJunction="J4" end="480" vehsPerHour="70.09976379749246" departLane="free"/>
  <flow id="JF84225" begin="420" fromJunction="J6" toJunction="J0" end="480" vehsPerHour="266.48065070446177" departLane="free"/>
  <flow id="JF84226" begin="420" fromJunction="J6" toJunction="J3" end="480" vehsPerHour="268.2478339821495" departLane="free"/>
  <flow id="JF84227" begin="420" fromJunction="J6" toJunction="J4" end="480" vehsPerHour="66.85960387287412" departLane="free"/>
  <flow id="JF84228" begin="420" fromJunction="J6" toJunction="J5" end="480" vehsPerHour="200.22052725972657" departLane="free"/>
  <flow id="JF84229" begin="420" fromJunction="J6" toJunction="J7" end="480" vehsPerHour="157.58716017069165" departLane="free"/>
  <flow id="JF84230" begin="420" fromJunction="J7" toJunction="J0" end="480" vehsPerHour="225.45741692003566" departLane="free"/>
  <flow id="JF84231" begin="420" fromJunction="J7" toJunction="J3" end="480" vehsPerHour="147.66180890808218" departLane="free"/>
  <flow id="JF84232" begin="420" fromJunction="J7" toJunction="J5" end="480" vehsPerHour="66.17129409862295" departLane="free"/>
  <flow id="JF84233" begin="420" fromJunction="J7" toJunction="J6" end="480" vehsPerHour="128.01805181105888" departLane="free"/>
  <flow id="JF84234" begin="480" fromJunction="J0" toJunction="J3" end="540" vehsPerHour="136.08529311389535" departLane="free"/>
  <flow id="JF84235" begin="480" fromJunction="J0" toJunction="J6" end="540" vehsPerHour="82.48479539482948" departLane="free"/>
  <flow id="JF84236" begin="480" fromJunction="J0" toJunction="J7" end="540" vehsPerHour="98.69707917110296" departLane="free"/>
  <flow id="JF84237" begin="480" fromJunction="J3" toJunction="J0" end="540" vehsPerHour="79.50126384769324" departLane="free"/>
  <flow id="JF84238" begin="480" fromJunction="J3" toJunction="J4" end="540" vehsPerHour="356.12418008614316" departLane="free"/>
  <flow id="JF84239" begin="480" fromJunction="J3" toJunction="J6" end="540" vehsPerHour="67.31824717424998" departLane="free"/>
  <flow id="JF84240" begin="480" fromJunction="J3" toJunction="J7" end="540" vehsPerHour="99.92658221702162" departLane="free"/>
  <flow id="JF84241" begin="480" fromJunction="J4" toJunction="J3" end="540" vehsPerHour="224.78003503252398" departLane="free"/>
  <flow id="JF84242" begin="480" fromJunction="J4" toJunction="J6" end="540" vehsPerHour="88.65437197236113" departLane="free"/>
  <flow id="JF84243" begin="480" fromJunction="J4" toJunction="J7" end="540" vehsPerHour="59.03942761921417" departLane="free"/>
  <flow id="JF84244" begin="480" fromJunction="J5" toJunction="J0" end="540" vehsPerHour="53.124381371067734" departLane="free"/>
  <flow id="JF84245" begin="480" fromJunction="J5" toJunction="J4" end="540" vehsPerHour="107.33685732980175" departLane="free"/>
  <flow id="JF84246" begin="480" fromJunction="J5" toJunction="J7" end="540" vehsPerHour="214.23100516329313" departLane="free"/>
  <flow id="JF84247" begin="480" fromJunction="J6" toJunction="J0" end="540" vehsPerHour="136.35269578498287" departLane="free"/>
  <flow id="JF84248" begin="480" fromJunction="J6" toJunction="J3" end="540" vehsPerHour="153.62849662152118" departLane="free"/>
  <flow id="JF84249" begin="480" fromJunction="J6" toJunction="J4" end="540" vehsPerHour="150.36851436998253" departLane="free"/>
  <flow id="JF84250" begin="480" fromJunction="J6" toJunction="J7" end="540" vehsPerHour="102.43601840892624" departLane="free"/>
  <flow id="JF84251" begin="480" fromJunction="J7" toJunction="J3" end="540" vehsPerHour="187.93571719652752" departLane="free"/>
  <flow id="JF84252" begin="480" fromJunction="J7" toJunction="J4" end="540" vehsPerHour="167.13118232826633" departLane="free"/>
  <flow id="JF84253" begin="480" fromJunction="J7" toJunction="J5" end="540" vehsPerHour="68.05068452913194" departLane="free"/>
  <flow id="JF84254" begin="540" fromJunction="J0" toJunction="J3" end="600" vehsPerHour="69.01190471190571" departLane="free"/>
  <flow id="JF84255" begin="540" fromJunction="J0" toJunction="J5" end="600" vehsPerHour="138.7743583094993" departLane="free"/>
  <flow id="JF84256" begin="540" fromJunction="J0" toJunction="J7" end="600" vehsPerHour="45.94622959199236" departLane="free"/>
  <flow id="JF84257" begin="540" fromJunction="J3" toJunction="J0" end="600" vehsPerHour="171.59944422497983" departLane="free"/>
  <flow id="JF84258" begin="540" fromJunction="J3" toJunction="J4" end="600" vehsPerHour="458.5935075534401" departLane="free"/>
  <flow id="JF84259" begin="540" fromJunction="J3" toJunction="J5" end="600" vehsPerHour="2.7917362619544233" departLane="free"/>
  <flow id="JF84260" begin="540" fromJunction="J3" toJunction="J7" end="600" vehsPerHour="199.34155595035364" departLane="free"/>
  <flow id="JF84261" begin="540" fromJunction="J4" toJunction="J0" end="600" vehsPerHour="129.7072323171893" departLane="free"/>
  <flow id="JF84262" begin="540" fromJunction="J4" toJunction="J5" end="600" vehsPerHour="139.5550065171798" departLane="free"/>
  <flow id="JF84263" begin="540" fromJunction="J4" toJunction="J7" end="600" vehsPerHour="207.02453339447825" departLane="free"/>
  <flow id="JF84264" begin="540" fromJunction="J5" toJunction="J0" end="600" vehsPerHour="76.28351709490843" departLane="free"/>
  <flow id="JF84265" begin="540" fromJunction="J5" toJunction="J3" end="600" vehsPerHour="123.37870196085402" departLane="free"/>
  <flow id="JF84266" begin="540" fromJunction="J5" toJunction="J6" end="600" vehsPerHour="139.1781432958636" departLane="free"/>
  <flow id="JF84267" begin="540" fromJunction="J6" toJunction="J0" end="600" vehsPerHour="264.98786555340945" departLane="free"/>
  <flow id="JF84268" begin="540" fromJunction="J6" toJunction="J4" end="600" vehsPerHour="126.38640168975517" departLane="free"/>
  <flow id="JF84269" begin="540" fromJunction="J6" toJunction="J5" end="600" vehsPerHour="141.5727121494778" departLane="free"/>
  <flow id="JF84270" begin="540" fromJunction="J6" toJunction="J7" end="600" vehsPerHour="211.80100169781647" departLane="free"/>
  <flow id="JF84271" begin="540" fromJunction="J7" toJunction="J3" end="600" vehsPerHour="158.44594997949827" departLane="free"/>
  <flow id="JF84272" begin="540" fromJunction="J7" toJunction="J4" end="600" vehsPerHour="178.35818848597205" departLane="free"/>
  <flow id="JF84273" begin="540" fromJunction="J7" toJunction="J5" end="600" vehsPerHour="187.90062863026148" departLane="free"/>
  <flow id="JF84274" begin="540" fromJunction="J7" toJunction="J6" end="600" vehsPerHour="153.00393521934447" departLane="free"/>
  <flow id="JF84275" begin="600" fromJunction="J0" toJunction="J6" end="660" vehsPerHour="507.19898302351896" departLane="free"/>
  <flow id="JF84276" begin="600" fromJunction="J0" toJunction="J7" end="660" vehsPerHour="24.30375227103572" departLane="free"/>
  <flow id="JF84277" begin="600" fromJunction="J3" toJunction="J0" end="660" vehsPerHour="74.35363055790222" departLane="free"/>
  <flow id="JF84278" begin="600" fromJunction="J3" toJunction="J6" end="660" vehsPerHour="177.63065848429576" departLane="free"/>
  <flow id="JF84279" begin="600" fromJunction="J3" toJunction="J7" end="660" vehsPerHour="410.5361694800738" departLane="free"/>
  <flow id="JF84280" begin="600" fromJunction="J4" toJunction="J0" end="660" vehsPerHour="224.3779830707603" departLane="free"/>
  <flow id="JF84281" begin="600" fromJunction="J4" toJunction="J5" end="660" vehsPerHour="92.66200648362036" departLane="free"/>
  <flow id="JF84282" begin="600" fromJunction="J4" toJunction="J6" end="660" vehsPerHour="90.74028326821595" departLane="free"/>
  <flow id="JF84283" begin="600" fromJunction="J4" toJunction="J7" end="660" vehsPerHour="67.88312570821208" departLane="free"/>
  <flow id="JF84284" begin="600" fromJunction="J5" toJunction="J0" end="660" vehsPerHour="180.555736176827" departLane="free"/>
  <flow id="JF84285" begin="600" fromJunction="J5" toJunction="J3" end="660" vehsPerHour="59.523917975829384" departLane="free"/>
  <flow id="JF84286" begin="600" fromJunction="J5" toJunction="J4" end="660" vehsPerHour="213.4597189047214" departLane="free"/>
  <flow id="JF84287" begin="600" fromJunction="J5" toJunction="J6" end="660" vehsPerHour="162.0914283229797" departLane="free"/>
  <flow id="JF84288" begin="600" fromJunction="J5" toJunction="J7" end="660" vehsPerHour="179.2721309850431" departLane="free"/>
  <flow id="JF84289" begin="600" fromJunction="J6" toJunction="J5" end="660" vehsPerHour="235.6105626191995" departLane="free"/>
  <flow id="JF84290" begin="600" fromJunction="J7" toJunction="J6" end="660" vehsPerHour="249.52206035618403" departLane="free"/>
  <flow id="JF84291" begin="660" fromJunction="J0" toJunction="J3" end="720" vehsPerHour="82.43208012136954" departLane="free"/>
  <flow id="JF84292" begin="660" fromJunction="J0" toJunction="J5" end="720" vehsPerHour="245.8059456220882" departLane="free"/>
  <flow id="JF84293" begin="660" fromJunction="J0" toJunction="J6" end="720" vehsPerHour="453.6401381985967" departLane="free"/>
  <flow id="JF84294" begin="660" fromJunction="J0" toJunction="J7" end="720" vehsPerHour="511.2805581742916" departLane="free"/>
  <flow id="JF84295" begin="660" fromJunction="J3" toJunction="J4" end="720" vehsPerHour="448.3795365486831" departLane="free"/>
  <flow id="JF84296" begin="660" fromJunction="J3" toJunction="J5" end="720" vehsPerHour="489.9224139118532" departLane="free"/>
  <flow id="JF84297" begin="660" fromJunction="J3" toJunction="J6" end="720" vehsPerHour="71.58569150476325" departLane="free"/>
  <flow id="JF84298" begin="660" fromJunction="J4" toJunction="J0" end="720" vehsPerHour="194.9928551996095" departLane="free"/>
  <flow id="JF84299" begin="660" fromJunction="J4" toJunction="J5" end="720" vehsPerHour="269.67481821225704" departLane="free"/>
  <flow id="JF84300" begin="660" fromJunction="J4" toJunction="J7" end="720" vehsPerHour="137.67711547606748" departLane="free"/>