<?xml version="1.0" encoding="UTF-8"?>
<routes xmlns:xsi="http://www.w3.org/2001/XMLSchema-instance" xsi:noNamespaceSchemaLocation="http://sumo.dlr.de/xsd/routes_file.xsd">
  <flow id="JF75103" begin="0" fromJunction="J0" toJunction="J3" end="60" vehsPerHour="46.16306241500621" departLane="free"/>
  <flow id="JF75104" begin="0" fromJunction="J0" toJunction="J4" end="60" vehsPerHour="214.20656581907713" departLane="free"/>
  <flow id="JF75105" begin="0" fromJunction="J0" toJunction="J6" end="60" vehsPerHour="126.4337874311243" departLane="free"/>
  <flow id="JF75106" begin="0" fromJunction="J0" toJunction="J7" end="60" vehsPerHour="351.9383275702984" departLane="free"/>
  <flow id="JF75107" begin="0" fromJunction="J3" toJunction="J4" end="60" vehsPerHour="233.06865915282313" departLane="free"/>
  <flow id="JF75108" begin="0" fromJunction="J3" toJunction="J5" end="60" vehsPerHour="456.0992409713104" departLane="free"/>
  <flow id="JF75109" begin="0" fromJunction="J3" toJunction="J6" end="60" vehsPerHour="440.08613500081015" departLane="free"/>
  <flow id="JF75110" begin="0" fromJunction="J3" toJunction="J7" end="60" vehsPerHour="433.15318079039986" departLane="free"/>
  <flow id="JF75111" begin="0" fromJunction="J4" toJunction="J0" end="60" vehsPerHour="152.70982501770445" departLane="free"/>
  <flow id="JF75112" begin="0" fromJunction="J4" toJunction="J3" end="60" vehsPerHour="130.41147281536794" departLane="free"/>
  <flow id="JF75113" begin="0" fromJunction="J4" toJunction="J6" end="60" vehsPerHour="135.15424470124415" departLane="free"/>
  <flow id="JF75114" begin="0" fromJunction="J4" toJunction="J7" end="60" vehsPerHour="26.255757504597444" departLane="free"/>
  <flow id="JF75115" begin="0" fromJunction="J5" toJunction="J0" end="60" vehsPerHour="34.890118831658796" departLane="free"/>
  <flow id="JF75116" begin="0" fromJunction="J5" toJunction="J3" end="60" vehsPerHour="40.311144570936165" departLane="free"/>
  <flow id="JF75117" begin="0" fromJunction="J5" toJunction="J4" end="60" vehsPerHour="1.068638945701746" departLane="free"/>
  <flow id="JF75118" begin="0" fromJunction="J5" toJunction="J6" end="60" vehsPerHour="127.8555539359439" departLane="free"/>
  <flow id="JF75119" begin="0" fromJunction="J5" toJunction="J7" end="60" vehsPerHour="204.7297924927732" departLane="free"/>
  <flow id="JF75120" begin="0" fromJunction="J6" toJunction="J0" end="60" vehsPerHour="233.0060166154013" departLane="free"/>
  <flow id="JF75121" begin="0" fromJunction="J6" toJunction="J4" end="60" vehsPerHour="234.7568270813759" departLane="free"/>
  <flow id="JF75122" begin="0" fromJunction="J6" toJunction="J5" end="60" vehsPerHour="88.81635228050718" departLane="free"/>
  <flow id="JF75123" begin="0" fromJunction="J6" toJunction="J7" end="60" vehsPerHour="70.93599152898467" departLane="free"/>
  <flow id="JF75124" begin="0" fromJunction="J7" toJunction="J3" end="60" vehsPerHour="233.7158634692031" departLane="free"/>
  <flow id="JF75125" begin="0" fromJunction="J7" toJunction="J5" end="60" vehsPerHour="225.45406857747494" departLane="free"/>
  <flow id="JF75126" begin="0" fromJunction="J7" toJunction="J6" end="60" vehsPerHour="263.72165965978013" departLane="free"/>
  <flow id="JF75127" begin="60" fromJunction="J0" toJunction="J3" end="120" vehsPerHour="468.1639504319993" departLane="free"/>
  <flow id="JF75128" begin="60" fromJunction="J0" toJunction="J4" end="120" vehsPerHour="420.0361360519131" departLane="free"/>
  <flow id="JF75129" begin="60" fromJunction="J0" toJunction="J6" end="120" vehsPerHour="126.10424215337609" departLane="free"/>
  <flow id="JF75130" begin="60" fromJunction="J0" toJunction="J7" end="120" vehsPerHour="234.80313644974703" departLane="free"/>
  <flow id="JF75131" begin="60" fromJunction="J3" toJunction="J0" end="120" vehsPerHour="223.61031885763518" departLane="free"/>
  <flow id="JF75132" begin="60" fromJunction="J3" toJunction="J4" end="120" vehsPerHour="134.36009248572628" departLane="free"/>
  <flow id="JF75133" begin="60" fromJunction="J3" toJunction="J5" end="120" vehsPerHour="463.8924461175584" departLane="free"/>
  <flow id="JF75134" begin="60" fromJunction="J3" toJunction="J7" end="120" vehsPerHour="197.58220232792007" departLane="free"/>
  <flow id="JF75135" begin="60" fromJunction="J4" toJunction="J0" end="120" vehsPerHour="266.1295013548949" departLane="free"/>
  <flow id="JF75136" begin="60" fromJunction="J4" toJunction="J3" end="120" vehsPerHour="185.01683174091977" departLane="free"/>
  <flow id="JF75137" begin="60" fromJunction="J4" toJunction="J5" end="120" vehsPerHour="273.19242879256325" departLane="free"/>
  <flow id="JF75138" begin="60" fromJunction="J4" toJunction="J6" end="120" vehsPerHour="124.91034007958822" departLane="free"/>
  <flow id="JF75139" begin="60" fromJunction="J4" toJunction="J7" end="120" vehsPerHour="122.22611976349609" departLane="free"/>
  <flow id="JF75140" begin="60" fromJunction="J5" toJunction="J3" end="120" vehsPerHour="176.30963093067484" departLane="free"/>
  <flow id="JF75141" begin="60" fromJunction="J5" toJunction="J6" end="120" vehsPerHour="14.780727018902304" departLane="free"/>
  <flow id="JF75142" begin="60" fromJunction="J5" toJunction="J7" end="120" vehsPerHour="3.870062307125602" departLane="free"/>
  <flow id="JF75143" begin="60" fromJunction="J6" toJunction="J0" end="120" vehsPerHour="179.96724694898478" departLane="free"/>
  <flow id="JF75144" begin="60" fromJunction="J6" toJunction="J3" end="120" vehsPerHour="76.1369797963664" departLane="free"/>
  <flow id="JF75145" begin="60" fromJunction="J6" toJunction="J4" end="120" vehsPerHour="7.712107341409985" departLane="free"/>
  <flow id="JF75146" begin="60" fromJunction="J6" toJunction="J7" end="120" vehsPerHour="116.30870552284465" departLane="free"/>
  <flow id="JF75147" begin="60" fromJunction="J7" toJunction="J0" end="120" vehsPerHour="56.06617641460098" departLane="free"/>
  <flow id="JF75148" begin="60" fromJunction="J7" toJunction="J3" end="120" vehsPerHour="246.4484034639054" departLane="free"/>
  <flow id="JF75149" begin="60" fromJunction="J7" toJunction="J4" end="120" vehsPerHour="170.14910317672522" departLane="free"/>
  <flow id="JF75150" begin="60" fromJunction="J7" toJunction="J5" end="120" vehsPerHour="33.175530260867006" departLane="free"/>
  <flow id="JF75151" begin="60" fromJunction="J7" toJunction="J6" end="120" vehsPerHour="59.06531158751831" departLane="free"/>
  <flow id="JF75152" begin="120" fromJunction="J0" toJunction="J4" end="180" vehsPerHour="525.0730885216163" departLane="free"/>
  <flow id="JF75153" begin="120" fromJunction="J0" toJunction="J5" end="180" vehsPerHour="174.11420133986303" departLane="free"/>
  <flow id="JF75154" begin="120" fromJunction="J0" toJunction="J7" end="180" vehsPerHour="194.8632721534507" departLane="free"/>
  <flow id="JF75155" begin="120" fromJunction="J3" toJunction="J0" end="180" vehsPerHour="57.34076461907503" departLane="free"/>
  <flow id="JF75156" begin="120" fromJunction="J3" toJunction="J4" end="180" vehsPerHour="320.6803382681599" departLane="free"/>
  <flow id="JF75157" begin="120" fromJunction="J3" toJunction="J5" end="180" vehsPerHour="132.23447436942632" departLane="free"/>
  <flow id="JF75158" begin="120" fromJunction="J4" toJunction="J3" end="180" vehsPerHour="226.08396026655745" departLane="free"/>
  <flow id="JF75159" begin="120" fromJunction="J4" toJunction="J5" end="180" vehsPerHour="70.3108422417549" departLane="free"/>
  <flow id="JF75160" begin="120" fromJunction="J4" toJunction="J6" end="180" vehsPerHour="173.9380571284855" departLane="free"/>
  <flow id="JF75161" begin="120" fromJunction="J5" toJunction="J0" end="180" vehsPerHour="210.99030280919885" departLane="free"/>
  <flow id="JF75162" begin="120" fromJunction="J5" toJunction="J3" end="180" vehsPerHour="17.666309149725574" departLane="free"/>
  <flow id="JF75163" begin="120" fromJunction="J5" toJunction="J4" end="180" vehsPerHour="38.62599213892031" departLane="free"/>
  <flow id="JF75164" begin="120" fromJunction="J5" toJunction="J6" end="180" vehsPerHour="240.6961516998496" departLane="free"/>
  <flow id="JF75165" begin="120" fromJunction="J5" toJunction="J7" end="180" vehsPerHour="20.841033123418025" departLane="free"/>
  <flow id="JF75166" begin="120" fromJunction="J6" toJunction="J4" end="180" vehsPerHour="185.71268752343775" departLane="free"/>
  <flow id="JF75167" begin="120" fromJunction="J6" toJunction="J7" end="180" vehsPerHour="258.3892684464523" departLane="free"/>
  <flow id="JF75168" begin="120" fromJunction="J7" toJunction="J0" end="180" vehsPerHour="43.8149039912911" departLane="free"/>
  <flow id="JF75169" begin="120" fromJunction="J7" toJunction="J3" end="180" vehsPerHour="14.106190291743816" departLane="free"/>
  <flow id="JF75170" begin="120" fromJunction="J7" toJunction="J4" end="180" vehsPerHour="92.36088957293167" departLane="free"/>
  <flow id="JF75171" begin="120" fromJunction="J7" toJunction="J5" end="180" vehsPerHour="4.472922166739051" departLane="free"/>
  <flow id="JF75172" begin="120" fromJunction="J7" toJunction="J6" end="180" vehsPerHour="48.54313028358591" departLane="free"/>
  <flow id="JF75173" begin="180" fromJunction="J0" toJunction="J3" end="240" vehsPerHour="132.92416020565165" departLane="free"/>
  <flow id="JF75174" begin="180" fromJunction="J0" toJunction="J4" end="240" vehsPerHour="504.29020700571715" departLane="free"/>
  <flow id="JF75175" begin="180" fromJunction="J0" toJunction="J5" end="240" vehsPerHour="165.528811292085" departLane="free"/>
  <flow id="JF75176" begin="180" fromJunction="J0" toJunction="J6" end="240" vehsPerHour="181.07125734960644" departLane="free"/>
  <flow id="JF75177" begin="180" fromJunction="J0" toJunction="J7" end="240" vehsPerHour="498.34307690691855" departLane="free"/>
  <flow id="JF75178" begin="180" fromJunction="J3" toJunction="J0" end="240" vehsPerHour="333.27849601595875" departLane="free"/>
  <flow id="JF75179" begin="180" fromJunction="J3" toJunction="J5" end="240" vehsPerHour="180.87013110502403" departLane="free"/>
  <flow id="JF75180" begin="180" fromJunction="J3" toJunction="J6" end="240" vehsPerHour="494.0304154406352" departLane="free"/>
  <flow id="JF75181" begin="180" fromJunction="J3" toJunction="J7" end="240" vehsPerHour="279.01878658525203" departLane="free"/>
  <flow id="JF75182" begin="180" fromJunction="J4" toJunction="J3" end="240" vehsPerHour="60.66190917496286" departLane="free"/>
  <flow id="JF75183" begin="180" fromJunction="J4" toJunction="J5" end="240" vehsPerHour="220.05036483737484" departLane="free"/>
  <flow id="JF75184" begin="180" fromJunction="J4" toJunction="J6" end="240" vehsPerHour="18.077011866265885" departLane="free"/>
  <flow id="JF75185" begin="180" fromJunction="J4" toJunction="J7" end="240" vehsPerHour="29.47967495329463" departLane="free"/>
  <flow id="JF75186" begin="180" fromJunction="J5" toJunction="J3" end="240" vehsPerHour="162.74215393161563" departLane="free"/>
  <flow id="JF75187" begin="180" fromJunction="J5" toJunction="J4" end="240" vehsPerHour="119.76576130931828" departLane="free"/>
  <flow id="JF75188" begin="180" fromJunction="J5" toJunction="J6" end="240" vehsPerHour="203.81140892502572" departLane="free"/>
  <flow id="JF75189" begin="180" fromJunction="J6" toJunction="J0" end="240" vehsPerHour="206.19199912390266" departLane="free"/>
  <flow id="JF75190" begin="180" fromJunction="J6" toJunction="J7" end="240" vehsPerHour="212.5096068822797" departLane="free"/>
  <flow id="JF75191" begin="180" fromJunction="J7" toJunction="J0" end="240" vehsPerHour="153.05411450263526" departLane="free"/>
  <flow id="JF75192" begin="180" fromJunction="J7" toJunction="J3" end="240" vehsPerHour="5.4820068592801565" departLane="free"/>
  <flow id="JF75193" begin="180" fromJunction="J7" toJunction="J4" end="240" vehsPerHour="237.5680497975826" departLane="free"/>
  <flow id="JF75194" begin="180" fromJunction="J7" toJunction="J5" end="240" vehsPerHour="38.40846558874669" departLane="free"/>
  <flow id="JF75195" begin="180" fromJunction="J7" toJunction="J6" end="240" vehsPerHour="113.19913729938558" departLane="free"/>
  <flow id="JF75196" begin="240" fromJunction="J0" toJunction="J3" end="300" vehsPerHour="2.1653198393965107" departLane="free"/>
  <flow id="JF75197" begin="240" fromJunction="J0" toJunction="J5" end="300" vehsPerHour="448.3328791463775" departLane="free"/>
  <flow id="JF75198" begin="240" fromJunction="J0" toJunction="J6" end="300" vehsPerHour="442.38179056850504" departLane="free"/>
  <flow id="JF75199" begin="240" fromJunction="J0" toJunction="J7" end="300" vehsPerHour="272.2423018277861" departLane="free"/>
  <flow id="JF75200" begin="240" fromJunction="J3" toJunction="J4" end="300" vehsPerHour="228.31792405106614" departLane="free"/>
  <flow id="JF75201" begin="240" fromJunction="J3" toJunction="J5" end="300" vehsPerHour="276.2389526805377" departLane="free"/>
  <flow id="JF75202" begin="240" fromJunction="J3" toJunction="J6" end="300" vehsPerHour="257.74130178227864" departLane="free"/>
  <flow id="JF75203" begin="240" fromJunction="J4" toJunction="J0" end="300" vehsPerHour="37.23275303937085" departLane="free"/>
  <flow id="JF75204" begin="240" fromJunction="J4" toJunction="J5" end="300" vehsPerHour="178.79364661774613" departLane="free"/>
  <flow id="JF75205" begin="240" fromJunction="J4" toJunction="J7" end="300" vehsPerHour="116.86762250091789" departLane="free"/>
  <flow id="JF75206" begin="240" fromJunction="J5" toJunction="J0" end="300" vehsPerHour="227.84925051253938" departLane="free"/>
  <flow id="JF75207" begin="240" fromJunction="J5" toJunction="J3" end="300" vehsPerHour="117.09870579047657" departLane="free"/>
  <flow id="JF75208" begin="240" fromJunction="J5" toJunction="J4" end="300" vehsPerHour="197.47129144262055" departLane="free"/>
  <flow id="JF75209" begin="240" fromJunction="J5" toJunction="J7" end="300" vehsPerHour="106.56238205666557" departLane="free"/>
  <flow id="JF75210" begin="240" fromJunction="J6" toJunction="J0" end="300" vehsPerHour="225.0983775131607" departLane="free"/>
  <flow id="JF75211" begin="240" fromJunction="J6" toJunction="J3" end="300" vehsPerHour="127.54330379649511" departLane="free"/>
  <flow id="JF75212" begin="240" fromJunction="J6" toJunction="J7" end="300" vehsPerHour="212.53018608146022" departLane="free"/>
  <flow id="JF75213" begin="240" fromJunction="J7" toJunction="J0" end="300" vehsPerHour="33.80516399905916" departLane="free"/>
  <flow id="JF75214" begin="240" fromJunction="J7" toJunction="J5" end="300" vehsPerHour="235.1391599308929" departLane="free"/>
  <flow id="JF75215" begin="240" fromJunction="J7" toJunction="J6" end="300" vehsPerHour="88.83169428246921" departLane="free"/>
  <flow id="JF75216" begin="300" fromJunction="J0" toJunction="J4" end="360" vehsPerHour="284.95831074838185" departLane="free"/>
  <flow id="JF75217" begin="300" fromJunction="J0" toJunction="J5" end="360" vehsPerHour="33.41052233641897" departLane="free"/>
  <flow id="JF75218" begin="300" fromJunction="J0" toJunction="J6" end="360" vehsPerHour="102.96153573146663" departLane="free"/>
  <flow id="JF75219" begin="300" fromJunction="J3" toJunction="J5" end="360" vehsPerHour="376.9649933878533" departLane="free"/>
  <flow id="JF75220" begin="300" fromJunction="J3" toJunction="J6" end="360" vehsPerHour="537.319320597765" departLane="free"/>
  <flow id="JF75221" begin="300" fromJunction="J3" toJunction="J7" end="360" vehsPerHour="199.31615524509857" departLane="free"/>
  <flow id="JF75222" begin="300" fromJunction="J4" toJunction="J0" end="360" vehsPerHour="174.31745324555772" departLane="free"/>
  <flow id="JF75223" begin="300" fromJunction="J4" toJunction="J6" end="360" vehsPerHour="117.09166388039462" departLane="free"/>
  <flow id="JF75224" begin="300" fromJunction="J4" toJunction="J7" end="360" vehsPerHour="150.65456380178307" departLane="free"/>
  <flow id="JF75225" begin="300" fromJunction="J5" toJunction="J0" end="360" vehsPerHour="116.1299420849425" departLane="free"/>
  <flow id="JF75226" begin="300" fromJunction="J5" toJunction="J4" end="360" vehsPerHour="159.76119933356412" departLane="free"/>
  <flow id="JF75227" begin="300" fromJunction="J5" toJunction="J7" end="360" vehsPerHour="174.3848701541416" departLane="free"/>
  <flow id="JF75228" begin="300" fromJunction="J6" toJunction="J0" end="360" vehsPerHour="225.99638786857463" departLane="free"/>
  <flow id="JF75229" begin="300" fromJunction="J6" toJunction="J3" end="360" vehsPerHour="197.87026668645902" departLane="free"/>
  <flow id="JF75230" begin="300" fromJunction="J6" toJunction="J4" end="360" vehsPerHour="212.73016744646517" departLane="free"/>
  <flow id="JF75231" begin="300" fromJunction="J6" toJunction="J5" end="360" vehsPerHour="192.79381778876498" departLane="free"/>
  <flow id="JF75232" begin="300" fromJunction="J6" toJunction="J7" end="360" vehsPerHour="198.79607428173685" departLane="free"/>
  <flow id="JF75233" begin="300" fromJunction="J7" toJunction="J3" end="360" vehsPerHour="152.10948604961973" departLane="free"/>
  <flow id="JF75234" begin="300" fromJunction="J7" toJunction="J4" end="360" vehsPerHour="123.24512550818676" departLane="free"/>
  <flow id="JF75235" begin="360" fromJunction="J0" toJunction="J3" end="420" vehsPerHour="149.81203665584755" departLane="free"/>
  <flow id="JF75236" begin="360" fromJunction="J0" toJunction="J4" end="420" vehsPerHour="471.8334061042081" departLane="free"/>
  <flow id="JF75237" begin="360" fromJunction="J0" toJunction="J5" end="420" vehsPerHour="40.24532962892526" departLane="free"/>
  <flow id="JF75238" begin="360" fromJunction="J0" toJunction="J6" end="420" vehsPerHour="70.31483298386385" departLane="free"/>
  <flow id="JF75239" begin="360" fromJunction="J0" toJunction="J7" end="420" vehsPerHour="504.6660318841087" departLane="free"/>
  <flow id="JF75240" begin="360" fromJunction="J3" toJunction="J4" end="420" vehsPerHour="14.313643938054257" departLane="free"/>
  <flow id="JF75241" begin="360" fromJunction="J3" toJunction="J5" end="420" vehsPerHour="15.607878552873176" departLane="free"/>
  <flow id="JF75242" begin="360" fromJunction="J3" toJunction="J6" end="420" vehsPerHour="539.7928322043621" departLane="free"/>
  <flow id="JF75243" begin="360" fromJunction="J4" toJunction="J0" end="420" vehsPerHour="83.78111285318205" departLane="free"/>
  <flow id="JF75244" begin="360" fromJunction="J4" toJunction="J3" end="420" vehsPerHour="106.94450805706838" departLane="free"/>
  <flow id="JF75245" begin="360" fromJunction="J4" toJunction="J6" end="420" vehsPerHour="240.7144656694735" departLane="free"/>
  <flow id="JF75246" begin="360" fromJunction="J5" toJunction="J3" end="420" vehsPerHour="162.0906972286534" departLane="free"/>
  <flow id="JF75247" begin="360" fromJunction="J5" toJunction="J4" end="420" vehsPerHour="90.56235407177428" departLane="free"/>
  <flow id="JF75248" begin="360" fromJunction="J5" toJunction="J6" end="420" vehsPerHour="177.64196729744458" departLane="free"/>
  <flow id="JF75249" begin="360" fromJunction="J5" toJunction="J7" end="420" vehsPerHour="3.174561505428509" departLane="free"/>
  <flow id="JF75250" begin="360" fromJunction="J6" toJunction="J5" end="420" vehsPerHour="114.75456283508557" departLane="free"/>
  <flow id="JF75251" begin="360" fromJunction="J6" toJunction="J7" end="420" vehsPerHour="272.14901094256993" departLane="free"/>
  <flow id="JF75252" begin="360" fromJunction="J7" toJunction="J0" end="420" vehsPerHour="36.57459433669253" departLane="free"/>
  <flow id="JF75253" begin="360" fromJunction="J7" toJunction="J3" end="420" vehsPerHour="97.58053197505598" departLane="free"/>
  <flow id="JF75254" begin="360" fromJunction="J7" toJunction="J6" end="420" vehsPerHour="248.34101800745333" departLane="free"/>
  <flow id="JF75255" begin="420" fromJunction="J0" toJunction="J3" end="480" vehsPerHour="463.4058356076151" departLane="free"/>
  <flow id="JF75256" begin="420" fromJunction="J0" toJunction="J4" end="480" vehsPerHour="98.95242358945424" departLane="free"/>
  <flow id="JF75257" begin="420" fromJunction="J0" toJunction="J5" end="480" vehsPerHour="425.6358563750266" departLane="free"/>
  <flow id="JF75258" begin="420" fromJunction="J0" toJunction="J6" end="480" vehsPerHour="151.14697051644745" departLane="free"/>
  <flow id="JF75259" begin="420" fromJunction="J3" toJunction="J0" end="480" vehsPerHour="30.558714069962498" departLane="free"/>
  <flow id="JF75260" begin="420" fromJunction="J4" toJunction="J0" end="480" vehsPerHour="225.81104383975705" departLane="free"/>
  <flow id="JF75261" begin="420" fromJunction="J4" toJunction="J3" end="480" vehsPerHour="98.37774279934213" departLane="free"/>
  <flow id="JF75262" begin="420" fromJunction="J4" toJunction="J6" end="480" vehsPerHour="49.98799764313533" departLane="free"/>
  <flow id="JF75263" begin="420" fromJunction="J4" toJunction="J7" end="480" vehsPerHour="111.27785669588192" departLane="free"/>
  <flow id="JF75264" begin="420" fromJunction="J5" toJunction="J0" end="480" vehsPerHour="32.152373379920846" departLane="free"/>
  <flow id="JF75265" begin="420" fromJunction="J5" toJunction="J6" end="480" vehsPerHour="221.30633848805437" departLane="free"/>
  <flow id="JF75266" begin="420" fromJunction="J6" toJunction="J0" end="480" vehsPerHour="7.459590398756162" departLane="free"/>
  <flow id="JF75267" begin="420" fromJunction="J6" toJunction="J4" end="480" vehsPerHour="86.77302848541231" departLane="free"/>
  <flow id="JF75268" begin="420" fromJunction="J7" toJunction="J3" end="480" vehsPerHour="129.42773709720004" departLane="free"/>
  <flow id="JF75269" begin="420" fromJunction="J7" toJunction="J4" end="480" vehsPerHour="227.92537240555671" departLane="free"/>
  <flow id="JF75270" begin="420" fromJunction="J7" toJunction="J5" end="480" vehsPerHour="184.52874635583467" departLane="free"/>
  <flow id="JF75271" begin="420" fromJunction="J7" toJunction="J6" end="480" vehsPerHour="74.6329275931632" departLane="free"/>
  <flow id="JF75272" begin="480" fromJunction="J0" toJunction="J3" end="540" vehsPerHour="351.8339404927509" departLane="free"/>
  <flow id="JF75273" begin="480" fromJunction="J0" toJunction="J5" end="540" vehsPerHour="34.44088056335555" departLane="free"/>
  <flow id="JF75274" begin="480" fromJunction="J0" toJunction="J6" end="540" vehsPerHour="469.71914702044324" departLane="free"/>
  <flow id="JF75275" begin="480" fromJunction="J3" toJunction="J4" end="540" vehsPerHour="369.2013600343304" departLane="free"/>
  <flow id="JF75276" begin="480" fromJunction="J3" toJunction="J5" end="540" vehsPerHour="123.56850764515458" departLane="free"/>
  <flow id="JF75277" begin="480" fromJunction="J3" toJunction="J6" end="540" vehsPerHour="412.54637848156506" departLane="free"/>
  <flow id="JF75278" begin="480" fromJunction="J3" toJunction="J7" end="540" vehsPerHour="97.77907249473658" departLane="free"/>
  <flow id="JF75279" begin="480" fromJunction="J4" toJunction="J3" end="540" vehsPerHour="226.28811167185398" departLane="free"/>
  <flow id="JF75280" begin="480" fromJunction="J4" toJunction="J7" end="540" vehsPerHour="200.33879492232774" departLane="free"/>
  <flow id="JF75281" begin="480" fromJunction="J5" toJunction="J0" end="540" vehsPerHour="269.5704478670475" departLane="free"/>
  <flow id="JF75282" begin="480" fromJunction="J5" toJunction="J3" end="540" vehsPerHour="147.90149399507692" departLane="free"/>
  <flow id="JF75283" begin="480" fromJunction="J5" toJunction="J4" end="540" vehsPerHour="273.1678471840514" departLane="free"/>
  <flow id="JF75284" begin="480" fromJunction="J6" toJunction="J3" end="540" vehsPerHour="8.055214742997167" departLane="free"/>
  <flow id="JF75285" begin="480" fromJunction="J6" toJunction="J4" end="540" vehsPerHour="138.31238658976574" departLane="free"/>
  <flow id="JF75286" begin="480" fromJunction="J6" toJunction="J7" end="540" vehsPerHour="227.27466299590364" departLane="free"/>
  <flow id="JF75287" begin="480" fromJunction="J7" toJunction="J0" end="540" vehsPerHour="38.97454737359887" departLane="free"/>
  <flow id="JF75288" begin="480" fromJunction="J7" toJunction="J4" end="540" vehsPerHour="93.01061532668793" departLane="free"/>
  <flow id="JF75289" begin="480" fromJunction="J7" toJunction="J5" end="540" vehsPerHour="81.00489821571588" departLane="free"/>
  <flow id="JF75290" begin="480" fromJunction="J7" toJunction="J6" end="540" vehsPerHour="253.17574738571412" departLane="free"/>
  <flow id="JF75291" begin="540" fromJunction="J0" toJunction="J3" end="600" vehsPerHour="155.12768376724594" departLane="free"/>
  <flow id="JF75292" begin="540" fromJunction="J0" toJunction="J4" end="600" vehsPerHour="59.957091069417295" departLane="free"/>
  <flow id="JF75293" begin="540" fromJunction="J0" toJunction="J6" end="600" vehsPerHour="334.07193056057486" departLane="free"/>
  <flow id="JF75294" begin="540" fromJunction="J0" toJunction="J7" end="600" vehsPerHour="336.3195659511636" departLane="free"/>
  <flow id="JF75295" begin="540" fromJunction="J3" toJunction="J5" end="600" vehsPerHour="351.9777795497294" departLane="free"/>
  <flow id="JF75296" begin="540" fromJunction="J3" toJunction="J6" end="600" vehsPerHour="322.6430410129626" departLane="free"/>
  <flow id="JF75297" begin="540" fromJunction="J3" toJunction="J7" end="600" vehsPerHour="142.19627120314684" departLane="free"/>
  <flow id="JF75298" begin="540" fromJunction="J4" toJunction="J5" end="600" vehsPerHour="63.431913563372106" departLane="free"/>
  <flow id="JF75299" begin="540" fromJunction="J4" toJunction="J6" end="600" vehsPerHour="112.61418887286598" departLane="free"/>
  <flow id="JF75300" begin="540" fromJunction="J4" toJunction="J7" end="600" vehsPerHour="7.352147623241965" departLane="free"/>
  <flow id="JF75301" begin="540" fromJunction="J5" toJunction="J0" end="600" vehsPerHour="70.73393181472433" departLane="free"/>
  <flow id="JF75302" begin="540" fromJunction="J5" toJunction="J3" end="600" vehsPerHour="184.13988733498425" departLane="free"/>
  <flow id="JF75303" begin="540" fromJunction="J5" toJunction="J6" end="600" vehsPerHour="265.40655421132476" departLane="free"/>
  <flow id="JF75304" begin="540" fromJunction="J6" toJunction="J4" end="600" vehsPerHour="105.8222901927616" departLane="free"/>
  <flow id="JF75305" begin="540" fromJunction="J6" toJunction="J7" end="600" vehsPerHour="99.86027630793859" departLane="free"/>
  <flow id="JF75306" begin="540" fromJunction="J7" toJunction="J0" end="600" vehsPerHour="271.05969320765473" departLane="free"/>
  <flow id="JF75307" begin="540" fromJunction="J7" toJunction="J3" end="600" vehsPerHour="250.4930930834429" departLane="free"/>
  <flow id="JF75308" begin="540" fromJunction="J7" toJunction="J4" end="600" vehsPerHour="156.93946019139779" departLane="free"/>
  <flow id="JF75309" begin="540" fromJunction="J7" toJunction="J5" end="600" vehsPerHour="196.96430601706462" departLane="free"/>
  <flow id="JF75310" begin="540" fromJunction="J7" toJunction="J6" end="600" vehsPerHour="128.9926387815995" departLane="free"/>
  <flow id="JF75311" begin="600" fromJunction="J0" toJunction="J3" end="660" vehsPerHour="546.5596180845027" departLane="free"/>
  <flow id="JF75312" begin="600" fromJunction="J0" toJunction="J5" end="660" vehsPerHour="288.6031612723498" departLane="free"/>
  <flow id="JF75313" begin="600" fromJunction="J0" toJunction="J7" end="660" vehsPerHour="1.6946806015786178" departLane="free"/>
  <flow id="JF75314" begin="600" fromJunction="J3" toJunction="J0" end="660" vehsPerHour="362.8187574412682" departLane="free"/>
  <flow id="JF75315" begin="600" fromJunction="J3" toJunction="J5" end="660" vehsPerHour="207.9094297038379" departLane="free"/>
  <flow id="JF75316" begin="600" fromJunction="J3" toJunction="J6" end="660" vehsPerHour="1.8345066925970774" departLane="free"/>
  <flow id="JF75317" begin="600" fromJunction="J3" toJunction="J7" end="660" vehsPerHour="276.9633251422268" departLane="free"/>
  <flow id="JF75318" begin="600" fromJunction="J4" toJunction="J0" end="660" vehsPerHour="25.339185213411895" departLane="free"/>
  <flow id="JF75319" begin="600" fromJunction="J4" toJunction="J3" end="660" vehsPerHour="236.2357063384634" departLane="free"/>
  <flow id="JF75320" begin="600" fromJunction="J4" toJunction="J5" end="660" vehsPerHour="250.97374608236163" departLane="free"/>
  <flow id="JF75321" begin="600" fromJunction="J4" toJunction="J6" end="660" vehsPerHour="130.73463965725702" departLane="free"/>
  <flow id="JF75322" begin="600" fromJunction="J4" toJunction="J7" end="660" vehsPerHour="203.21218674913584" departLane="free"/>
  <flow id="JF75323" begin="600" fromJunction="J5" toJunction="J3" end="660" vehsPerHour="80.24587955798059" departLane="free"/>
  <flow id="JF75324" begin="600" fromJunction="J5" toJunction="J6" end="660" vehsPerHour="198.93392374995554" departLane="free"/>
  <flow id="JF75325" begin="600" fromJunction="J5" toJunction="J7" end="660" vehsPerHour="22.449393840893602" departLane="free"/>
  <flow id="JF75326" begin="600" fromJunction="J6" toJunction="J0" end="660" vehsPerHour="32.72901592179944" departLane="free"/>
  <flow id="JF75327" begin="600" fromJunction="J6" toJunction="J3" end="660" vehsPerHour="90.58902277540764" departLane="free"/>
  <flow id="JF75328" begin="600" fromJunction="J6" toJunction="J4" end="660" vehsPerHour="200.51876697739218" departLane="free"/>
  <flow id="JF75329" begin="600" fromJunction="J6" toJunction="J5" end="660" vehsPerHour="232.31221119701632" departLane="free"/>
  <flow id="JF75330" begin="600" fromJunction="J6" toJunction="J7" end="660" vehsPerHour="258.7840626822187" departLane="free"/>
  <flow id="JF75331" begin="600" fromJunction="J7" toJunction="J5" end="660" vehsPerHour="4.663495310437143" departLane="free"/>
  <flow id="JF75332" begin="660" fromJunction="J0" toJunction="J3" end="720" vehsPerHour="546.3372538262936" departLane="free"/>
  <flow id="JF75333" begin="660" fromJunction="J0" toJunction="J4" end="720" vehsPerHour="495.04211934599437" departLane="free"/>