<?xml version="1.0" encoding="UTF-8"?>
<routes xmlns:xsi="http://www.w3.org/2001/XMLSchema-instance" xsi:noNamespaceSchemaLocation="http://sumo.dlr.de/xsd/routes_file.xsd">
  <flow id="JF78743" begin="0" fromJunction="J3" toJunction="J0" end="5000" vehsPerHour="505.4525099134899" departLane="free"/>
  <flow id="JF78744" begin="0" fromJunction="J0" toJunction="J3" end="5000" vehsPerHour="720.6264241991249" departLane="free"/>
  <flow id="JF78745" begin="0" fromJunction="J3" toJunction="J6" end="5000" vehsPerHour="53.250581886228225" departLane="free"/>
  <flow id="JF78746" begin="0" fromJunction="J3" toJunction="J5" end="5000" vehsPerHour="106.03444493806242" departLane="free"/>
  <flow id="JF78747" begin="0" fromJunction="J3" toJunction="J4" end="5000" vehsPerHour="31.351048147298357" departLane="free"/>
  <flow id="JF78748" begin="0" fromJunction="J3" toJunction="J7" end="5000" vehsPerHour="74.7279763461147" departLane="free"/>
  <flow id="JF78749" begin="0" fromJunction="J0" toJunction="J6" end="5000" vehsPerHour="43.798478778746265" departLane="free"/>
  <flow id="JF78750" begin="0" fromJunction="J0" toJunction="J5" end="5000" vehsPerHour="33.82126209796364" departLane="free"/>
  <flow id="JF78751" begin="0" fromJunction="J0" toJunction="J4" end="5000" vehsPerHour="122.25201184975876" departLane="free"/>
  <flow id="JF78752" begin="0" fromJunction="J0" toJunction="J7" end="5000" vehsPerHour="10.964243044142297" departLane="free"/>
  <flow id="JF78753" begin="0" fromJunction="J6" toJunction="J5" end="5000" vehsPerHour="64.41480474233926" departLane="free"/>
  <flow id="JF78754" begin="0" fromJunction="J6" toJunction="J4" end="5000" vehsPerHour="15.123391324017042" departLane="free"/>
  <flow id="JF78755" begin="0" fromJunction="J6" toJunction="J7" end="5000" vehsPerHour="1.1970681624414519" departLane="free"/>
  <flow id="JF78756" begin="0" fromJunction="J5" toJunction="J6" end="5000" vehsPerHour="12.846072439766242" departLane="free"/>
  <flow id="JF78757" begin="0" fromJunction="J5" toJunction="J4" end="5000" vehsPerHour="43.01165009241878" departLane="free"/>
  <flow id="JF78758" begin="0" fromJunction="J5" toJunction="J7" end="5000" vehsPerHour="57.321531771178904" departLane="free"/>
  <flow id="JF78759" begin="0" fromJunction="J4" toJunction="J6" end="5000" vehsPerHour="31.79281842820568" departLane="free"/>
  <flow id="JF78760" begin="0" fromJunction="J4" toJunction="J5" end="5000" vehsPerHour="4.9076715559079584" departLane="free"/>
  <flow id="JF78761" begin="0" fromJunction="J4" toJunction="J7" end="5000" vehsPerHour="21.673993148454084" departLane="free"/>
  <flow id="JF78762" begin="0" fromJunction="J7" toJunction="J6" end="5000" vehsPerHour="36.14113716836032" departLane="free"/>
  <flow id="JF78763" begin="0" fromJunction="J7" toJunction="J5" end="5000" vehsPerHour="38.9220818779623" departLane="free"/>
  <flow id="JF78764" begin="0" fromJunction="J7" toJunction="J4" end="5000" vehsPerHour="52.780094519780654" departLane="free"/>
  <flow id="JF78765" begin="0" fromJunction="J6" toJunction="J3" end="5000" vehsPerHour="15.830068229628806" departLane="free"/>
  <flow id="JF78766" begin="0" fromJunction="J6" toJunction="J0" end="5000" vehsPerHour="23.209516224587517" departLane="free"/>
  <flow id="JF78767" begin="0" fromJunction="J5" toJunction="J3" end="5000" vehsPerHour="52.96686691719246" departLane="free"/>
  <flow id="JF78768" begin="0" fromJunction="J5" toJunction="J0" end="5000" vehsPerHour="27.302298915233386" departLane="free"/>
  <flow id="JF78769" begin="0" fromJunction="J4" toJunction="J3" end="5000" vehsPerHour="46.50474197818998" departLane="free"/>
  <flow id="JF78770" begin="0" fromJunction="J4" toJunction="J0" end="5000" vehsPerHour="46.34381411966367" departLane="free"/>
  <flow id="JF78771" begin="0" fromJunction="J7" toJunction="J3" end="5000" vehsPerHour="25.412470439429168" departLane="free"/>
  <flow id="JF78772" begin="0" fromJunction="J7" toJunction="J0" end="5000" vehsPerHour="11.7990963628124" departLane="free"/>
  <flow id="JF78773" begin="5000" fromJunction="J0" toJunction="J3" end="5060" vehsPerHour="73.64873444122894" departLane="free"/>
  <flow id="JF78774" begin="5000" fromJunction="J0" toJunction="J4" end="5060" vehsPerHour="132.54629795530823" departLane="free"/>
  <flow id="JF78775" begin="5000" fromJunction="J0" toJunction="J5" end="5060" vehsPerHour="340.8097632704399" departLane="free"/>
  <flow id="JF78776" begin="5000" fromJunction="J0" toJunction="J6" end="5060" vehsPerHour="68.99056391582246" departLane="free"/>
  <flow id="JF78777" begin="5000" fromJunction="J0" toJunction="J7" end="5060" vehsPerHour="318.6864234782571" departLane="free"/>
  <flow id="JF78778" begin="5000" fromJunction="J3" toJunction="J0" end="5060" vehsPerHour="148.85801530949237" departLane="free"/>
  <flow id="JF78779" begin="5000" fromJunction="J3" toJunction="J4" end="5060" vehsPerHour="2.093672077059221" departLane="free"/>
  <flow id="JF78780" begin="5000" fromJunction="J3" toJunction="J5" end="5060" vehsPerHour="473.8465246342166" departLane="free"/>
  <flow id="JF78781" begin="5000" fromJunction="J3" toJunction="J6" end="5060" vehsPerHour="190.81207953032566" departLane="free"/>
  <flow id="JF78782" begin="5000" fromJunction="J4" toJunction="J0" end="5060" vehsPerHour="175.0569926390343" departLane="free"/>
  <flow id="JF78783" begin="5000" fromJunction="J4" toJunction="J6" end="5060" vehsPerHour="56.944506128486516" departLane="free"/>
  <flow id="JF78784" begin="5000" fromJunction="J4" toJunction="J7" end="5060" vehsPerHour="247.32965285971014" departLane="free"/>
  <flow id="JF78785" begin="5000" fromJunction="J5" toJunction="J3" end="5060" vehsPerHour="87.78255628474975" departLane="free"/>
  <flow id="JF78786" begin="5000" fromJunction="J5" toJunction="J4" end="5060" vehsPerHour="158.6589092595944" departLane="free"/>
  <flow id="JF78787" begin="5000" fromJunction="J5" toJunction="J6" end="5060" vehsPerHour="72.33997791860912" departLane="free"/>
  <flow id="JF78788" begin="5000" fromJunction="J7" toJunction="J0" end="5060" vehsPerHour="234.04546752202754" departLane="free"/>
  <flow id="JF78789" begin="5000" fromJunction="J7" toJunction="J4" end="5060" vehsPerHour="224.88916066447888" departLane="free"/>
  <flow id="JF78790" begin="5000" fromJunction="J7" toJunction="J6" end="5060" vehsPerHour="108.90573755277647" departLane="free"/>
  <flow id="JF78791" begin="5060" fromJunction="J0" toJunction="J4" end="5120" vehsPerHour="325.9089548957627" departLane="free"/>
  <flow id="JF78792" begin="5060" fromJunction="J0" toJunction="J5" end="5120" vehsPerHour="442.7336132558686" departLane="free"/>
  <flow id="JF78793" begin="5060" fromJunction="J0" toJunction="J7" end="5120" vehsPerHour="302.31407617476503" departLane="free"/>
  <flow id="JF78794" begin="5060" fromJunction="J3" toJunction="J0" end="5120" vehsPerHour="161.08324854320534" departLane="free"/>
  <flow id="JF78795" begin="5060" fromJunction="J3" toJunction="J4" end="5120" vehsPerHour="323.1583693302125" departLane="free"/>
  <flow id="JF78796" begin="5060" fromJunction="J3" toJunction="J5" end="5120" vehsPerHour="67.06668501226451" departLane="free"/>
  <flow id="JF78797" begin="5060" fromJunction="J3" toJunction="J6" end="5120" vehsPerHour="12.636531997257116" departLane="free"/>
  <flow id="JF78798" begin="5060" fromJunction="J3" toJunction="J7" end="5120" vehsPerHour="464.5010250642213" departLane="free"/>
  <flow id="JF78799" begin="5060" fromJunction="J4" toJunction="J3" end="5120" vehsPerHour="181.06027791349516" departLane="free"/>
  <flow id="JF78800" begin="5060" fromJunction="J4" toJunction="J5" end="5120" vehsPerHour="245.3704695410435" departLane="free"/>
  <flow id="JF78801" begin="5060" fromJunction="J4" toJunction="J6" end="5120" vehsPerHour="123.45129882791176" departLane="free"/>
  <flow id="JF78802" begin="5060" fromJunction="J4" toJunction="J7" end="5120" vehsPerHour="165.99491217211647" departLane="free"/>
  <flow id="JF78803" begin="5060" fromJunction="J5" toJunction="J3" end="5120" vehsPerHour="226.56863244283605" departLane="free"/>
  <flow id="JF78804" begin="5060" fromJunction="J5" toJunction="J4" end="5120" vehsPerHour="254.98041648877629" departLane="free"/>
  <flow id="JF78805" begin="5060" fromJunction="J5" toJunction="J6" end="5120" vehsPerHour="83.2499644873406" departLane="free"/>
  <flow id="JF78806" begin="5060" fromJunction="J6" toJunction="J3" end="5120" vehsPerHour="15.782236371998444" departLane="free"/>
  <flow id="JF78807" begin="5060" fromJunction="J6" toJunction="J4" end="5120" vehsPerHour="21.03325191351706" departLane="free"/>
  <flow id="JF78808" begin="5060" fromJunction="J6" toJunction="J5" end="5120" vehsPerHour="264.14782290828424" departLane="free"/>
  <flow id="JF78809" begin="5060" fromJunction="J6" toJunction="J7" end="5120" vehsPerHour="78.63618529712288" departLane="free"/>
  <flow id="JF78810" begin="5060" fromJunction="J7" toJunction="J0" end="5120" vehsPerHour="257.39020272471345" departLane="free"/>
  <flow id="JF78811" begin="5060" fromJunction="J7" toJunction="J4" end="5120" vehsPerHour="145.7625085209304" departLane="free"/>
  <flow id="JF78812" begin="5060" fromJunction="J7" toJunction="J5" end="5120" vehsPerHour="11.499408105070392" departLane="free"/>
  <flow id="JF78813" begin="5120" fromJunction="J0" toJunction="J5" end="5180" vehsPerHour="542.6618351894837" departLane="free"/>
  <flow id="JF78814" begin="5120" fromJunction="J0" toJunction="J6" end="5180" vehsPerHour="72.9192254848494" departLane="free"/>
  <flow id="JF78815" begin="5120" fromJunction="J3" toJunction="J0" end="5180" vehsPerHour="542.2183840754476" departLane="free"/>
  <flow id="JF78816" begin="5120" fromJunction="J3" toJunction="J4" end="5180" vehsPerHour="97.73707595016222" departLane="free"/>
  <flow id="JF78817" begin="5120" fromJunction="J3" toJunction="J5" end="5180" vehsPerHour="71.97517772719789" departLane="free"/>
  <flow id="JF78818" begin="5120" fromJunction="J3" toJunction="J6" end="5180" vehsPerHour="458.61686202550413" departLane="free"/>
  <flow id="JF78819" begin="5120" fromJunction="J4" toJunction="J0" end="5180" vehsPerHour="208.51750720670557" departLane="free"/>
  <flow id="JF78820" begin="5120" fromJunction="J4" toJunction="J6" end="5180" vehsPerHour="85.65105394506288" departLane="free"/>
  <flow id="JF78821" begin="5120" fromJunction="J5" toJunction="J0" end="5180" vehsPerHour="133.48601767439132" departLane="free"/>
  <flow id="JF78822" begin="5120" fromJunction="J5" toJunction="J4" end="5180" vehsPerHour="135.5693042346082" departLane="free"/>
  <flow id="JF78823" begin="5120" fromJunction="J5" toJunction="J6" end="5180" vehsPerHour="246.26757090440918" departLane="free"/>
  <flow id="JF78824" begin="5120" fromJunction="J5" toJunction="J7" end="5180" vehsPerHour="262.536254110378" departLane="free"/>
  <flow id="JF78825" begin="5120" fromJunction="J6" toJunction="J0" end="5180" vehsPerHour="266.8821497876948" departLane="free"/>
  <flow id="JF78826" begin="5120" fromJunction="J6" toJunction="J3" end="5180" vehsPerHour="243.40501542253025" departLane="free"/>
  <flow id="JF78827" begin="5120" fromJunction="J6" toJunction="J4" end="5180" vehsPerHour="260.23553425921864" departLane="free"/>
  <flow id="JF78828" begin="5120" fromJunction="J6" toJunction="J5" end="5180" vehsPerHour="266.0926700781245" departLane="free"/>
  <flow id="JF78829" begin="5120" fromJunction="J6" toJunction="J7" end="5180" vehsPerHour="18.679381761653268" departLane="free"/>
  <flow id="JF78830" begin="5120" fromJunction="J7" toJunction="J0" end="5180" vehsPerHour="250.7656693820879" departLane="free"/>
  <flow id="JF78831" begin="5120" fromJunction="J7" toJunction="J4" end="5180" vehsPerHour="257.14456734942837" departLane="free"/>
  <flow id="JF78832" begin="5120" fromJunction="J7" toJunction="J5" end="5180" vehsPerHour="77.0676878413067" departLane="free"/>
  <flow id="JF78833" begin="5120" fromJunction="J7" toJunction="J6" end="5180" vehsPerHour="94.44334487378084" departLane="free"/>
  <flow id="JF78834" begin="5180" fromJunction="J0" toJunction="J4" end="5240" vehsPerHour="229.50594026906128" departLane="free"/>
  <flow id="JF78835" begin="5180" fromJunction="J0" toJunction="J7" end="5240" vehsPerHour="361.65923767285574" departLane="free"/>
  <flow id="JF78836" begin="5180" fromJunction="J3" toJunction="J4" end="5240" vehsPerHour="370.69643951473347" departLane="free"/>
  <flow id="JF78837" begin="5180" fromJunction="J3" toJunction="J5" end="5240" vehsPerHour="141.6697236082336" departLane="free"/>
  <flow id="JF78838" begin="5180" fromJunction="J3" toJunction="J6" end="5240" vehsPerHour="413.4869744457782" departLane="free"/>
  <flow id="JF78839" begin="5180" fromJunction="J3" toJunction="J7" end="5240" vehsPerHour="8.939392943346377" departLane="free"/>
  <flow id="JF78840" begin="5180" fromJunction="J4" toJunction="J5" end="5240" vehsPerHour="233.94722730481564" departLane="free"/>
  <flow id="JF78841" begin="5180" fromJunction="J4" toJunction="J6" end="5240" vehsPerHour="109.03725115669843" departLane="free"/>
  <flow id="JF78842" begin="5180" fromJunction="J4" toJunction="J7" end="5240" vehsPerHour="269.53741195233334" departLane="free"/>
  <flow id="JF78843" begin="5180" fromJunction="J5" toJunction="J3" end="5240" vehsPerHour="148.2025417468855" departLane="free"/>
  <flow id="JF78844" begin="5180" fromJunction="J5" toJunction="J4" end="5240" vehsPerHour="22.615741615293423" departLane="free"/>
  <flow id="JF78845" begin="5180" fromJunction="J5" toJunction="J7" end="5240" vehsPerHour="219.3900668284019" departLane="free"/>
  <flow id="JF78846" begin="5180" fromJunction="J6" toJunction="J0" end="5240" vehsPerHour="68.87965398921438" departLane="free"/>
  <flow id="JF78847" begin="5180" fromJunction="J6" toJunction="J3" end="5240" vehsPerHour="271.3633088366756" departLane="free"/>
  <flow id="JF78848" begin="5180" fromJunction="J6" toJunction="J5" end="5240" vehsPerHour="188.8859441969115" departLane="free"/>
  <flow id="JF78849" begin="5180" fromJunction="J7" toJunction="J0" end="5240" vehsPerHour="243.4308830923763" departLane="free"/>
  <flow id="JF78850" begin="5180" fromJunction="J7" toJunction="J3" end="5240" vehsPerHour="109.6448840222466" departLane="free"/>
  <flow id="JF78851" begin="5180" fromJunction="J7" toJunction="J4" end="5240" vehsPerHour="181.6806109277418" departLane="free"/>
  <flow id="JF78852" begin="5180" fromJunction="J7" toJunction="J5" end="5240" vehsPerHour="155.96316141560962" departLane="free"/>
  <flow id="JF78853" begin="5180" fromJunction="J7" toJunction="J6" end="5240" vehsPerHour="273.2605819210753" departLane="free"/>
  <flow id="JF78854" begin="5240" fromJunction="J0" toJunction="J4" end="5300" vehsPerHour="316.24851121944636" departLane="free"/>
  <flow id="JF78855" begin="5240" fromJunction="J0" toJunction="J5" end="5300" vehsPerHour="524.3337459744471" departLane="free"/>
  <flow id="JF78856" begin="5240" fromJunction="J0" toJunction="J6" end="5300" vehsPerHour="374.7317548970022" departLane="free"/>
  <flow id="JF78857" begin="5240" fromJunction="J3" toJunction="J4" end="5300" vehsPerHour="199.10420245629814" departLane="free"/>
  <flow id="JF78858" begin="5240" fromJunction="J3" toJunction="J6" end="5300" vehsPerHour="314.33094137617184" departLane="free"/>
  <flow id="JF78859" begin="5240" fromJunction="J3" toJunction="J7" end="5300" vehsPerHour="263.179960619613" departLane="free"/>
  <flow id="JF78860" begin="5240" fromJunction="J4" toJunction="J3" end="5300" vehsPerHour="151.6327058804566" departLane="free"/>
  <flow id="JF78861" begin="5240" fromJunction="J4" toJunction="J5" end="5300" vehsPerHour="138.88410025065454" departLane="free"/>
  <flow id="JF78862" begin="5240" fromJunction="J4" toJunction="J6" end="5300" vehsPerHour="9.062372193279614" departLane="free"/>
  <flow id="JF78863" begin="5240" fromJunction="J5" toJunction="J3" end="5300" vehsPerHour="267.7245651101652" departLane="free"/>
  <flow id="JF78864" begin="5240" fromJunction="J5" toJunction="J4" end="5300" vehsPerHour="69.58456087927175" departLane="free"/>
  <flow id="JF78865" begin="5240" fromJunction="J5" toJunction="J6" end="5300" vehsPerHour="221.2299236964383" departLane="free"/>
  <flow id="JF78866" begin="5240" fromJunction="J6" toJunction="J0" end="5300" vehsPerHour="192.13263194094634" departLane="free"/>
  <flow id="JF78867" begin="5240" fromJunction="J6" toJunction="J4" end="5300" vehsPerHour="253.05682759631827" departLane="free"/>
  <flow id="JF78868" begin="5240" fromJunction="J6" toJunction="J7" end="5300" vehsPerHour="146.309500399114" departLane="free"/>
  <flow id="JF78869" begin="5240" fromJunction="J7" toJunction="J0" end="5300" vehsPerHour="51.9894879751549" departLane="free"/>
  <flow id="JF78870" begin="5240" fromJunction="J7" toJunction="J4" end="5300" vehsPerHour="105.58179762993127" departLane="free"/>
  <flow id="JF78871" begin="5240" fromJunction="J7" toJunction="J6" end="5300" vehsPerHour="256.95093953069374" departLane="free"/>
  <flow id="JF78872" begin="5300" fromJunction="J0" toJunction="J3" end="5360" vehsPerHour="38.83181927374129" departLane="free"/>
  <flow id="JF78873" begin="5300" fromJunction="J0" toJunction="J4" end="5360" vehsPerHour="547.8133029282405" departLane="free"/>
  <flow id="JF78874" begin="5300" fromJunction="J0" toJunction="J5" end="5360" vehsPerHour="334.06123857413866" departLane="free"/>
  <flow id="JF78875" begin="5300" fromJunction="J0" toJunction="J6" end="5360" vehsPerHour="461.5217393842701" departLane="free"/>
  <flow id="JF78876" begin="5300" fromJunction="J0" toJunction="J7" end="5360" vehsPerHour="426.3347552576974" departLane="free"/>
  <flow id="JF78877" begin="5300" fromJunction="J3" toJunction="J0" end="5360" vehsPerHour="201.3137950142037" departLane="free"/>
  <flow id="JF78878" begin="5300" fromJunction="J3" toJunction="J4" end="5360" vehsPerHour="97.46104695871797" departLane="free"/>
  <flow id="JF78879" begin="5300" fromJunction="J3" toJunction="J5" end="5360" vehsPerHour="464.75851899820594" departLane="free"/>
  <flow id="JF78880" begin="5300" fromJunction="J3" toJunction="J6" end="5360" vehsPerHour="163.15413016346963" departLane="free"/>
  <flow id="JF78881" begin="5300" fromJunction="J4" toJunction="J0" end="5360" vehsPerHour="95.8553280917071" departLane="free"/>
  <flow id="JF78882" begin="5300" fromJunction="J4" toJunction="J3" end="5360" vehsPerHour="193.93068649794816" departLane="free"/>
  <flow id="JF78883" begin="5300" fromJunction="J4" toJunction="J5" end="5360" vehsPerHour="115.68669234424098" departLane="free"/>
  <flow id="JF78884" begin="5300" fromJunction="J4" toJunction="J6" end="5360" vehsPerHour="138.20988753327364" departLane="free"/>
  <flow id="JF78885" begin="5300" fromJunction="J4" toJunction="J7" end="5360" vehsPerHour="149.6081146974117" departLane="free"/>
  <flow id="JF78886" begin="5300" fromJunction="J5" toJunction="J3" end="5360" vehsPerHour="158.70652972127405" departLane="free"/>
  <flow id="JF78887" begin="5300" fromJunction="J5" toJunction="J4" end="5360" vehsPerHour="176.32882068501968" departLane="free"/>
  <flow id="JF78888" begin="5300" fromJunction="J5" toJunction="J6" end="5360" vehsPerHour="220.5978798421101" departLane="free"/>
  <flow id="JF78889" begin="5300" fromJunction="J6" toJunction="J3" end="5360" vehsPerHour="48.41242711556837" departLane="free"/>
  <flow id="JF78890" begin="5300" fromJunction="J6" toJunction="J4" end="5360" vehsPerHour="69.18731354275799" departLane="free"/>
  <flow id="JF78891" begin="5300" fromJunction="J7" toJunction="J0" end="5360" vehsPerHour="167.93151381104238" departLane="free"/>
  <flow id="JF78892" begin="5300" fromJunction="J7" toJunction="J3" end="5360" vehsPerHour="0.5636947697443586" departLane="free"/>
  <flow id="JF78893" begin="5300" fromJunction="J7" toJunction="J6" end="5360" vehsPerHour="107.51231920903348" departLane="free"/>
  <flow id="JF78894" begin="5360" fromJunction="J0" toJunction="J3" end="5420" vehsPerHour="425.7707060092214" departLane="free"/>
  <flow id="JF78895" begin="5360" fromJunction="J0" toJunction="J4" end="5420" vehsPerHour="168.77105463913261" departLane="free"/>
  <flow id="JF78896" begin="5360" fromJunction="J0" toJunction="J5" end="5420" vehsPerHour="368.7425859814593" departLane="free"/>
  <flow id="JF78897" begin="5360" fromJunction="J0" toJunction="J6" end="5420" vehsPerHour="283.77421080065346" departLane="free"/>
  <flow id="JF78898" begin="5360" fromJunction="J0" toJunction="J7" end="5420" vehsPerHour="282.8036189426256" departLane="free"/>
  <flow id="JF78899" begin="5360" fromJunction="J3" toJunction="J4" end="5420" vehsPerHour="213.7358791252588" departLane="free"/>
  <flow id="JF78900" begin="5360" fromJunction="J3" toJunction="J5" end="5420" vehsPerHour="69.6658190123968" departLane="free"/>
  <flow id="JF78901" begin="5360" fromJunction="J3" toJunction="J6" end="5420" vehsPerHour="411.6853108174213" departLane="free"/>
  <flow id="JF78902" begin="5360" fromJunction="J4" toJunction="J0" end="5420" vehsPerHour="250.65218036292964" departLane="free"/>
  <flow id="JF78903" begin="5360" fromJunction="J4" toJunction="J5" end="5420" vehsPerHour="231.29274785515278" departLane="free"/>
  <flow id="JF78904" begin="5360" fromJunction="J4" toJunction="J6" end="5420" vehsPerHour="31.263507392228465" departLane="free"/>
  <flow id="JF78905" begin="5360" fromJunction="J5" toJunction="J3" end="5420" vehsPerHour="36.74961313189537" departLane="free"/>
  <flow id="JF78906" begin="5360" fromJunction="J5" toJunction="J4" end="5420" vehsPerHour="229.15733904836523" departLane="free"/>
  <flow id="JF78907" begin="5360" fromJunction="J6" toJunction="J0" end="5420" vehsPerHour="193.10964565999012" departLane="free"/>
  <flow id="JF78908" begin="5360" fromJunction="J6" toJunction="J3" end="5420" vehsPerHour="45.04484259039634" departLane="free"/>
  <flow id="JF78909" begin="5360" fromJunction="J6" toJunction="J4" end="5420" vehsPerHour="92.44283908011457" departLane="free"/>
  <flow id="JF78910" begin="5360" fromJunction="J6" toJunction="J7" end="5420" vehsPerHour="136.99369577364428" departLane="free"/>
  <flow id="JF78911" begin="5360" fromJunction="J7" toJunction="J3" end="5420" vehsPerHour="206.8818466349536" departLane="free"/>
  <flow id="JF78912" begin="5360" fromJunction="J7" toJunction="J5" end="5420" vehsPerHour="227.89403750917631" departLane="free"/>
  <flow id="JF78913" begin="5420" fromJunction="J0" toJunction="J3" end="5480" vehsPerHour="159.22492029777348" departLane="free"/>
  <flow id="JF78914" begin="5420" fromJunction="J0" toJunction="J4" end="5480" vehsPerHour="266.44097204855774" departLane="free"/>
  <flow id="JF78915" begin="5420" fromJunction="J0" toJunction="J5" end="5480" vehsPerHour="193.38386450886725" departLane="free"/>
  <flow id="JF78916" begin="5420" fromJunction="J0" toJunction="J6" end="5480" vehsPerHour="292.4890576533525" departLane="free"/>
  <flow id="JF78917" begin="5420" fromJunction="J0" toJunction="J7" end="5480" vehsPerHour="298.04426493144075" departLane="free"/>
  <flow id="JF78918" begin="5420" fromJunction="J3" toJunction="J0" end="5480" vehsPerHour="363.044659562869" departLane="free"/>
  <flow id="JF78919" begin="5420" fromJunction="J3" toJunction="J4" end="5480" vehsPerHour="501.718431940046" departLane="free"/>
  <flow id="JF78920" begin="5420" fromJunction="J3" toJunction="J5" end="5480" vehsPerHour="375.5363268235364" departLane="free"/>
  <flow id="JF78921" begin="5420" fromJunction="J3" toJunction="J6" end="5480" vehsPerHour="468.9352384538579" departLane="free"/>
  <flow id="JF78922" begin="5420" fromJunction="J4" toJunction="J0" end="5480" vehsPerHour="79.90028687300747" departLane="free"/>
  <flow id="JF78923" begin="5420" fromJunction="J4" toJunction="J6" end="5480" vehsPerHour="56.342339999989946" departLane="free"/>
  <flow id="JF78924" begin="5420" fromJunction="J4" toJunction="J7" end="5480" vehsPerHour="79.97783836852422" departLane="free"/>
  <flow id="JF78925" begin="5420" fromJunction="J5" toJunction="J3" end="5480" vehsPerHour="204.48284186104578" departLane="free"/>
  <flow id="JF78926" begin="5420" fromJunction="J5" toJunction="J4" end="5480" vehsPerHour="6.318667859340273" departLane="free"/>
  <flow id="JF78927" begin="5420" fromJunction="J5" toJunction="J6" end="5480" vehsPerHour="65.11517110788203" departLane="free"/>
  <flow id="JF78928" begin="5420" fromJunction="J5" toJunction="J7" end="5480" vehsPerHour="182.54474272165928" departLane="free"/>
  <flow id="JF78929" begin="5420" fromJunction="J6" toJunction="J0" end="5480" vehsPerHour="226.84880474611617" departLane="free"/>
  <flow id="JF78930" begin="5420" fromJunction="J6" toJunction="J5" end="5480" vehsPerHour="14.150054790629826" departLane="free"/>
  <flow id="JF78931" begin="5420" fromJunction="J6" toJunction="J7" end="5480" vehsPerHour="120.6753699547285" departLane="free"/>
  <flow id="JF78932" begin="5420" fromJunction="J7" toJunction="J0" end="5480" vehsPerHour="53.98389859042163" departLane="free"/>
  <flow id="JF78933" begin="5420" fromJunction="J7" toJunction="J3" end="5480" vehsPerHour="170.62156561499467" departLane="free"/>
  <flow id="JF78934" begin="5420" fromJunction="J7" toJunction="J6" end="5480" vehsPerHour="118.61476636305478" departLane="free"/>
  <flow id="JF78935" begin="5480" fromJunction="J0" toJunction="J4" end="5540" vehsPerHour="56.87190196919088" departLane="free"/>
  <flow id="JF78936" begin="5480" fromJunction="J0" toJunction="J5" end="5540" vehsPerHour="15.04154132180028" departLane="free"/>
  <flow id="JF78937" begin="5480" fromJunction="J3" toJunction="J0" end="5540" vehsPerHour="298.72768568128964" departLane="free"/>
  <flow id="JF78938" begin="5480" fromJunction="J3" toJunction="J7" end="5540" vehsPerHour="447.7410147404275" departLane="free"/>
  <flow id="JF78939" begin="5480" fromJunction="J4" toJunction="J3" end="5540" vehsPerHour="10.845513100023332" departLane="free"/>
  <flow id="JF78940" begin="5480" fromJunction="J4" toJunction="J5" end="5540" vehsPerHour="96.83129760501642" departLane="free"/>
  <flow id="JF78941" begin="5480" fromJunction="J4" toJunction="J6" end="5540" vehsPerHour="26.981626724718804" departLane="free"/>
  <flow id="JF78942" begin="5480" fromJunction="J4" toJunction="J7" end="5540" vehsPerHour="228.34570932900095" departLane="free"/>
  <flow id="JF78943" begin="5480" fromJunction="J5" toJunction="J0" end="5540" vehsPerHour="216.94188008761634" departLane="free"/>
  <flow id="JF78944" begin="5480" fromJunction="J5" toJunction="J3" end="5540" vehsPerHour="100.37595992994231" departLane="free"/>
  <flow id="JF78945" begin="5480" fromJunction="J5" toJunction="J4" end="5540" vehsPerHour="181.45474914865787" departLane="free"/>
  <flow id="JF78946" begin="5480" fromJunction="J5" toJunction="J6" end="5540" vehsPerHour="134.54304491161315" departLane="free"/>
  <flow id="JF78947" begin="5480" fromJunction="J5" toJunction="J7" end="5540" vehsPerHour="225.6018556450986" departLane="free"/>
  <flow id="JF78948" begin="5480" fromJunction="J6" toJunction="J0" end="5540" vehsPerHour="83.96180218853452" departLane="free"/>
  <flow id="JF78949" begin="5480" fromJunction="J6" toJunction="J3" end="5540" vehsPerHour="113.48536783041123" departLane="free"/>
  <flow id="JF78950" begin="5480" fromJunction="J6" toJunction="J5" end="5540" vehsPerHour="172.96431981057057" departLane="free"/>
  <flow id="JF78951" begin="5480" fromJunction="J7" toJunction="J0" end="5540" vehsPerHour="194.30714754004745" departLane="free"/>
  <flow id="JF78952" begin="5480" fromJunction="J7" toJunction="J3" end="5540" vehsPerHour="133.4981131422326" departLane="free"/>
  <flow id="JF78953" begin="5480" fromJunction="J7" toJunction="J4" end="5540" vehsPerHour="107.60413792736765" departLane="free"/>
  <flow id="JF78954" begin="5480" fromJunction="J7" toJunction="J6" end="5540" vehsPerHour="184.2922383010741" departLane="free"/>
  <flow id="JF78955" begin="5540" fromJunction="J0" toJunction="J3" end="5600" vehsPerHour="327.86793180430567" departLane="free"/>
  <flow id="JF78956" begin="5540" fromJunction="J0" toJunction="J6" end="5600" vehsPerHour="130.6016235846238" departLane="free"/>
  <flow id="JF78957" begin="5540" fromJunction="J0" toJunction="J7" end="5600" vehsPerHour="190.40458532913524" departLane="free"/>
  <flow id="JF78958" begin="5540" fromJunction="J3" toJunction="J4" end="5600" vehsPerHour="175.67459267349557" departLane="free"/>
  <flow id="JF78959" begin="5540" fromJunction="J3" toJunction="J5" end="5600" vehsPerHour="257.4844021660834" departLane="free"/>
  <flow id="JF78960" begin="5540" fromJunction="J3" toJunction="J6" end="5600" vehsPerHour="22.73108825630256" departLane="free"/>
  <flow id="JF78961" begin="5540" fromJunction="J3" toJunction="J7" end="5600" vehsPerHour="483.60139608261125" departLane="free"/>
  <flow id="JF78962" begin="5540" fromJunction="J4" toJunction="J0" end="5600" vehsPerHour="140.5826688692007" departLane="free"/>
  <flow id="JF78963" begin="5540" fromJunction="J4" toJunction="J3" end="5600" vehsPerHour="268.08296091390014" departLane="free"/>
  <flow id="JF78964" begin="5540" fromJunction="J4" toJunction="J5" end="5600" vehsPerHour="56.16663630610394" departLane="free"/>
  <flow id="JF78965" begin="5540" fromJunction="J4" toJunction="J6" end="5600" vehsPerHour="235.69797857796775" departLane="free"/>
  <flow id="JF78966" begin="5540" fromJunction="J4" toJunction="J7" end="5600" vehsPerHour="25.76819173113771" departLane="free"/>
  <flow id="JF78967" begin="5540" fromJunction="J5" toJunction="J0" end="5600" vehsPerHour="204.21218757724415" departLane="free"/>
  <flow id="JF78968" begin="5540" fromJunction="J6" toJunction="J0" end="5600" vehsPerHour="256.02918236756375" departLane="free"/>
  <flow id="JF78969" begin="5540" fromJunction="J6" toJunction="J5" end="5600" vehsPerHour="178.9250066810409" departLane="free"/>