<?xml version="1.0" encoding="UTF-8"?>
<routes xmlns:xsi="http://www.w3.org/2001/XMLSchema-instance" xsi:noNamespaceSchemaLocation="http://sumo.dlr.de/xsd/routes_file.xsd">
  <flow id="JF0" begin="0" fromJunction="J3" toJunction="J6" end="5000" vehsPerHour="1374.0"/>
  <flow id="JF1" begin="0" fromJunction="J3" toJunction="J0" end="5000" vehsPerHour="343.5"/>
  <flow id="JF2" begin="0" fromJunction="J3" toJunction="J4" end="5000" vehsPerHour="343.5"/>
  <flow id="JF3" begin="0" fromJunction="J3" toJunction="J5" end="5000" vehsPerHour="343.5"/>
  <flow id="JF4" begin="0" fromJunction="J3" toJunction="J7" end="5000" vehsPerHour="343.5"/>
  <flow id="JF5" begin="0" fromJunction="J4" toJunction="J7" end="5000" vehsPerHour="687.0"/>
  <flow id="JF6" begin="0" fromJunction="J4" toJunction="J0" end="5000" vehsPerHour="171.75"/>
  <flow id="JF7" begin="0" fromJunction="J4" toJunction="J3" end="5000" vehsPerHour="171.75"/>
  <flow id="JF8" begin="0" fromJunction="J4" toJunction="J5" end="5000" vehsPerHour="171.75"/>
  <flow id="JF9" begin="0" fromJunction="J4" toJunction="J6" end="5000" vehsPerHour="171.75"/>
  <flow id="JF10" begin="0" fromJunction="J5" toJunction="J0" end="5000" vehsPerHour="54.96000000000001"/>
  <flow id="JF11" begin="0" fromJunction="J5" toJunction="J3" end="5000" vehsPerHour="54.96000000000001"/>
  <flow id="JF12" begin="0" fromJunction="J5" toJunction="J4" end="5000" vehsPerHour="54.96000000000001"/>
  <flow id="JF13" begin="0" fromJunction="J5" toJunction="J6" end="5000" vehsPerHour="54.96000000000001"/>
  <flow id="JF14" begin="0" fromJunction="J5" toJunction="J7" end="5000" vehsPerHour="54.96000000000001"/>
  <flow id="JF15" begin="0" fromJunction="J6" toJunction="J3" end="5000" vehsPerHour="687.0"/>
  <flow id="JF16" begin="0" fromJunction="J6" toJunction="J0" end="5000" vehsPerHour="171.75"/>
  <flow id="JF17" begin="0" fromJunction="J6" toJunction="J4" end="5000" vehsPerHour="171.75"/>
  <flow id="JF18" begin="0" fromJunction="J6" toJunction="J5" end="5000" vehsPerHour="171.75"/>
  <flow id="JF19" begin="0" fromJunction="J6" toJunction="J7" end="5000" vehsPerHour="171.75"/>
  <flow id="JF20" begin="0" fromJunction="J7" toJunction="J0" end="5000" vehsPerHour="54.96000000000001"/>
  <flow id="JF21" begin="0" fromJunction="J7" toJunction="J3" end="5000" vehsPerHour="54.96000000000001"/>
  <flow id="JF22" begin="0" fromJunction="J7" toJunction="J4" end="5000" vehsPerHour="54.96000000000001"/>
  <flow id="JF23" begin="0" fromJunction="J7" toJunction="J5" end="5000" vehsPerHour="54.96000000000001"/>
  <flow id="JF24" begin="0" fromJunction="J7" toJunction="J6" end="5000" vehsPerHour="54.96000000000001"/>
  <flow id="JF25" begin="0" fromJunction="J0" toJunction="J3" end="5000" vehsPerHour="109.92000000000002"/>
  <flow id="JF26" begin="0" fromJunction="J0" toJunction="J4" end="5000" vehsPerHour="109.92000000000002"/>
  <flow id="JF27" begin="0" fromJunction="J0" toJunction="J5" end="5000" vehsPerHour="109.92000000000002"/>
  <flow id="JF28" begin="0" fromJunction="J0" toJunction="J6" end="5000" vehsPerHour="109.92000000000002"/>
  <flow id="JF29" begin="0" fromJunction="J0" toJunction="J7" end="5000" vehsPerHour="109.92000000000002"/>
  <flow id="JF30" begin="10000" fromJunction="J3" toJunction="J0" end="15000" vehsPerHour="109.92000000000002"/>
  <flow id="JF31" begin="10000" fromJunction="J3" toJunction="J4" end="15000" vehsPerHour="109.92000000000002"/>
  <flow id="JF32" begin="10000" fromJunction="J3" toJunction="J5" end="15000" vehsPerHour="109.92000000000002"/>
  <flow id="JF33" begin="10000" fromJunction="J3" toJunction="J6" end="15000" vehsPerHour="109.92000000000002"/>
  <flow id="JF34" begin="10000" fromJunction="J3" toJunction="J7" end="15000" vehsPerHour="109.92000000000002"/>
  <flow id="JF35" begin="10000" fromJunction="J4" toJunction="J6" end="15000" vehsPerHour="687.0"/>
  <flow id="JF36" begin="10000" fromJunction="J4" toJunction="J0" end="15000" vehsPerHour="171.75"/>
  <flow id="JF37" begin="10000" fromJunction="J4" toJunction="J3" end="15000" vehsPerHour="171.75"/>
  <flow id="JF38" begin="10000" fromJunction="J4" toJunction="J5" end="15000" vehsPerHour="171.75"/>
  <flow id="JF39" begin="10000" fromJunction="J4" toJunction="J7" end="15000" vehsPerHour="171.75"/>
  <flow id="JF40" begin="10000" fromJunction="J5" toJunction="J0" end="15000" vehsPerHour="499.6363636363636"/>
  <flow id="JF41" begin="10000" fromJunction="J5" toJunction="J4" end="15000" vehsPerHour="499.6363636363636"/>
  <flow id="JF42" begin="10000" fromJunction="J5" toJunction="J3" end="15000" vehsPerHour="124.9090909090909"/>
  <flow id="JF43" begin="10000" fromJunction="J5" toJunction="J6" end="15000" vehsPerHour="124.9090909090909"/>
  <flow id="JF44" begin="10000" fromJunction="J5" toJunction="J7" end="15000" vehsPerHour="124.9090909090909"/>
  <flow id="JF45" begin="10000" fromJunction="J6" toJunction="J0" end="15000" vehsPerHour="54.96000000000001"/>
  <flow id="JF46" begin="10000" fromJunction="J6" toJunction="J3" end="15000" vehsPerHour="54.96000000000001"/>
  <flow id="JF47" begin="10000" fromJunction="J6" toJunction="J4" end="15000" vehsPerHour="54.96000000000001"/>
  <flow id="JF48" begin="10000" fromJunction="J6" toJunction="J5" end="15000" vehsPerHour="54.96000000000001"/>
  <flow id="JF49" begin="10000" fromJunction="J6" toJunction="J7" end="15000" vehsPerHour="54.96000000000001"/>
  <flow id="JF50" begin="10000" fromJunction="J7" toJunction="J0" end="15000" vehsPerHour="54.96000000000001"/>
  <flow id="JF51" begin="10000" fromJunction="J7" toJunction="J3" end="15000" vehsPerHour="54.96000000000001"/>
  <flow id="JF52" begin="10000" fromJunction="J7" toJunction="J4" end="15000" vehsPerHour="54.96000000000001"/>
  <flow id="JF53" begin="10000" fromJunction="J7" toJunction="J5" end="15000" vehsPerHour="54.96000000000001"/>
  <flow id="JF54" begin="10000" fromJunction="J7" toJunction="J6" end="15000" vehsPerHour="54.96000000000001"/>
  <flow id="JF55" begin="10000" fromJunction="J0" toJunction="J3" end="15000" vehsPerHour="109.92000000000002"/>
  <flow id="JF56" begin="10000" fromJunction="J0" toJunction="J4" end="15000" vehsPerHour="109.92000000000002"/>
  <flow id="JF57" begin="10000" fromJunction="J0" toJunction="J5" end="15000" vehsPerHour="109.92000000000002"/>
  <flow id="JF58" begin="10000" fromJunction="J0" toJunction="J6" end="15000" vehsPerHour="109.92000000000002"/>
  <flow id="JF59" begin="10000" fromJunction="J0" toJunction="J7" end="15000" vehsPerHour="109.92000000000002"/>
  <flow id="JF60" begin="20000" fromJunction="J3" toJunction="J6" end="25000" vehsPerHour="1374.0"/>
  <flow id="JF61" begin="20000" fromJunction="J3" toJunction="J0" end="25000" vehsPerHour="343.5"/>
  <flow id="JF62" begin="20000" fromJunction="J3" toJunction="J4" end="25000" vehsPerHour="343.5"/>
  <flow id="JF63" begin="20000" fromJunction="J3" toJunction="J5" end="25000" vehsPerHour="343.5"/>
  <flow id="JF64" begin="20000" fromJunction="J3" toJunction="J7" end="25000" vehsPerHour="343.5"/>
  <flow id="JF65" begin="20000" fromJunction="J4" toJunction="J3" end="25000" vehsPerHour="687.0"/>
  <flow id="JF66" begin="20000" fromJunction="J4" toJunction="J0" end="25000" vehsPerHour="171.75"/>
  <flow id="JF67" begin="20000" fromJunction="J4" toJunction="J5" end="25000" vehsPerHour="171.75"/>
  <flow id="JF68" begin="20000" fromJunction="J4" toJunction="J6" end="25000" vehsPerHour="171.75"/>
  <flow id="JF69" begin="20000" fromJunction="J4" toJunction="J7" end="25000" vehsPerHour="171.75"/>
  <flow id="JF70" begin="20000" fromJunction="J5" toJunction="J7" end="25000" vehsPerHour="687.0"/>
  <flow id="JF71" begin="20000" fromJunction="J5" toJunction="J0" end="25000" vehsPerHour="171.75"/>
  <flow id="JF72" begin="20000" fromJunction="J5" toJunction="J3" end="25000" vehsPerHour="171.75"/>
  <flow id="JF73" begin="20000" fromJunction="J5" toJunction="J4" end="25000" vehsPerHour="171.75"/>
  <flow id="JF74" begin="20000" fromJunction="J5" toJunction="J6" end="25000" vehsPerHour="171.75"/>
  <flow id="JF75" begin="20000" fromJunction="J6" toJunction="J0" end="25000" vehsPerHour="54.96000000000001"/>
  <flow id="JF76" begin="20000" fromJunction="J6" toJunction="J3" end="25000" vehsPerHour="54.96000000000001"/>
  <flow id="JF77" begin="20000" fromJunction="J6" toJunction="J4" end="25000" vehsPerHour="54.96000000000001"/>
  <flow id="JF78" begin="20000" fromJunction="J6" toJunction="J5" end="25000" vehsPerHour="54.96000000000001"/>
  <flow id="JF79" begin="20000" fromJunction="J6" toJunction="J7" end="25000" vehsPerHour="54.96000000000001"/>
  <flow id="JF80" begin="20000" fromJunction="J7" toJunction="J0" end="25000" vehsPerHour="54.96000000000001"/>
  <flow id="JF81" begin="20000" fromJunction="J7" toJunction="J3" end="25000" vehsPerHour="54.96000000000001"/>
  <flow id="JF82" begin="20000" fromJunction="J7" toJunction="J4" end="25000" vehsPerHour="54.96000000000001"/>
  <flow id="JF83" begin="20000" fromJunction="J7" toJunction="J5" end="25000" vehsPerHour="54.96000000000001"/>
  <flow id="JF84" begin="20000" fromJunction="J7" toJunction="J6" end="25000" vehsPerHour="54.96000000000001"/>
  <flow id="JF85" begin="20000" fromJunction="J0" toJunction="J3" end="25000" vehsPerHour="109.92000000000002"/>
  <flow id="JF86" begin="20000" fromJunction="J0" toJunction="J4" end="25000" vehsPerHour="109.92000000000002"/>
  <flow id="JF87" begin="20000" fromJunction="J0" toJunction="J5" end="25000" vehsPerHour="109.92000000000002"/>
  <flow id="JF88" begin="20000" fromJunction="J0" toJunction="J6" end="25000" vehsPerHour="109.92000000000002"/>
  <flow id="JF89" begin="20000" fromJunction="J0" toJunction="J7" end="25000" vehsPerHour="109.92000000000002"/>
  <flow id="JF90" begin="30000" fromJunction="J3" toJunction="J0" end="35000" vehsPerHour="109.92000000000002"/>
  <flow id="JF91" begin="30000" fromJunction="J3" toJunction="J4" end="35000" vehsPerHour="109.92000000000002"/>
  <flow id="JF92" begin="30000" fromJunction="J3" toJunction="J5" end="35000" vehsPerHour="109.92000000000002"/>
  <flow id="JF93" begin="30000" fromJunction="J3" toJunction="J6" end="35000" vehsPerHour="109.92000000000002"/>
  <flow id="JF94" begin="30000" fromJunction="J3" toJunction="J7" end="35000" vehsPerHour="109.92000000000002"/>
  <flow id="JF95" begin="30000" fromJunction="J4" toJunction="J0" end="35000" vehsPerHour="54.96000000000001"/>
  <flow id="JF96" begin="30000" fromJunction="J4" toJunction="J3" end="35000" vehsPerHour="54.96000000000001"/>
  <flow id="JF97" begin="30000" fromJunction="J4" toJunction="J5" end="35000" vehsPerHour="54.96000000000001"/>
  <flow id="JF98" begin="30000" fromJunction="J4" toJunction="J6" end="35000" vehsPerHour="54.96000000000001"/>
  <flow id="JF99" begin="30000" fromJunction="J4" toJunction="J7" end="35000" vehsPerHour="54.96000000000001"/>
  <flow id="JF100" begin="30000" fromJunction="J5" toJunction="J6" end="35000" vehsPerHour="499.6363636363636"/>
  <flow id="JF101" begin="30000" fromJunction="J5" toJunction="J4" end="35000" vehsPerHour="499.6363636363636"/>
  <flow id="JF102" begin="30000" fromJunction="J5" toJunction="J0" end="35000" vehsPerHour="124.9090909090909"/>
  <flow id="JF103" begin="30000" fromJunction="J5" toJunction="J3" end="35000" vehsPerHour="124.9090909090909"/>
  <flow id="JF104" begin="30000" fromJunction="J5" toJunction="J7" end="35000" vehsPerHour="124.9090909090909"/>
  <flow id="JF105" begin="30000" fromJunction="J6" toJunction="J0" end="35000" vehsPerHour="54.96000000000001"/>
  <flow id="JF106" begin="30000" fromJunction="J6" toJunction="J3" end="35000" vehsPerHour="54.96000000000001"/>
  <flow id="JF107" begin="30000" fromJunction="J6" toJunction="J4" end="35000" vehsPerHour="54.96000000000001"/>
  <flow id="JF108" begin="30000" fromJunction="J6" toJunction="J5" end="35000" vehsPerHour="54.96000000000001"/>
  <flow id="JF109" begin="30000" fromJunction="J6" toJunction="J7" end="35000" vehsPerHour="54.96000000000001"/>
  <flow id="JF110" begin="30000" fromJunction="J7" toJunction="J0" end="35000" vehsPerHour="54.96000000000001"/>
  <flow id="JF111" begin="30000" fromJunction="J7" toJunction="J3" end="35000" vehsPerHour="54.96000000000001"/>
  <flow id="JF112" begin="30000" fromJunction="J7" toJunction="J4" end="35000" vehsPerHour="54.96000000000001"/>
  <flow id="JF113" begin="30000" fromJunction="J7" toJunction="J5" end="35000" vehsPerHour="54.96000000000001"/>
  <flow id="JF114" begin="30000" fromJunction="J7" toJunction="J6" end="35000" vehsPerHour="54.96000000000001"/>
  <flow id="JF115" begin="30000" fromJunction="J0" toJunction="J4" end="35000" vehsPerHour="1374.0"/>
  <flow id="JF116" begin="30000" fromJunction="J0" toJunction="J3" end="35000" vehsPerHour="343.5"/>
  <flow id="JF117" begin="30000" fromJunction="J0" toJunction="J5" end="35000" vehsPerHour="343.5"/>
  <flow id="JF118" begin="30000" fromJunction="J0" toJunction="J6" end="35000" vehsPerHour="343.5"/>
  <flow id="JF119" begin="30000" fromJunction="J0" toJunction="J7" end="35000" vehsPerHour="343.5"/>
  <flow id="JF120" begin="40000" fromJunction="J3" toJunction="J0" end="45000" vehsPerHour="999.2727272727273"/>
  <flow id="JF121" begin="40000" fromJunction="J3" toJunction="J7" end="45000" vehsPerHour="999.2727272727273"/>
  <flow id="JF122" begin="40000" fromJunction="J3" toJunction="J4" end="45000" vehsPerHour="249.8181818181818"/>
  <flow id="JF123" begin="40000" fromJunction="J3" toJunction="J5" end="45000" vehsPerHour="249.8181818181818"/>
  <flow id="JF124" begin="40000" fromJunction="J3" toJunction="J6" end="45000" vehsPerHour="249.8181818181818"/>
  <flow id="JF125" begin="40000" fromJunction="J4" toJunction="J0" end="45000" vehsPerHour="54.96000000000001"/>
  <flow id="JF126" begin="40000" fromJunction="J4" toJunction="J3" end="45000" vehsPerHour="54.96000000000001"/>
  <flow id="JF127" begin="40000" fromJunction="J4" toJunction="J5" end="45000" vehsPerHour="54.96000000000001"/>
  <flow id="JF128" begin="40000" fromJunction="J4" toJunction="J6" end="45000" vehsPerHour="54.96000000000001"/>
  <flow id="JF129" begin="40000" fromJunction="J4" toJunction="J7" end="45000" vehsPerHour="54.96000000000001"/>
  <flow id="JF130" begin="40000" fromJunction="J5" toJunction="J0" end="45000" vehsPerHour="687.0"/>
  <flow id="JF131" begin="40000" fromJunction="J5" toJunction="J3" end="45000" vehsPerHour="171.75"/>
  <flow id="JF132" begin="40000" fromJunction="J5" toJunction="J4" end="45000" vehsPerHour="171.75"/>
  <flow id="JF133" begin="40000" fromJunction="J5" toJunction="J6" end="45000" vehsPerHour="171.75"/>
  <flow id="JF134" begin="40000" fromJunction="J5" toJunction="J7" end="45000" vehsPerHour="171.75"/>
  <flow id="JF135" begin="40000" fromJunction="J6" toJunction="J0" end="45000" vehsPerHour="54.96000000000001"/>
  <flow id="JF136" begin="40000" fromJunction="J6" toJunction="J3" end="45000" vehsPerHour="54.96000000000001"/>
  <flow id="JF137" begin="40000" fromJunction="J6" toJunction="J4" end="45000" vehsPerHour="54.96000000000001"/>
  <flow id="JF138" begin="40000" fromJunction="J6" toJunction="J5" end="45000" vehsPerHour="54.96000000000001"/>
  <flow id="JF139" begin="40000" fromJunction="J6" toJunction="J7" end="45000" vehsPerHour="54.96000000000001"/>
  <flow id="JF140" begin="40000" fromJunction="J7" toJunction="J0" end="45000" vehsPerHour="54.96000000000001"/>
  <flow id="JF141" begin="40000" fromJunction="J7" toJunction="J3" end="45000" vehsPerHour="54.96000000000001"/>
  <flow id="JF142" begin="40000" fromJunction="J7" toJunction="J4" end="45000" vehsPerHour="54.96000000000001"/>
  <flow id="JF143" begin="40000" fromJunction="J7" toJunction="J5" end="45000" vehsPerHour="54.96000000000001"/>
  <flow id="JF144" begin="40000" fromJunction="J7" toJunction="J6" end="45000" vehsPerHour="54.96000000000001"/>
  <flow id="JF145" begin="40000" fromJunction="J0" toJunction="J3" end="45000" vehsPerHour="109.92000000000002"/>
  <flow id="JF146" begin="40000" fromJunction="J0" toJunction="J4" end="45000" vehsPerHour="109.92000000000002"/>
  <flow id="JF147" begin="40000" fromJunction="J0" toJunction="J5" end="45000" vehsPerHour="109.92000000000002"/>
  <flow id="JF148" begin="40000" fromJunction="J0" toJunction="J6" end="45000" vehsPerHour="109.92000000000002"/>
  <flow id="JF149" begin="40000" fromJunction="J0" toJunction="J7" end="45000" vehsPerHour="109.92000000000002"/>
</routes>