<?xml version="1.0" encoding="UTF-8"?>

<!-- generated on 2025-03-16 12:40:06 by Eclipse SUMO sumo Version 1.20.0
-->

<configuration xmlns:xsi="http://www.w3.org/2001/XMLSchema-instance" xsi:noNamespaceSchemaLocation="http://sumo.dlr.de/xsd/sumoConfiguration.xsd">

    <input>
        <junction-taz value="true"/>
        <net-file value="network.net.xml"/>
        <route-files value="routes.rou.xml"/>
    </input>

</configuration>
