<?xml version="1.0" encoding="UTF-8"?>
<routes xmlns:xsi="http://www.w3.org/2001/XMLSchema-instance" xsi:noNamespaceSchemaLocation="http://sumo.dlr.de/xsd/routes_file.xsd">
  <flow id="JF60525" begin="0" fromJunction="J3" toJunction="J0" end="5000" vehsPerHour="538.7101908650948"/>
  <flow id="JF60526" begin="0" fromJunction="J0" toJunction="J3" end="5000" vehsPerHour="790.7237753219514"/>
  <flow id="JF60527" begin="0" fromJunction="J3" toJunction="J2" end="5000" vehsPerHour="27.532429275586388"/>
  <flow id="JF60528" begin="0" fromJunction="J3" toJunction="J4" end="5000" vehsPerHour="15.7354259792296"/>
  <flow id="JF60529" begin="0" fromJunction="J0" toJunction="J2" end="5000" vehsPerHour="3.7138001522135746"/>
  <flow id="JF60530" begin="0" fromJunction="J0" toJunction="J4" end="5000" vehsPerHour="41.632919240224005"/>
  <flow id="JF60531" begin="0" fromJunction="J2" toJunction="J4" end="5000" vehsPerHour="439.9091316207245"/>
  <flow id="JF60532" begin="0" fromJunction="J4" toJunction="J2" end="5000" vehsPerHour="139.92571483234548"/>
  <flow id="JF60533" begin="0" fromJunction="J2" toJunction="J3" end="5000" vehsPerHour="63.81169312120181"/>
  <flow id="JF60534" begin="0" fromJunction="J2" toJunction="J0" end="5000" vehsPerHour="18.283007724499683"/>
  <flow id="JF60535" begin="0" fromJunction="J4" toJunction="J3" end="5000" vehsPerHour="37.581196274509296"/>
  <flow id="JF60536" begin="0" fromJunction="J4" toJunction="J0" end="5000" vehsPerHour="101.48167946318912"/>
  <flow id="JF60537" begin="5000" fromJunction="J3" toJunction="J0" end="5060" vehsPerHour="457.01559915163614"/>
  <flow id="JF60538" begin="5000" fromJunction="J0" toJunction="J3" end="5060" vehsPerHour="349.096938567334"/>
  <flow id="JF60539" begin="5000" fromJunction="J3" toJunction="J2" end="5060" vehsPerHour="15.081149416031554"/>
  <flow id="JF60540" begin="5000" fromJunction="J3" toJunction="J4" end="5060" vehsPerHour="90.76910724473484"/>
  <flow id="JF60541" begin="5000" fromJunction="J0" toJunction="J2" end="5060" vehsPerHour="42.709182526548595"/>
  <flow id="JF60542" begin="5000" fromJunction="J0" toJunction="J4" end="5060" vehsPerHour="118.15863381739257"/>
  <flow id="JF60543" begin="5000" fromJunction="J2" toJunction="J4" end="5060" vehsPerHour="40.49156413888838"/>
  <flow id="JF60544" begin="5000" fromJunction="J4" toJunction="J2" end="5060" vehsPerHour="31.469558701144933"/>
  <flow id="JF60545" begin="5000" fromJunction="J2" toJunction="J3" end="5060" vehsPerHour="134.31672553366968"/>
  <flow id="JF60546" begin="5000" fromJunction="J2" toJunction="J0" end="5060" vehsPerHour="130.89148492240813"/>
  <flow id="JF60547" begin="5000" fromJunction="J4" toJunction="J3" end="5060" vehsPerHour="37.70077906379411"/>
  <flow id="JF60548" begin="5000" fromJunction="J4" toJunction="J0" end="5060" vehsPerHour="49.43793300589209"/>
  <flow id="JF60549" begin="5060" fromJunction="J3" toJunction="J0" end="5120" vehsPerHour="490.7985778716173"/>
  <flow id="JF60550" begin="5060" fromJunction="J0" toJunction="J3" end="5120" vehsPerHour="307.28501431888367"/>
  <flow id="JF60551" begin="5060" fromJunction="J3" toJunction="J2" end="5120" vehsPerHour="61.49387735519776"/>
  <flow id="JF60552" begin="5060" fromJunction="J3" toJunction="J4" end="5120" vehsPerHour="112.32026958760798"/>
  <flow id="JF60553" begin="5060" fromJunction="J0" toJunction="J2" end="5120" vehsPerHour="81.06565802221068"/>
  <flow id="JF60554" begin="5060" fromJunction="J0" toJunction="J4" end="5120" vehsPerHour="118.23531831049718"/>
  <flow id="JF60555" begin="5060" fromJunction="J2" toJunction="J4" end="5120" vehsPerHour="51.73189643246461"/>
  <flow id="JF60556" begin="5060" fromJunction="J4" toJunction="J2" end="5120" vehsPerHour="11.04768606315112"/>
  <flow id="JF60557" begin="5060" fromJunction="J2" toJunction="J3" end="5120" vehsPerHour="119.28901031855912"/>
  <flow id="JF60558" begin="5060" fromJunction="J2" toJunction="J0" end="5120" vehsPerHour="22.865691393072737"/>
  <flow id="JF60559" begin="5060" fromJunction="J4" toJunction="J3" end="5120" vehsPerHour="134.04849699540068"/>
  <flow id="JF60560" begin="5060" fromJunction="J4" toJunction="J0" end="5120" vehsPerHour="125.07590036329097"/>
  <flow id="JF60561" begin="5120" fromJunction="J3" toJunction="J0" end="5180" vehsPerHour="315.7201911107784"/>
  <flow id="JF60562" begin="5120" fromJunction="J0" toJunction="J3" end="5180" vehsPerHour="29.173078483926353"/>
  <flow id="JF60563" begin="5120" fromJunction="J3" toJunction="J2" end="5180" vehsPerHour="9.685506740223056"/>
  <flow id="JF60564" begin="5120" fromJunction="J3" toJunction="J4" end="5180" vehsPerHour="134.59983229492207"/>
  <flow id="JF60565" begin="5120" fromJunction="J0" toJunction="J2" end="5180" vehsPerHour="135.12049393576254"/>
  <flow id="JF60566" begin="5120" fromJunction="J0" toJunction="J4" end="5180" vehsPerHour="48.60230410740573"/>
  <flow id="JF60567" begin="5120" fromJunction="J2" toJunction="J4" end="5180" vehsPerHour="73.63725266442476"/>
  <flow id="JF60568" begin="5120" fromJunction="J4" toJunction="J2" end="5180" vehsPerHour="22.894378558315047"/>
  <flow id="JF60569" begin="5120" fromJunction="J2" toJunction="J3" end="5180" vehsPerHour="57.820729962484236"/>
  <flow id="JF60570" begin="5120" fromJunction="J2" toJunction="J0" end="5180" vehsPerHour="53.05690053091659"/>
  <flow id="JF60571" begin="5120" fromJunction="J4" toJunction="J3" end="5180" vehsPerHour="125.01640910486213"/>
  <flow id="JF60572" begin="5120" fromJunction="J4" toJunction="J0" end="5180" vehsPerHour="110.52217164769553"/>
  <flow id="JF60573" begin="5180" fromJunction="J3" toJunction="J0" end="5240" vehsPerHour="520.9567679609218"/>
  <flow id="JF60574" begin="5180" fromJunction="J0" toJunction="J3" end="5240" vehsPerHour="148.40011580594623"/>
  <flow id="JF60575" begin="5180" fromJunction="J3" toJunction="J2" end="5240" vehsPerHour="125.1722504037596"/>
  <flow id="JF60576" begin="5180" fromJunction="J3" toJunction="J4" end="5240" vehsPerHour="82.9313011505831"/>
  <flow id="JF60577" begin="5180" fromJunction="J0" toJunction="J2" end="5240" vehsPerHour="17.197799387020275"/>
  <flow id="JF60578" begin="5180" fromJunction="J0" toJunction="J4" end="5240" vehsPerHour="124.1237106050189"/>
  <flow id="JF60579" begin="5180" fromJunction="J2" toJunction="J4" end="5240" vehsPerHour="75.54298487917787"/>
  <flow id="JF60580" begin="5180" fromJunction="J4" toJunction="J2" end="5240" vehsPerHour="79.71087232315507"/>
  <flow id="JF60581" begin="5180" fromJunction="J2" toJunction="J3" end="5240" vehsPerHour="14.754811115885389"/>
  <flow id="JF60582" begin="5180" fromJunction="J2" toJunction="J0" end="5240" vehsPerHour="58.211306538789984"/>
  <flow id="JF60583" begin="5180" fromJunction="J4" toJunction="J3" end="5240" vehsPerHour="6.492135669563961"/>
  <flow id="JF60584" begin="5180" fromJunction="J4" toJunction="J0" end="5240" vehsPerHour="51.32591724631227"/>
  <flow id="JF60585" begin="5240" fromJunction="J3" toJunction="J0" end="5300" vehsPerHour="289.4091497192175"/>
  <flow id="JF60586" begin="5240" fromJunction="J0" toJunction="J3" end="5300" vehsPerHour="203.3801052749732"/>
  <flow id="JF60587" begin="5240" fromJunction="J3" toJunction="J2" end="5300" vehsPerHour="90.79360039565142"/>
  <flow id="JF60588" begin="5240" fromJunction="J3" toJunction="J4" end="5300" vehsPerHour="43.31325861983967"/>
  <flow id="JF60589" begin="5240" fromJunction="J0" toJunction="J2" end="5300" vehsPerHour="62.60727285472857"/>
  <flow id="JF60590" begin="5240" fromJunction="J0" toJunction="J4" end="5300" vehsPerHour="101.85962921183236"/>
  <flow id="JF60591" begin="5240" fromJunction="J2" toJunction="J4" end="5300" vehsPerHour="22.167588082784043"/>
  <flow id="JF60592" begin="5240" fromJunction="J4" toJunction="J2" end="5300" vehsPerHour="32.05838407514743"/>
  <flow id="JF60593" begin="5240" fromJunction="J2" toJunction="J3" end="5300" vehsPerHour="116.86418433883098"/>
  <flow id="JF60594" begin="5240" fromJunction="J2" toJunction="J0" end="5300" vehsPerHour="22.609630990189135"/>
  <flow id="JF60595" begin="5240" fromJunction="J4" toJunction="J3" end="5300" vehsPerHour="36.12688243646956"/>
  <flow id="JF60596" begin="5240" fromJunction="J4" toJunction="J0" end="5300" vehsPerHour="64.27370167330976"/>
  <flow id="JF60597" begin="5300" fromJunction="J3" toJunction="J0" end="5360" vehsPerHour="418.0486718185966"/>
  <flow id="JF60598" begin="5300" fromJunction="J0" toJunction="J3" end="5360" vehsPerHour="501.40285591395775"/>
  <flow id="JF60599" begin="5300" fromJunction="J3" toJunction="J2" end="5360" vehsPerHour="119.2317228234947"/>
  <flow id="JF60600" begin="5300" fromJunction="J3" toJunction="J4" end="5360" vehsPerHour="23.450759168855374"/>
  <flow id="JF60601" begin="5300" fromJunction="J0" toJunction="J2" end="5360" vehsPerHour="128.17031908343466"/>
  <flow id="JF60602" begin="5300" fromJunction="J0" toJunction="J4" end="5360" vehsPerHour="30.725834317429758"/>
  <flow id="JF60603" begin="5360" fromJunction="J3" toJunction="J0" end="5420" vehsPerHour="214.45792042290697"/>
  <flow id="JF60604" begin="5360" fromJunction="J0" toJunction="J3" end="5420" vehsPerHour="342.4574175844958"/>
  <flow id="JF60605" begin="5360" fromJunction="J3" toJunction="J2" end="5420" vehsPerHour="55.58642445772986"/>
  <flow id="JF60606" begin="5360" fromJunction="J3" toJunction="J4" end="5420" vehsPerHour="72.52449567560787"/>
  <flow id="JF60607" begin="5360" fromJunction="J0" toJunction="J2" end="5420" vehsPerHour="52.32477882108567"/>
  <flow id="JF60608" begin="5360" fromJunction="J0" toJunction="J4" end="5420" vehsPerHour="95.9348222021869"/>
  <flow id="JF60609" begin="5360" fromJunction="J2" toJunction="J4" end="5420" vehsPerHour="113.73721868112732"/>
  <flow id="JF60610" begin="5360" fromJunction="J4" toJunction="J2" end="5420" vehsPerHour="16.570486942726063"/>
  <flow id="JF60611" begin="5360" fromJunction="J2" toJunction="J3" end="5420" vehsPerHour="80.73919000732"/>
  <flow id="JF60612" begin="5360" fromJunction="J2" toJunction="J0" end="5420" vehsPerHour="129.27515223841638"/>
  <flow id="JF60613" begin="5360" fromJunction="J4" toJunction="J3" end="5420" vehsPerHour="104.15712885191927"/>
  <flow id="JF60614" begin="5360" fromJunction="J4" toJunction="J0" end="5420" vehsPerHour="82.83007774213557"/>
  <flow id="JF60615" begin="5420" fromJunction="J3" toJunction="J0" end="5480" vehsPerHour="205.8788546169687"/>
  <flow id="JF60616" begin="5420" fromJunction="J0" toJunction="J3" end="5480" vehsPerHour="122.42614866996499"/>
  <flow id="JF60617" begin="5420" fromJunction="J3" toJunction="J2" end="5480" vehsPerHour="56.56130005120859"/>
  <flow id="JF60618" begin="5420" fromJunction="J3" toJunction="J4" end="5480" vehsPerHour="78.53830884468591"/>
  <flow id="JF60619" begin="5420" fromJunction="J0" toJunction="J2" end="5480" vehsPerHour="75.09854273788841"/>
  <flow id="JF60620" begin="5420" fromJunction="J0" toJunction="J4" end="5480" vehsPerHour="93.43668821377297"/>
  <flow id="JF60621" begin="5420" fromJunction="J2" toJunction="J4" end="5480" vehsPerHour="60.09064663856105"/>
  <flow id="JF60622" begin="5420" fromJunction="J4" toJunction="J2" end="5480" vehsPerHour="87.89631049819484"/>
  <flow id="JF60623" begin="5420" fromJunction="J2" toJunction="J3" end="5480" vehsPerHour="5.851790083250607"/>
  <flow id="JF60624" begin="5420" fromJunction="J2" toJunction="J0" end="5480" vehsPerHour="62.76827874442528"/>
  <flow id="JF60625" begin="5420" fromJunction="J4" toJunction="J3" end="5480" vehsPerHour="94.72113026859626"/>
  <flow id="JF60626" begin="5420" fromJunction="J4" toJunction="J0" end="5480" vehsPerHour="19.688418598298707"/>
  <flow id="JF60627" begin="5480" fromJunction="J3" toJunction="J0" end="5540" vehsPerHour="352.2635549337837"/>
  <flow id="JF60628" begin="5480" fromJunction="J0" toJunction="J3" end="5540" vehsPerHour="132.6024091717355"/>
  <flow id="JF60629" begin="5480" fromJunction="J3" toJunction="J2" end="5540" vehsPerHour="57.82600855374188"/>
  <flow id="JF60630" begin="5480" fromJunction="J3" toJunction="J4" end="5540" vehsPerHour="102.54655347109677"/>
  <flow id="JF60631" begin="5480" fromJunction="J0" toJunction="J2" end="5540" vehsPerHour="5.405113938859811"/>
  <flow id="JF60632" begin="5480" fromJunction="J0" toJunction="J4" end="5540" vehsPerHour="82.28258293418232"/>
  <flow id="JF60633" begin="5540" fromJunction="J3" toJunction="J0" end="5600" vehsPerHour="190.4700251221293"/>
  <flow id="JF60634" begin="5540" fromJunction="J0" toJunction="J3" end="5600" vehsPerHour="50.748045840024545"/>
  <flow id="JF60635" begin="5540" fromJunction="J3" toJunction="J2" end="5600" vehsPerHour="29.089461949212676"/>
  <flow id="JF60636" begin="5540" fromJunction="J3" toJunction="J4" end="5600" vehsPerHour="86.98336709371821"/>
  <flow id="JF60637" begin="5540" fromJunction="J0" toJunction="J2" end="5600" vehsPerHour="93.41679113232057"/>
  <flow id="JF60638" begin="5540" fromJunction="J0" toJunction="J4" end="5600" vehsPerHour="85.63142956973046"/>
  <flow id="JF60639" begin="5540" fromJunction="J2" toJunction="J4" end="5600" vehsPerHour="21.84026555870259"/>
  <flow id="JF60640" begin="5540" fromJunction="J4" toJunction="J2" end="5600" vehsPerHour="41.47883617930027"/>
  <flow id="JF60641" begin="5540" fromJunction="J2" toJunction="J3" end="5600" vehsPerHour="9.704701786445732"/>
  <flow id="JF60642" begin="5540" fromJunction="J2" toJunction="J0" end="5600" vehsPerHour="119.99104378143238"/>
  <flow id="JF60643" begin="5540" fromJunction="J4" toJunction="J3" end="5600" vehsPerHour="109.52314754024064"/>
  <flow id="JF60644" begin="5540" fromJunction="J4" toJunction="J0" end="5600" vehsPerHour="115.18619271387935"/>
  <flow id="JF60645" begin="5600" fromJunction="J3" toJunction="J0" end="5660" vehsPerHour="424.9680082702163"/>
  <flow id="JF60646" begin="5600" fromJunction="J0" toJunction="J3" end="5660" vehsPerHour="354.1916354314641"/>
  <flow id="JF60647" begin="5600" fromJunction="J3" toJunction="J2" end="5660" vehsPerHour="37.33564402603807"/>
  <flow id="JF60648" begin="5600" fromJunction="J3" toJunction="J4" end="5660" vehsPerHour="62.96204531919731"/>
  <flow id="JF60649" begin="5600" fromJunction="J0" toJunction="J2" end="5660" vehsPerHour="79.55728784837261"/>
  <flow id="JF60650" begin="5600" fromJunction="J0" toJunction="J4" end="5660" vehsPerHour="65.04079034088883"/>
  <flow id="JF60651" begin="5600" fromJunction="J2" toJunction="J4" end="5660" vehsPerHour="46.24137528752613"/>
  <flow id="JF60652" begin="5600" fromJunction="J4" toJunction="J2" end="5660" vehsPerHour="51.52146781883617"/>
  <flow id="JF60653" begin="5600" fromJunction="J2" toJunction="J3" end="5660" vehsPerHour="29.108871422706603"/>
  <flow id="JF60654" begin="5600" fromJunction="J2" toJunction="J0" end="5660" vehsPerHour="65.7658232044438"/>
  <flow id="JF60655" begin="5600" fromJunction="J4" toJunction="J3" end="5660" vehsPerHour="30.00388990184598"/>
  <flow id="JF60656" begin="5600" fromJunction="J4" toJunction="J0" end="5660" vehsPerHour="117.26217599243441"/>
  <flow id="JF60657" begin="5660" fromJunction="J3" toJunction="J0" end="5720" vehsPerHour="40.78195790325573"/>
  <flow id="JF60658" begin="5660" fromJunction="J0" toJunction="J3" end="5720" vehsPerHour="255.45468661070475"/>
  <flow id="JF60659" begin="5660" fromJunction="J3" toJunction="J2" end="5720" vehsPerHour="120.0596278080326"/>
  <flow id="JF60660" begin="5660" fromJunction="J3" toJunction="J4" end="5720" vehsPerHour="21.568734673341346"/>
  <flow id="JF60661" begin="5660" fromJunction="J0" toJunction="J2" end="5720" vehsPerHour="67.63530698727308"/>
  <flow id="JF60662" begin="5660" fromJunction="J0" toJunction="J4" end="5720" vehsPerHour="85.08703693648785"/>
  <flow id="JF60663" begin="5660" fromJunction="J2" toJunction="J4" end="5720" vehsPerHour="91.29711823871762"/>
  <flow id="JF60664" begin="5660" fromJunction="J4" toJunction="J2" end="5720" vehsPerHour="2.186633843978872"/>
  <flow id="JF60665" begin="5660" fromJunction="J2" toJunction="J3" end="5720" vehsPerHour="121.32561191374994"/>
  <flow id="JF60666" begin="5660" fromJunction="J2" toJunction="J0" end="5720" vehsPerHour="21.356231586349242"/>
  <flow id="JF60667" begin="5660" fromJunction="J4" toJunction="J3" end="5720" vehsPerHour="35.834121289764575"/>
  <flow id="JF60668" begin="5660" fromJunction="J4" toJunction="J0" end="5720" vehsPerHour="77.2680731376178"/>
  <flow id="JF60669" begin="5720" fromJunction="J3" toJunction="J0" end="5780" vehsPerHour="232.00606551071093"/>
  <flow id="JF60670" begin="5720" fromJunction="J0" toJunction="J3" end="5780" vehsPerHour="303.44347562232093"/>
  <flow id="JF60671" begin="5720" fromJunction="J3" toJunction="J2" end="5780" vehsPerHour="8.62848777246131"/>
  <flow id="JF60672" begin="5720" fromJunction="J3" toJunction="J4" end="5780" vehsPerHour="87.98261492901582"/>
  <flow id="JF60673" begin="5720" fromJunction="J0" toJunction="J2" end="5780" vehsPerHour="119.99570352086883"/>
  <flow id="JF60674" begin="5720" fromJunction="J0" toJunction="J4" end="5780" vehsPerHour="124.83498412860179"/>
  <flow id="JF60675" begin="5720" fromJunction="J2" toJunction="J4" end="5780" vehsPerHour="25.567897573549054"/>
  <flow id="JF60676" begin="5720" fromJunction="J4" toJunction="J2" end="5780" vehsPerHour="2.397618797385044"/>
  <flow id="JF60677" begin="5720" fromJunction="J2" toJunction="J3" end="5780" vehsPerHour="114.4112304216667"/>
  <flow id="JF60678" begin="5720" fromJunction="J2" toJunction="J0" end="5780" vehsPerHour="109.84608784084541"/>
  <flow id="JF60679" begin="5720" fromJunction="J4" toJunction="J3" end="5780" vehsPerHour="64.59352016493743"/>
  <flow id="JF60680" begin="5720" fromJunction="J4" toJunction="J0" end="5780" vehsPerHour="41.82864080343135"/>
  <flow id="JF60681" begin="5780" fromJunction="J3" toJunction="J0" end="5840" vehsPerHour="158.23156331232116"/>
  <flow id="JF60682" begin="5780" fromJunction="J0" toJunction="J3" end="5840" vehsPerHour="237.20193718031908"/>
  <flow id="JF60683" begin="5780" fromJunction="J3" toJunction="J2" end="5840" vehsPerHour="49.423347047587995"/>
  <flow id="JF60684" begin="5780" fromJunction="J3" toJunction="J4" end="5840" vehsPerHour="7.188124733693586"/>
  <flow id="JF60685" begin="5780" fromJunction="J0" toJunction="J2" end="5840" vehsPerHour="55.728260373425655"/>
  <flow id="JF60686" begin="5780" fromJunction="J0" toJunction="J4" end="5840" vehsPerHour="17.151723565942962"/>
  <flow id="JF60687" begin="5780" fromJunction="J2" toJunction="J4" end="5840" vehsPerHour="34.9816095195006"/>
  <flow id="JF60688" begin="5780" fromJunction="J4" toJunction="J2" end="5840" vehsPerHour="5.852499343344537"/>
  <flow id="JF60689" begin="5780" fromJunction="J2" toJunction="J3" end="5840" vehsPerHour="109.04337890076562"/>
  <flow id="JF60690" begin="5780" fromJunction="J2" toJunction="J0" end="5840" vehsPerHour="120.91041897617588"/>
  <flow id="JF60691" begin="5780" fromJunction="J4" toJunction="J3" end="5840" vehsPerHour="105.20412472616846"/>
  <flow id="JF60692" begin="5780" fromJunction="J4" toJunction="J0" end="5840" vehsPerHour="64.94093446261931"/>
  <flow id="JF60693" begin="5840" fromJunction="J3" toJunction="J0" end="5900" vehsPerHour="365.5138370642441"/>
  <flow id="JF60694" begin="5840" fromJunction="J0" toJunction="J3" end="5900" vehsPerHour="259.6005883479751"/>
  <flow id="JF60695" begin="5840" fromJunction="J3" toJunction="J2" end="5900" vehsPerHour="111.53152117904312"/>
  <flow id="JF60696" begin="5840" fromJunction="J3" toJunction="J4" end="5900" vehsPerHour="105.94147511425822"/>
  <flow id="JF60697" begin="5840" fromJunction="J0" toJunction="J2" end="5900" vehsPerHour="58.56218473379063"/>
  <flow id="JF60698" begin="5840" fromJunction="J0" toJunction="J4" end="5900" vehsPerHour="100.72853035167225"/>
  <flow id="JF60699" begin="5840" fromJunction="J2" toJunction="J4" end="5900" vehsPerHour="5.663048936666611"/>
  <flow id="JF60700" begin="5840" fromJunction="J4" toJunction="J2" end="5900" vehsPerHour="67.65338564947966"/>
  <flow id="JF60701" begin="5840" fromJunction="J2" toJunction="J3" end="5900" vehsPerHour="35.8576410950356"/>
  <flow id="JF60702" begin="5840" fromJunction="J2" toJunction="J0" end="5900" vehsPerHour="67.72583049481248"/>
  <flow id="JF60703" begin="5840" fromJunction="J4" toJunction="J3" end="5900" vehsPerHour="48.83606246125584"/>
  <flow id="JF60704" begin="5840" fromJunction="J4" toJunction="J0" end="5900" vehsPerHour="99.7733909191664"/>
  <flow id="JF60705" begin="5900" fromJunction="J3" toJunction="J0" end="5960" vehsPerHour="326.39598832438594"/>
  <flow id="JF60706" begin="5900" fromJunction="J0" toJunction="J3" end="5960" vehsPerHour="301.8652650959175"/>
  <flow id="JF60707" begin="5900" fromJunction="J3" toJunction="J2" end="5960" vehsPerHour="8.090329165609882"/>
  <flow id="JF60708" begin="5900" fromJunction="J3" toJunction="J4" end="5960" vehsPerHour="79.0155780874121"/>
  <flow id="JF60709" begin="5900" fromJunction="J0" toJunction="J2" end="5960" vehsPerHour="23.160433459156902"/>
  <flow id="JF60710" begin="5900" fromJunction="J0" toJunction="J4" end="5960" vehsPerHour="67.94421916407808"/>
  <flow id="JF60711" begin="5960" fromJunction="J3" toJunction="J0" end="6020" vehsPerHour="97.92106620981463"/>
  <flow id="JF60712" begin="5960" fromJunction="J0" toJunction="J3" end="6020" vehsPerHour="116.64395079393142"/>
  <flow id="JF60713" begin="5960" fromJunction="J3" toJunction="J2" end="6020" vehsPerHour="126.42704479932033"/>
  <flow id="JF60714" begin="5960" fromJunction="J3" toJunction="J4" end="6020" vehsPerHour="97.1116954918124"/>
  <flow id="JF60715" begin="5960" fromJunction="J0" toJunction="J2" end="6020" vehsPerHour="1.1388121395898922"/>
  <flow id="JF60716" begin="5960" fromJunction="J0" toJunction="J4" end="6020" vehsPerHour="41.629764652775215"/>
  <flow id="JF60717" begin="5960" fromJunction="J2" toJunction="J4" end="6020" vehsPerHour="61.9869396845361"/>
  <flow id="JF60718" begin="5960" fromJunction="J4" toJunction="J2" end="6020" vehsPerHour="90.41240537410458"/>
  <flow id="JF60719" begin="5960" fromJunction="J2" toJunction="J3" end="6020" vehsPerHour="81.7059007636999"/>
  <flow id="JF60720" begin="5960" fromJunction="J2" toJunction="J0" end="6020" vehsPerHour="134.26994792644413"/>
  <flow id="JF60721" begin="5960" fromJunction="J4" toJunction="J3" end="6020" vehsPerHour="130.9158694757529"/>
  <flow id="JF60722" begin="5960" fromJunction="J4" toJunction="J0" end="6020" vehsPerHour="39.302850299167204"/>
  <flow id="JF60723" begin="6020" fromJunction="J3" toJunction="J0" end="6080" vehsPerHour="486.43360065052315"/>
  <flow id="JF60724" begin="6020" fromJunction="J0" toJunction="J3" end="6080" vehsPerHour="530.277606677912"/>
  <flow id="JF60725" begin="6020" fromJunction="J3" toJunction="J2" end="6080" vehsPerHour="116.4187942105697"/>
  <flow id="JF60726" begin="6020" fromJunction="J3" toJunction="J4" end="6080" vehsPerHour="113.60300006177019"/>
  <flow id="JF60727" begin="6020" fromJunction="J0" toJunction="J2" end="6080" vehsPerHour="45.1004382491085"/>
  <flow id="JF60728" begin="6020" fromJunction="J0" toJunction="J4" end="6080" vehsPerHour="45.64878255079649"/>
  <flow id="JF60729" begin="6020" fromJunction="J2" toJunction="J4" end="6080" vehsPerHour="56.163125849833364"/>
  <flow id="JF60730" begin="6020" fromJunction="J4" toJunction="J2" end="6080" vehsPerHour="23.123640768330446"/>
  <flow id="JF60731" begin="6020" fromJunction="J2" toJunction="J3" end="6080" vehsPerHour="105.90239406148704"/>
  <flow id="JF60732" begin="6020" fromJunction="J2" toJunction="J0" end="6080" vehsPerHour="134.91009701581007"/>
  <flow id="JF60733" begin="6020" fromJunction="J4" toJunction="J3" end="6080" vehsPerHour="54.360099749164185"/>
  <flow id="JF60734" begin="6020" fromJunction="J4" toJunction="J0" end="6080" vehsPerHour="38.56939342757354"/>
  <flow id="JF60735" begin="6080" fromJunction="J3" toJunction="J0" end="6140" vehsPerHour="534.6297487419928"/>
  <flow id="JF60736" begin="6080" fromJunction="J0" toJunction="J3" end="6140" vehsPerHour="453.33888285908864"/>
  <flow id="JF60737" begin="6080" fromJunction="J3" toJunction="J2" end="6140" vehsPerHour="108.35938373848977"/>
  <flow id="JF60738" begin="6080" fromJunction="J3" toJunction="J4" end="6140" vehsPerHour="33.109106316431614"/>
  <flow id="JF60739" begin="6080" fromJunction="J0" toJunction="J2" end="6140" vehsPerHour="96.43647293013416"/>
  <flow id="JF60740" begin="6080" fromJunction="J0" toJunction="J4" end="6140" vehsPerHour="62.89810895785585"/>
  <flow id="JF60741" begin="6080" fromJunction="J2" toJunction="J4" end="6140" vehsPerHour="33.51695970104205"/>
  <flow id="JF60742" begin="6080" fromJunction="J4" toJunction="J2" end="6140" vehsPerHour="74.1125663882074"/>
  <flow id="JF60743" begin="6080" fromJunction="J2" toJunction="J3" end="6140" vehsPerHour="54.15328306578502"/>
  <flow id="JF60744" begin="6080" fromJunction="J2" toJunction="J0" end="6140" vehsPerHour="61.520283298288014"/>
  <flow id="JF60745" begin="6080" fromJunction="J4" toJunction="J3" end="6140" vehsPerHour="77.71515452098402"/>
  <flow id="JF60746" begin="6080" fromJunction="J4" toJunction="J0" end="6140" vehsPerHour="10.655807690486215"/>
  <flow id="JF60747" begin="6140" fromJunction="J3" toJunction="J0" end="6200" vehsPerHour="201.06210414522246"/>
  <flow id="JF60748" begin="6140" fromJunction="J0" toJunction="J3" end="6200" vehsPerHour="101.66641575478954"/>
  <flow id="JF60749" begin="6140" fromJunction="J3" toJunction="J2" end="6200" vehsPerHour="81.41907555210712"/>
  <flow id="JF60750" begin="6140" fromJunction="J3" toJunction="J4" end="6200" vehsPerHour="137.17678369806134"/>
  <flow id="JF60751" begin="6140" fromJunction="J0" toJunction="J2" end="6200" vehsPerHour="35.502754652087354"/>
  <flow id="JF60752" begin="6140" fromJunction="J0" toJunction="J4" end="6200" vehsPerHour="23.93557955704945"/>
  <flow id="JF60753" begin="6140" fromJunction="J2" toJunction="J4" end="6200" vehsPerHour="36.03270209808238"/>
  <flow id="JF60754" begin="6140" fromJunction="J4" toJunction="J2" end="6200" vehsPerHour="14.99667962849601"/>
  <flow id="JF60755" begin="6140" fromJunction="J2" toJunction="J3" end="6200" vehsPerHour="23.502201924985133"/>
  <flow id="JF60756" begin="6140" fromJunction="J2" toJunction="J0" end="6200" vehsPerHour="92.46289502000151"/>
  <flow id="JF60757" begin="6140" fromJunction="J4" toJunction="J3" end="6200" vehsPerHour="32.982893657198986"/>
  <flow id="JF60758" begin="6140" fromJunction="J4" toJunction="J0" end="6200" vehsPerHour="27.171858461934686"/>
  <flow id="JF60759" begin="6200" fromJunction="J3" toJunction="J0" end="6260" vehsPerHour="131.84352433622354"/>
  <flow id="JF60760" begin="6200" fromJunction="J0" toJunction="J3" end="6260" vehsPerHour="119.02597490567778"/>
  <flow id="JF60761" begin="6200" fromJunction="J3" toJunction="J2" end="6260" vehsPerHour="55.78365921013157"/>
  <flow id="JF60762" begin="6200" fromJunction="J3" toJunction="J4" end="6260" vehsPerHour="30.686775402408447"/>
  <flow id="JF60763" begin="6200" fromJunction="J0" toJunction="J2" end="6260" vehsPerHour="113.54918541205059"/>
  <flow id="JF60764" begin="6200" fromJunction="J0" toJunction="J4" end="6260" vehsPerHour="3.0038767989843236"/>
  <flow id="JF60765" begin="6200" fromJunction="J2" toJunction="J4" end="6260" vehsPerHour="75.51607186132811"/>
  <flow id="JF60766" begin="6200" fromJunction="J4" toJunction="J2" end="6260" vehsPerHour="51.732362467292596"/>
  <flow id="JF60767" begin="6200" fromJunction="J2" toJunction="J3" end="6260" vehsPerHour="92.58877778917896"/>
  <flow id="JF60768" begin="6200" fromJunction="J2" toJunction="J0" end="6260" vehsPerHour="116.2844257535581"/>
  <flow id="JF60769" begin="6200" fromJunction="J4" toJunction="J3" end="6260" vehsPerHour="136.39057634600846"/>
  <flow id="JF60770" begin="6200" fromJunction="J4" toJunction="J0" end="6260" vehsPerHour="28.86551003613479"/>
  <flow id="JF60771" begin="6260" fromJunction="J3" toJunction="J0" end="6320" vehsPerHour="418.97960433629186"/>
  <flow id="JF60772" begin="6260" fromJunction="J0" toJunction="J3" end="6320" vehsPerHour="390.93592888464053"/>
  <flow id="JF60773" begin="6260" fromJunction="J3" toJunction="J2" end="6320" vehsPerHour="89.83782644160075"/>
  <flow id="JF60774" begin="6260" fromJunction="J3" toJunction="J4" end="6320" vehsPerHour="48.48378750043013"/>
  <flow id="JF60775" begin="6260" fromJunction="J0" toJunction="J2" end="6320" vehsPerHour="115.49903975360326"/>
  <flow id="JF60776" begin="6260" fromJunction="J0" toJunction="J4" end="6320" vehsPerHour="56.540172506196754"/>
  <flow id="JF60777" begin="6320" fromJunction="J3" toJunction="J0" end="6380" vehsPerHour="52.370343409989864"/>
  <flow id="JF60778" begin="6320" fromJunction="J0" toJunction="J3" end="6380" vehsPerHour="481.7102702168427"/>
  <flow id="JF60779" begin="6320" fromJunction="J3" toJunction="J2" end="6380" vehsPerHour="117.53899851847653"/>
  <flow id="JF60780" begin="6320" fromJunction="J3" toJunction="J4" end="6380" vehsPerHour="76.28124522801217"/>
  <flow id="JF60781" begin="6320" fromJunction="J0" toJunction="J2" end="6380" vehsPerHour="1.8267740340715117"/>
  <flow id="JF60782" begin="6320" fromJunction="J0" toJunction="J4" end="6380" vehsPerHour="96.41859757788225"/>
  <flow id="JF60783" begin="6380" fromJunction="J3" toJunction="J0" end="6440" vehsPerHour="248.13646098441612"/>
  <flow id="JF60784" begin="6380" fromJunction="J0" toJunction="J3" end="6440" vehsPerHour="174.29364433178347"/>
  <flow id="JF60785" begin="6380" fromJunction="J3" toJunction="J2" end="6440" vehsPerHour="26.501482677907163"/>
  <flow id="JF60786" begin="6380" fromJunction="J3" toJunction="J4" end="6440" vehsPerHour="55.50688089523896"/>
  <flow id="JF60787" begin="6380" fromJunction="J0" toJunction="J2" end="6440" vehsPerHour="84.91063075965337"/>