<?xml version="1.0" encoding="UTF-8"?>
<routes xmlns:xsi="http://www.w3.org/2001/XMLSchema-instance" xsi:noNamespaceSchemaLocation="http://sumo.dlr.de/xsd/routes_file.xsd">
  <flow id="JF64767" begin="0" fromJunction="J3" toJunction="J0" end="5000" vehsPerHour="1363.166283374297"/>
  <flow id="JF64768" begin="0" fromJunction="J0" toJunction="J3" end="5000" vehsPerHour="608.4464628422484"/>
  <flow id="JF64769" begin="0" fromJunction="J3" toJunction="J2" end="5000" vehsPerHour="1.6921069648644187"/>
  <flow id="JF64770" begin="0" fromJunction="J3" toJunction="J4" end="5000" vehsPerHour="53.40711931219248"/>
  <flow id="JF64771" begin="0" fromJunction="J0" toJunction="J2" end="5000" vehsPerHour="50.30154945747502"/>
  <flow id="JF64772" begin="0" fromJunction="J0" toJunction="J4" end="5000" vehsPerHour="81.23416633205386"/>
  <flow id="JF64773" begin="0" fromJunction="J2" toJunction="J4" end="5000" vehsPerHour="304.1587621772263"/>
  <flow id="JF64774" begin="0" fromJunction="J4" toJunction="J2" end="5000" vehsPerHour="453.2968568552829"/>
  <flow id="JF64775" begin="0" fromJunction="J2" toJunction="J3" end="5000" vehsPerHour="37.31416391552134"/>
  <flow id="JF64776" begin="0" fromJunction="J2" toJunction="J0" end="5000" vehsPerHour="76.17829993084779"/>
  <flow id="JF64777" begin="0" fromJunction="J4" toJunction="J3" end="5000" vehsPerHour="125.82905990491571"/>
  <flow id="JF64778" begin="0" fromJunction="J4" toJunction="J0" end="5000" vehsPerHour="136.05941130913757"/>
  <flow id="JF64779" begin="5000" fromJunction="J3" toJunction="J0" end="5060" vehsPerHour="519.1459427568128"/>
  <flow id="JF64780" begin="5000" fromJunction="J0" toJunction="J3" end="5060" vehsPerHour="424.8704219970254"/>
  <flow id="JF64781" begin="5000" fromJunction="J3" toJunction="J2" end="5060" vehsPerHour="88.55485721617623"/>
  <flow id="JF64782" begin="5000" fromJunction="J3" toJunction="J4" end="5060" vehsPerHour="104.52041453301189"/>
  <flow id="JF64783" begin="5000" fromJunction="J0" toJunction="J2" end="5060" vehsPerHour="5.556145286247522"/>
  <flow id="JF64784" begin="5000" fromJunction="J0" toJunction="J4" end="5060" vehsPerHour="111.00816340230509"/>
  <flow id="JF64785" begin="5000" fromJunction="J2" toJunction="J4" end="5060" vehsPerHour="48.324793594171545"/>
  <flow id="JF64786" begin="5000" fromJunction="J4" toJunction="J2" end="5060" vehsPerHour="7.656850422441439"/>
  <flow id="JF64787" begin="5000" fromJunction="J2" toJunction="J3" end="5060" vehsPerHour="40.74687884484364"/>
  <flow id="JF64788" begin="5000" fromJunction="J2" toJunction="J0" end="5060" vehsPerHour="63.031520483322005"/>
  <flow id="JF64789" begin="5000" fromJunction="J4" toJunction="J3" end="5060" vehsPerHour="98.83943005546894"/>
  <flow id="JF64790" begin="5000" fromJunction="J4" toJunction="J0" end="5060" vehsPerHour="66.67268092396073"/>
  <flow id="JF64791" begin="5060" fromJunction="J3" toJunction="J0" end="5120" vehsPerHour="457.40221257150984"/>
  <flow id="JF64792" begin="5060" fromJunction="J0" toJunction="J3" end="5120" vehsPerHour="498.77378774624015"/>
  <flow id="JF64793" begin="5060" fromJunction="J3" toJunction="J2" end="5120" vehsPerHour="84.72325003369363"/>
  <flow id="JF64794" begin="5060" fromJunction="J3" toJunction="J4" end="5120" vehsPerHour="125.4212243593378"/>
  <flow id="JF64795" begin="5060" fromJunction="J0" toJunction="J2" end="5120" vehsPerHour="120.94997630036642"/>
  <flow id="JF64796" begin="5060" fromJunction="J0" toJunction="J4" end="5120" vehsPerHour="121.87829999586401"/>
  <flow id="JF64797" begin="5060" fromJunction="J2" toJunction="J4" end="5120" vehsPerHour="114.03286409209946"/>
  <flow id="JF64798" begin="5060" fromJunction="J4" toJunction="J2" end="5120" vehsPerHour="0.5361972302485742"/>
  <flow id="JF64799" begin="5060" fromJunction="J2" toJunction="J3" end="5120" vehsPerHour="47.01315904219809"/>
  <flow id="JF64800" begin="5060" fromJunction="J2" toJunction="J0" end="5120" vehsPerHour="53.207912258991904"/>
  <flow id="JF64801" begin="5060" fromJunction="J4" toJunction="J3" end="5120" vehsPerHour="47.72295304459754"/>
  <flow id="JF64802" begin="5060" fromJunction="J4" toJunction="J0" end="5120" vehsPerHour="29.094934813416003"/>
  <flow id="JF64803" begin="5120" fromJunction="J3" toJunction="J0" end="5180" vehsPerHour="360.8294524945641"/>
  <flow id="JF64804" begin="5120" fromJunction="J0" toJunction="J3" end="5180" vehsPerHour="368.4731720956654"/>
  <flow id="JF64805" begin="5120" fromJunction="J3" toJunction="J2" end="5180" vehsPerHour="42.97304879684963"/>
  <flow id="JF64806" begin="5120" fromJunction="J3" toJunction="J4" end="5180" vehsPerHour="18.410019249536273"/>
  <flow id="JF64807" begin="5120" fromJunction="J0" toJunction="J2" end="5180" vehsPerHour="7.425225091003921"/>
  <flow id="JF64808" begin="5120" fromJunction="J0" toJunction="J4" end="5180" vehsPerHour="61.85813283774598"/>
  <flow id="JF64809" begin="5120" fromJunction="J2" toJunction="J4" end="5180" vehsPerHour="134.33433237628168"/>
  <flow id="JF64810" begin="5120" fromJunction="J4" toJunction="J2" end="5180" vehsPerHour="6.129683205795329"/>
  <flow id="JF64811" begin="5120" fromJunction="J2" toJunction="J3" end="5180" vehsPerHour="68.93393704664025"/>
  <flow id="JF64812" begin="5120" fromJunction="J2" toJunction="J0" end="5180" vehsPerHour="73.90416670562634"/>
  <flow id="JF64813" begin="5120" fromJunction="J4" toJunction="J3" end="5180" vehsPerHour="100.83584297988918"/>
  <flow id="JF64814" begin="5120" fromJunction="J4" toJunction="J0" end="5180" vehsPerHour="19.085534520215692"/>
  <flow id="JF64815" begin="5180" fromJunction="J3" toJunction="J0" end="5240" vehsPerHour="259.62901746528803"/>
  <flow id="JF64816" begin="5180" fromJunction="J0" toJunction="J3" end="5240" vehsPerHour="293.67363290425715"/>
  <flow id="JF64817" begin="5180" fromJunction="J3" toJunction="J2" end="5240" vehsPerHour="5.696616533763452"/>
  <flow id="JF64818" begin="5180" fromJunction="J3" toJunction="J4" end="5240" vehsPerHour="39.05824795820175"/>
  <flow id="JF64819" begin="5180" fromJunction="J0" toJunction="J2" end="5240" vehsPerHour="134.60288630971456"/>
  <flow id="JF64820" begin="5180" fromJunction="J0" toJunction="J4" end="5240" vehsPerHour="7.275708872099741"/>
  <flow id="JF64821" begin="5180" fromJunction="J2" toJunction="J4" end="5240" vehsPerHour="20.231456003254017"/>
  <flow id="JF64822" begin="5180" fromJunction="J4" toJunction="J2" end="5240" vehsPerHour="69.16067924387521"/>
  <flow id="JF64823" begin="5180" fromJunction="J2" toJunction="J3" end="5240" vehsPerHour="5.166452935863786"/>
  <flow id="JF64824" begin="5180" fromJunction="J2" toJunction="J0" end="5240" vehsPerHour="20.938469084715877"/>
  <flow id="JF64825" begin="5180" fromJunction="J4" toJunction="J3" end="5240" vehsPerHour="24.10834265071719"/>
  <flow id="JF64826" begin="5180" fromJunction="J4" toJunction="J0" end="5240" vehsPerHour="134.10211142275463"/>
  <flow id="JF64827" begin="5240" fromJunction="J3" toJunction="J0" end="5300" vehsPerHour="128.41322186939675"/>
  <flow id="JF64828" begin="5240" fromJunction="J0" toJunction="J3" end="5300" vehsPerHour="277.9369182659655"/>
  <flow id="JF64829" begin="5240" fromJunction="J3" toJunction="J2" end="5300" vehsPerHour="32.488355915778605"/>
  <flow id="JF64830" begin="5240" fromJunction="J3" toJunction="J4" end="5300" vehsPerHour="32.44136133320488"/>
  <flow id="JF64831" begin="5240" fromJunction="J0" toJunction="J2" end="5300" vehsPerHour="117.66348511574253"/>
  <flow id="JF64832" begin="5240" fromJunction="J0" toJunction="J4" end="5300" vehsPerHour="26.909077586975563"/>
  <flow id="JF64833" begin="5240" fromJunction="J2" toJunction="J4" end="5300" vehsPerHour="127.12011306050029"/>
  <flow id="JF64834" begin="5240" fromJunction="J4" toJunction="J2" end="5300" vehsPerHour="118.47697565145218"/>
  <flow id="JF64835" begin="5240" fromJunction="J2" toJunction="J3" end="5300" vehsPerHour="53.140803238280185"/>
  <flow id="JF64836" begin="5240" fromJunction="J2" toJunction="J0" end="5300" vehsPerHour="107.52941445935102"/>
  <flow id="JF64837" begin="5240" fromJunction="J4" toJunction="J3" end="5300" vehsPerHour="85.81387670803392"/>
  <flow id="JF64838" begin="5240" fromJunction="J4" toJunction="J0" end="5300" vehsPerHour="84.42957102639483"/>
  <flow id="JF64839" begin="5300" fromJunction="J3" toJunction="J0" end="5360" vehsPerHour="477.2761344961637"/>
  <flow id="JF64840" begin="5300" fromJunction="J0" toJunction="J3" end="5360" vehsPerHour="56.42028270467294"/>
  <flow id="JF64841" begin="5300" fromJunction="J3" toJunction="J2" end="5360" vehsPerHour="117.84388651992586"/>
  <flow id="JF64842" begin="5300" fromJunction="J3" toJunction="J4" end="5360" vehsPerHour="86.80450023516187"/>
  <flow id="JF64843" begin="5300" fromJunction="J0" toJunction="J2" end="5360" vehsPerHour="24.59829682060965"/>
  <flow id="JF64844" begin="5300" fromJunction="J0" toJunction="J4" end="5360" vehsPerHour="27.19997072695297"/>
  <flow id="JF64845" begin="5360" fromJunction="J3" toJunction="J0" end="5420" vehsPerHour="83.46147056473875"/>
  <flow id="JF64846" begin="5360" fromJunction="J0" toJunction="J3" end="5420" vehsPerHour="493.4917094400783"/>
  <flow id="JF64847" begin="5360" fromJunction="J3" toJunction="J2" end="5420" vehsPerHour="8.670389520635878"/>
  <flow id="JF64848" begin="5360" fromJunction="J3" toJunction="J4" end="5420" vehsPerHour="52.98386794141151"/>
  <flow id="JF64849" begin="5360" fromJunction="J0" toJunction="J2" end="5420" vehsPerHour="0.2714659587062402"/>
  <flow id="JF64850" begin="5360" fromJunction="J0" toJunction="J4" end="5420" vehsPerHour="132.32528658750513"/>
  <flow id="JF64851" begin="5360" fromJunction="J2" toJunction="J4" end="5420" vehsPerHour="41.161673290100566"/>
  <flow id="JF64852" begin="5360" fromJunction="J4" toJunction="J2" end="5420" vehsPerHour="11.07618197694473"/>
  <flow id="JF64853" begin="5360" fromJunction="J2" toJunction="J3" end="5420" vehsPerHour="98.8068386832367"/>
  <flow id="JF64854" begin="5360" fromJunction="J2" toJunction="J0" end="5420" vehsPerHour="85.87157150877971"/>
  <flow id="JF64855" begin="5360" fromJunction="J4" toJunction="J3" end="5420" vehsPerHour="120.13638392692943"/>
  <flow id="JF64856" begin="5360" fromJunction="J4" toJunction="J0" end="5420" vehsPerHour="29.475824960138564"/>
  <flow id="JF64857" begin="5420" fromJunction="J3" toJunction="J0" end="5480" vehsPerHour="159.45424998196782"/>
  <flow id="JF64858" begin="5420" fromJunction="J0" toJunction="J3" end="5480" vehsPerHour="104.94194710480883"/>
  <flow id="JF64859" begin="5420" fromJunction="J3" toJunction="J2" end="5480" vehsPerHour="17.11261532694733"/>
  <flow id="JF64860" begin="5420" fromJunction="J3" toJunction="J4" end="5480" vehsPerHour="50.0896117959584"/>
  <flow id="JF64861" begin="5420" fromJunction="J0" toJunction="J2" end="5480" vehsPerHour="43.57849534798455"/>
  <flow id="JF64862" begin="5420" fromJunction="J0" toJunction="J4" end="5480" vehsPerHour="15.812099817187844"/>
  <flow id="JF64863" begin="5420" fromJunction="J2" toJunction="J4" end="5480" vehsPerHour="85.50493125477176"/>
  <flow id="JF64864" begin="5420" fromJunction="J4" toJunction="J2" end="5480" vehsPerHour="44.33007961665646"/>
  <flow id="JF64865" begin="5420" fromJunction="J2" toJunction="J3" end="5480" vehsPerHour="4.610218244218745"/>
  <flow id="JF64866" begin="5420" fromJunction="J2" toJunction="J0" end="5480" vehsPerHour="92.6065062849397"/>
  <flow id="JF64867" begin="5420" fromJunction="J4" toJunction="J3" end="5480" vehsPerHour="121.108301672074"/>
  <flow id="JF64868" begin="5420" fromJunction="J4" toJunction="J0" end="5480" vehsPerHour="28.504405027406545"/>
  <flow id="JF64869" begin="5480" fromJunction="J3" toJunction="J0" end="5540" vehsPerHour="74.6568793819449"/>
  <flow id="JF64870" begin="5480" fromJunction="J0" toJunction="J3" end="5540" vehsPerHour="79.66535344510548"/>
  <flow id="JF64871" begin="5480" fromJunction="J3" toJunction="J2" end="5540" vehsPerHour="133.7789486556921"/>
  <flow id="JF64872" begin="5480" fromJunction="J3" toJunction="J4" end="5540" vehsPerHour="63.616986094461225"/>
  <flow id="JF64873" begin="5480" fromJunction="J0" toJunction="J2" end="5540" vehsPerHour="79.40126410061846"/>
  <flow id="JF64874" begin="5480" fromJunction="J0" toJunction="J4" end="5540" vehsPerHour="118.92094013039377"/>
  <flow id="JF64875" begin="5540" fromJunction="J3" toJunction="J0" end="5600" vehsPerHour="34.52106295660092"/>
  <flow id="JF64876" begin="5540" fromJunction="J0" toJunction="J3" end="5600" vehsPerHour="531.954221379019"/>
  <flow id="JF64877" begin="5540" fromJunction="J3" toJunction="J2" end="5600" vehsPerHour="54.27725846979383"/>
  <flow id="JF64878" begin="5540" fromJunction="J3" toJunction="J4" end="5600" vehsPerHour="17.5441704386461"/>
  <flow id="JF64879" begin="5540" fromJunction="J0" toJunction="J2" end="5600" vehsPerHour="60.132560017293905"/>
  <flow id="JF64880" begin="5540" fromJunction="J0" toJunction="J4" end="5600" vehsPerHour="35.384414372836574"/>
  <flow id="JF64881" begin="5600" fromJunction="J3" toJunction="J0" end="5660" vehsPerHour="19.590297627619254"/>
  <flow id="JF64882" begin="5600" fromJunction="J0" toJunction="J3" end="5660" vehsPerHour="495.50857348211014"/>
  <flow id="JF64883" begin="5600" fromJunction="J3" toJunction="J2" end="5660" vehsPerHour="99.57164454183484"/>
  <flow id="JF64884" begin="5600" fromJunction="J3" toJunction="J4" end="5660" vehsPerHour="90.42122533999459"/>
  <flow id="JF64885" begin="5600" fromJunction="J0" toJunction="J2" end="5660" vehsPerHour="66.37861680764033"/>
  <flow id="JF64886" begin="5600" fromJunction="J0" toJunction="J4" end="5660" vehsPerHour="53.69383420760606"/>
  <flow id="JF64887" begin="5600" fromJunction="J2" toJunction="J4" end="5660" vehsPerHour="7.718837320435783"/>
  <flow id="JF64888" begin="5600" fromJunction="J4" toJunction="J2" end="5660" vehsPerHour="58.93568406683211"/>
  <flow id="JF64889" begin="5600" fromJunction="J2" toJunction="J3" end="5660" vehsPerHour="56.30232363351652"/>
  <flow id="JF64890" begin="5600" fromJunction="J2" toJunction="J0" end="5660" vehsPerHour="60.01682212557004"/>
  <flow id="JF64891" begin="5600" fromJunction="J4" toJunction="J3" end="5660" vehsPerHour="136.80242591410183"/>
  <flow id="JF64892" begin="5600" fromJunction="J4" toJunction="J0" end="5660" vehsPerHour="128.76103573523443"/>
  <flow id="JF64893" begin="5660" fromJunction="J3" toJunction="J0" end="5720" vehsPerHour="475.9419411449286"/>
  <flow id="JF64894" begin="5660" fromJunction="J0" toJunction="J3" end="5720" vehsPerHour="53.621778450923664"/>
  <flow id="JF64895" begin="5660" fromJunction="J3" toJunction="J2" end="5720" vehsPerHour="34.71017070622779"/>
  <flow id="JF64896" begin="5660" fromJunction="J3" toJunction="J4" end="5720" vehsPerHour="7.324091976022779"/>
  <flow id="JF64897" begin="5660" fromJunction="J0" toJunction="J2" end="5720" vehsPerHour="46.50359766310533"/>
  <flow id="JF64898" begin="5660" fromJunction="J0" toJunction="J4" end="5720" vehsPerHour="77.45248966322919"/>
  <flow id="JF64899" begin="5720" fromJunction="J3" toJunction="J0" end="5780" vehsPerHour="51.01449250223421"/>
  <flow id="JF64900" begin="5720" fromJunction="J0" toJunction="J3" end="5780" vehsPerHour="343.52806649974485"/>
  <flow id="JF64901" begin="5720" fromJunction="J3" toJunction="J2" end="5780" vehsPerHour="40.84982826171218"/>
  <flow id="JF64902" begin="5720" fromJunction="J3" toJunction="J4" end="5780" vehsPerHour="12.877101821080178"/>
  <flow id="JF64903" begin="5720" fromJunction="J0" toJunction="J2" end="5780" vehsPerHour="61.74868819199312"/>
  <flow id="JF64904" begin="5720" fromJunction="J0" toJunction="J4" end="5780" vehsPerHour="111.8952214631142"/>
  <flow id="JF64905" begin="5780" fromJunction="J3" toJunction="J0" end="5840" vehsPerHour="129.06289109356885"/>
  <flow id="JF64906" begin="5780" fromJunction="J0" toJunction="J3" end="5840" vehsPerHour="224.60806050841873"/>
  <flow id="JF64907" begin="5780" fromJunction="J3" toJunction="J2" end="5840" vehsPerHour="40.40161689336191"/>
  <flow id="JF64908" begin="5780" fromJunction="J3" toJunction="J4" end="5840" vehsPerHour="52.626451252097546"/>
  <flow id="JF64909" begin="5780" fromJunction="J0" toJunction="J2" end="5840" vehsPerHour="23.143887803933247"/>
  <flow id="JF64910" begin="5780" fromJunction="J0" toJunction="J4" end="5840" vehsPerHour="130.99991390044943"/>
  <flow id="JF64911" begin="5840" fromJunction="J3" toJunction="J0" end="5900" vehsPerHour="243.0556305107979"/>
  <flow id="JF64912" begin="5840" fromJunction="J0" toJunction="J3" end="5900" vehsPerHour="11.369068138669348"/>
  <flow id="JF64913" begin="5840" fromJunction="J3" toJunction="J2" end="5900" vehsPerHour="122.83427845805915"/>
  <flow id="JF64914" begin="5840" fromJunction="J3" toJunction="J4" end="5900" vehsPerHour="86.44379934715418"/>
  <flow id="JF64915" begin="5840" fromJunction="J0" toJunction="J2" end="5900" vehsPerHour="79.42456811351173"/>
  <flow id="JF64916" begin="5840" fromJunction="J0" toJunction="J4" end="5900" vehsPerHour="81.23883001445233"/>
  <flow id="JF64917" begin="5840" fromJunction="J2" toJunction="J4" end="5900" vehsPerHour="77.37977573129562"/>
  <flow id="JF64918" begin="5840" fromJunction="J4" toJunction="J2" end="5900" vehsPerHour="60.24721055934796"/>
  <flow id="JF64919" begin="5840" fromJunction="J2" toJunction="J3" end="5900" vehsPerHour="99.59041751868102"/>
  <flow id="JF64920" begin="5840" fromJunction="J2" toJunction="J0" end="5900" vehsPerHour="112.94586847715108"/>
  <flow id="JF64921" begin="5840" fromJunction="J4" toJunction="J3" end="5900" vehsPerHour="110.49490409252925"/>
  <flow id="JF64922" begin="5840" fromJunction="J4" toJunction="J0" end="5900" vehsPerHour="91.90100131189591"/>
  <flow id="JF64923" begin="5900" fromJunction="J3" toJunction="J0" end="5960" vehsPerHour="461.8420634536933"/>
  <flow id="JF64924" begin="5900" fromJunction="J0" toJunction="J3" end="5960" vehsPerHour="497.30685956220077"/>
  <flow id="JF64925" begin="5900" fromJunction="J3" toJunction="J2" end="5960" vehsPerHour="105.62448973062475"/>
  <flow id="JF64926" begin="5900" fromJunction="J3" toJunction="J4" end="5960" vehsPerHour="37.571940544081336"/>
  <flow id="JF64927" begin="5900" fromJunction="J0" toJunction="J2" end="5960" vehsPerHour="3.910811958355221"/>
  <flow id="JF64928" begin="5900" fromJunction="J0" toJunction="J4" end="5960" vehsPerHour="16.546136021500374"/>
  <flow id="JF64929" begin="5960" fromJunction="J3" toJunction="J0" end="6020" vehsPerHour="424.16844569447215"/>
  <flow id="JF64930" begin="5960" fromJunction="J0" toJunction="J3" end="6020" vehsPerHour="4.210881387674582"/>
  <flow id="JF64931" begin="5960" fromJunction="J3" toJunction="J2" end="6020" vehsPerHour="127.23201091101956"/>
  <flow id="JF64932" begin="5960" fromJunction="J3" toJunction="J4" end="6020" vehsPerHour="53.42703640977701"/>
  <flow id="JF64933" begin="5960" fromJunction="J0" toJunction="J2" end="6020" vehsPerHour="101.47192122051372"/>
  <flow id="JF64934" begin="5960" fromJunction="J0" toJunction="J4" end="6020" vehsPerHour="39.18377854699017"/>
  <flow id="JF64935" begin="5960" fromJunction="J2" toJunction="J4" end="6020" vehsPerHour="90.27591836150462"/>
  <flow id="JF64936" begin="5960" fromJunction="J4" toJunction="J2" end="6020" vehsPerHour="81.80573246459748"/>
  <flow id="JF64937" begin="5960" fromJunction="J2" toJunction="J3" end="6020" vehsPerHour="117.18478637881553"/>
  <flow id="JF64938" begin="5960" fromJunction="J2" toJunction="J0" end="6020" vehsPerHour="7.560167233523505"/>
  <flow id="JF64939" begin="5960" fromJunction="J4" toJunction="J3" end="6020" vehsPerHour="102.68923836311255"/>
  <flow id="JF64940" begin="5960" fromJunction="J4" toJunction="J0" end="6020" vehsPerHour="10.482511609866645"/>
  <flow id="JF64941" begin="6020" fromJunction="J3" toJunction="J0" end="6080" vehsPerHour="121.68036895735712"/>
  <flow id="JF64942" begin="6020" fromJunction="J0" toJunction="J3" end="6080" vehsPerHour="53.207485422843234"/>
  <flow id="JF64943" begin="6020" fromJunction="J3" toJunction="J2" end="6080" vehsPerHour="104.24934113229092"/>
  <flow id="JF64944" begin="6020" fromJunction="J3" toJunction="J4" end="6080" vehsPerHour="31.325509834460103"/>
  <flow id="JF64945" begin="6020" fromJunction="J0" toJunction="J2" end="6080" vehsPerHour="41.492379423652324"/>
  <flow id="JF64946" begin="6020" fromJunction="J0" toJunction="J4" end="6080" vehsPerHour="10.43405939483081"/>
  <flow id="JF64947" begin="6020" fromJunction="J2" toJunction="J4" end="6080" vehsPerHour="72.10063942500157"/>
  <flow id="JF64948" begin="6020" fromJunction="J4" toJunction="J2" end="6080" vehsPerHour="60.983699521087615"/>
  <flow id="JF64949" begin="6020" fromJunction="J2" toJunction="J3" end="6080" vehsPerHour="128.61018522957636"/>
  <flow id="JF64950" begin="6020" fromJunction="J2" toJunction="J0" end="6080" vehsPerHour="87.09023774648422"/>
  <flow id="JF64951" begin="6020" fromJunction="J4" toJunction="J3" end="6080" vehsPerHour="71.4845937970938"/>
  <flow id="JF64952" begin="6020" fromJunction="J4" toJunction="J0" end="6080" vehsPerHour="85.94195751676173"/>
  <flow id="JF64953" begin="6080" fromJunction="J3" toJunction="J0" end="6140" vehsPerHour="428.5637035610916"/>
  <flow id="JF64954" begin="6080" fromJunction="J0" toJunction="J3" end="6140" vehsPerHour="482.27690527792"/>
  <flow id="JF64955" begin="6080" fromJunction="J3" toJunction="J2" end="6140" vehsPerHour="68.26020749905977"/>
  <flow id="JF64956" begin="6080" fromJunction="J3" toJunction="J4" end="6140" vehsPerHour="76.66626647176537"/>
  <flow id="JF64957" begin="6080" fromJunction="J0" toJunction="J2" end="6140" vehsPerHour="12.937953072480845"/>
  <flow id="JF64958" begin="6080" fromJunction="J0" toJunction="J4" end="6140" vehsPerHour="47.865673740453495"/>
  <flow id="JF64959" begin="6140" fromJunction="J3" toJunction="J0" end="6200" vehsPerHour="76.28818049541766"/>
  <flow id="JF64960" begin="6140" fromJunction="J0" toJunction="J3" end="6200" vehsPerHour="235.8614325163684"/>
  <flow id="JF64961" begin="6140" fromJunction="J3" toJunction="J2" end="6200" vehsPerHour="135.56704536529216"/>
  <flow id="JF64962" begin="6140" fromJunction="J3" toJunction="J4" end="6200" vehsPerHour="113.72510275931722"/>
  <flow id="JF64963" begin="6140" fromJunction="J0" toJunction="J2" end="6200" vehsPerHour="5.304359500725652"/>
  <flow id="JF64964" begin="6140" fromJunction="J0" toJunction="J4" end="6200" vehsPerHour="110.12205270361618"/>
  <flow id="JF64965" begin="6140" fromJunction="J2" toJunction="J4" end="6200" vehsPerHour="100.87742710118424"/>
  <flow id="JF64966" begin="6140" fromJunction="J4" toJunction="J2" end="6200" vehsPerHour="101.08097038716534"/>
  <flow id="JF64967" begin="6140" fromJunction="J2" toJunction="J3" end="6200" vehsPerHour="120.61958376409943"/>
  <flow id="JF64968" begin="6140" fromJunction="J2" toJunction="J0" end="6200" vehsPerHour="15.830569318046312"/>
  <flow id="JF64969" begin="6140" fromJunction="J4" toJunction="J3" end="6200" vehsPerHour="128.41755455797878"/>
  <flow id="JF64970" begin="6140" fromJunction="J4" toJunction="J0" end="6200" vehsPerHour="56.5616184581607"/>
  <flow id="JF64971" begin="6200" fromJunction="J3" toJunction="J0" end="6260" vehsPerHour="187.90732956308463"/>
  <flow id="JF64972" begin="6200" fromJunction="J0" toJunction="J3" end="6260" vehsPerHour="333.7303709060273"/>
  <flow id="JF64973" begin="6200" fromJunction="J3" toJunction="J2" end="6260" vehsPerHour="70.3709107929791"/>
  <flow id="JF64974" begin="6200" fromJunction="J3" toJunction="J4" end="6260" vehsPerHour="123.7608536482487"/>
  <flow id="JF64975" begin="6200" fromJunction="J0" toJunction="J2" end="6260" vehsPerHour="18.557598477842614"/>
  <flow id="JF64976" begin="6200" fromJunction="J0" toJunction="J4" end="6260" vehsPerHour="33.35199347764327"/>
  <flow id="JF64977" begin="6200" fromJunction="J2" toJunction="J4" end="6260" vehsPerHour="100.30033731606486"/>
  <flow id="JF64978" begin="6200" fromJunction="J4" toJunction="J2" end="6260" vehsPerHour="38.86376221104758"/>
  <flow id="JF64979" begin="6200" fromJunction="J2" toJunction="J3" end="6260" vehsPerHour="45.49450899709648"/>
  <flow id="JF64980" begin="6200" fromJunction="J2" toJunction="J0" end="6260" vehsPerHour="70.25234191611531"/>
  <flow id="JF64981" begin="6200" fromJunction="J4" toJunction="J3" end="6260" vehsPerHour="119.8056752347859"/>
  <flow id="JF64982" begin="6200" fromJunction="J4" toJunction="J0" end="6260" vehsPerHour="63.257211365479776"/>
  <flow id="JF64983" begin="6260" fromJunction="J3" toJunction="J0" end="6320" vehsPerHour="12.396238906566142"/>
  <flow id="JF64984" begin="6260" fromJunction="J0" toJunction="J3" end="6320" vehsPerHour="285.76545184025326"/>
  <flow id="JF64985" begin="6260" fromJunction="J3" toJunction="J2" end="6320" vehsPerHour="115.36745881019131"/>
  <flow id="JF64986" begin="6260" fromJunction="J3" toJunction="J4" end="6320" vehsPerHour="56.422184607909095"/>
  <flow id="JF64987" begin="6260" fromJunction="J0" toJunction="J2" end="6320" vehsPerHour="26.999903820935472"/>
  <flow id="JF64988" begin="6260" fromJunction="J0" toJunction="J4" end="6320" vehsPerHour="80.91092536731735"/>
  <flow id="JF64989" begin="6260" fromJunction="J2" toJunction="J4" end="6320" vehsPerHour="66.93510740852903"/>
  <flow id="JF64990" begin="6260" fromJunction="J4" toJunction="J2" end="6320" vehsPerHour="66.27413259109478"/>
  <flow id="JF64991" begin="6260" fromJunction="J2" toJunction="J3" end="6320" vehsPerHour="135.33968620637174"/>
  <flow id="JF64992" begin="6260" fromJunction="J2" toJunction="J0" end="6320" vehsPerHour="77.03673037127251"/>
  <flow id="JF64993" begin="6260" fromJunction="J4" toJunction="J3" end="6320" vehsPerHour="75.80848022466179"/>
  <flow id="JF64994" begin="6260" fromJunction="J4" toJunction="J0" end="6320" vehsPerHour="15.51557677673397"/>
  <flow id="JF64995" begin="6320" fromJunction="J3" toJunction="J0" end="6380" vehsPerHour="136.46548944774324"/>
  <flow id="JF64996" begin="6320" fromJunction="J0" toJunction="J3" end="6380" vehsPerHour="38.386972137987634"/>
  <flow id="JF64997" begin="6320" fromJunction="J3" toJunction="J2" end="6380" vehsPerHour="37.83029273778821"/>
  <flow id="JF64998" begin="6320" fromJunction="J3" toJunction="J4" end="6380" vehsPerHour="33.02851341538793"/>
  <flow id="JF64999" begin="6320" fromJunction="J0" toJunction="J2" end="6380" vehsPerHour="108.37963681519373"/>
  <flow id="JF65000" begin="6320" fromJunction="J0" toJunction="J4" end="6380" vehsPerHour="39.92110587995373"/>
  <flow id="JF65001" begin="6320" fromJunction="J2" toJunction="J4" end="6380" vehsPerHour="66.70269556926395"/>
  <flow id="JF65002" begin="6320" fromJunction="J4" toJunction="J2" end="6380" vehsPerHour="36.9931919817791"/>
  <flow id="JF65003" begin="6320" fromJunction="J2" toJunction="J3" end="6380" vehsPerHour="68.017736446132"/>
  <flow id="JF65004" begin="6320" fromJunction="J2" toJunction="J0" end="6380" vehsPerHour="50.47107957404959"/>
  <flow id="JF65005" begin="6320" fromJunction="J4" toJunction="J3" end="6380" vehsPerHour="7.69685898483246"/>
  <flow id="JF65006" begin="6320" fromJunction="J4" toJunction="J0" end="6380" vehsPerHour="87.18700540942028"/>
  <flow id="JF65007" begin="6380" fromJunction="J3" toJunction="J0" end="6440" vehsPerHour="377.64838141076154"/>
  <flow id="JF65008" begin="6380" fromJunction="J0" toJunction="J3" end="6440" vehsPerHour="149.23141453598333"/>
  <flow id="JF65009" begin="6380" fromJunction="J3" toJunction="J2" end="6440" vehsPerHour="30.529212393630377"/>
  <flow id="JF65010" begin="6380" fromJunction="J3" toJunction="J4" end="6440" vehsPerHour="76.69496699188834"/>
  <flow id="JF65011" begin="6380" fromJunction="J0" toJunction="J2" end="6440" vehsPerHour="74.55275924082589"/>
  <flow id="JF65012" begin="6380" fromJunction="J0" toJunction="J4" end="6440" vehsPerHour="75.79520335178479"/>
  <flow id="JF65013" begin="6440" fromJunction="J3" toJunction="J0" end="6500" vehsPerHour="99.26388857099293"/>
  <flow id="JF65014" begin="6440" fromJunction="J0" toJunction="J3" end="6500" vehsPerHour="153.00236448741427"/>
  <flow id="JF65015" begin="6440" fromJunction="J3" toJunction="J2" end="6500" vehsPerHour="30.368461653350614"/>
  <flow id="JF65016" begin="6440" fromJunction="J3" toJunction="J4" end="6500" vehsPerHour="104.80926936025453"/>
  <flow id="JF65017" begin="6440" fromJunction="J0" toJunction="J2" end="6500" vehsPerHour="102.04617515967571"/>
  <flow id="JF65018" begin="6440" fromJunction="J0" toJunction="J4" end="6500" vehsPerHour="99.07088688092287"/>
  <flow id="JF65019" begin="6440" fromJunction="J2" toJunction="J4" end="6500" vehsPerHour="11.471963496517548"/>
  <flow id="JF65020" begin="6440" fromJunction="J4" toJunction="J2" end="6500" vehsPerHour="24.37597827531203"/>
  <flow id="JF65021" begin="6440" fromJunction="J2" toJunction="J3" end="6500" vehsPerHour="25.115369153843474"/>
  <flow id="JF65022" begin="6440" fromJunction="J2" toJunction="J0" end="6500" vehsPerHour="127.6698805705995"/>
  <flow id="JF65023" begin="6440" fromJunction="J4" toJunction="J3" end="6500" vehsPerHour="49.823222943726954"/>
  <flow id="JF65024" begin="6440" fromJunction="J4" toJunction="J0" end="6500" vehsPerHour="49.79278529863305"/>
  <flow id="JF65025" begin="6500" fromJunction="J3" toJunction="J0" end="6560" vehsPerHour="354.79787415237683"/>
  <flow id="JF65026" begin="6500" fromJunction="J0" toJunction="J3" end="6560" vehsPerHour="0.7606809180410465"/>
  <flow id="JF65027" begin="6500" fromJunction="J3" toJunction="J2" end="6560" vehsPerHour="39.26846171134573"/>
  <flow id="JF65028" begin="6500" fromJunction="J3" toJunction="J4" end="6560" vehsPerHour="106.65839679465651"/>
  <flow id="JF65029" begin="6500" fromJunction="J0" toJunction="J2" end="6560" vehsPerHour="17.97411305721684"/>