<?xml version="1.0" encoding="UTF-8"?>
<routes xmlns:xsi="http://www.w3.org/2001/XMLSchema-instance" xsi:noNamespaceSchemaLocation="http://sumo.dlr.de/xsd/routes_file.xsd">
  <flow id="JF63033" begin="0" fromJunction="J3" toJunction="J0" end="5000" vehsPerHour="487.6128958799833"/>
  <flow id="JF63034" begin="0" fromJunction="J0" toJunction="J3" end="5000" vehsPerHour="649.6044308330362"/>
  <flow id="JF63035" begin="0" fromJunction="J3" toJunction="J2" end="5000" vehsPerHour="126.88250517817843"/>
  <flow id="JF63036" begin="0" fromJunction="J3" toJunction="J4" end="5000" vehsPerHour="96.92753409783018"/>
  <flow id="JF63037" begin="0" fromJunction="J0" toJunction="J2" end="5000" vehsPerHour="24.661748412972674"/>
  <flow id="JF63038" begin="0" fromJunction="J0" toJunction="J4" end="5000" vehsPerHour="29.05903030991066"/>
  <flow id="JF63039" begin="0" fromJunction="J2" toJunction="J4" end="5000" vehsPerHour="548.6511979254378"/>
  <flow id="JF63040" begin="0" fromJunction="J4" toJunction="J2" end="5000" vehsPerHour="445.46678543088143"/>
  <flow id="JF63041" begin="0" fromJunction="J2" toJunction="J3" end="5000" vehsPerHour="22.719084755976784"/>
  <flow id="JF63042" begin="0" fromJunction="J2" toJunction="J0" end="5000" vehsPerHour="54.52855262628091"/>
  <flow id="JF63043" begin="0" fromJunction="J4" toJunction="J3" end="5000" vehsPerHour="5.50173333556226"/>
  <flow id="JF63044" begin="0" fromJunction="J4" toJunction="J0" end="5000" vehsPerHour="98.01026379731368"/>
  <flow id="JF63045" begin="5000" fromJunction="J3" toJunction="J0" end="5060" vehsPerHour="417.15959367488813"/>
  <flow id="JF63046" begin="5000" fromJunction="J0" toJunction="J3" end="5060" vehsPerHour="327.9425755473229"/>
  <flow id="JF63047" begin="5000" fromJunction="J3" toJunction="J2" end="5060" vehsPerHour="34.5419141138752"/>
  <flow id="JF63048" begin="5000" fromJunction="J3" toJunction="J4" end="5060" vehsPerHour="33.52626936696592"/>
  <flow id="JF63049" begin="5000" fromJunction="J0" toJunction="J2" end="5060" vehsPerHour="21.906043721108638"/>
  <flow id="JF63050" begin="5000" fromJunction="J0" toJunction="J4" end="5060" vehsPerHour="1.0498030805657212"/>
  <flow id="JF63051" begin="5060" fromJunction="J3" toJunction="J0" end="5120" vehsPerHour="179.56305233657298"/>
  <flow id="JF63052" begin="5060" fromJunction="J0" toJunction="J3" end="5120" vehsPerHour="327.24115569431143"/>
  <flow id="JF63053" begin="5060" fromJunction="J3" toJunction="J2" end="5120" vehsPerHour="113.83109806093225"/>
  <flow id="JF63054" begin="5060" fromJunction="J3" toJunction="J4" end="5120" vehsPerHour="12.587482983683547"/>
  <flow id="JF63055" begin="5060" fromJunction="J0" toJunction="J2" end="5120" vehsPerHour="79.18135013180517"/>
  <flow id="JF63056" begin="5060" fromJunction="J0" toJunction="J4" end="5120" vehsPerHour="84.6377964431465"/>
  <flow id="JF63057" begin="5060" fromJunction="J2" toJunction="J4" end="5120" vehsPerHour="94.62978995276964"/>
  <flow id="JF63058" begin="5060" fromJunction="J4" toJunction="J2" end="5120" vehsPerHour="47.94975483190963"/>
  <flow id="JF63059" begin="5060" fromJunction="J2" toJunction="J3" end="5120" vehsPerHour="74.37605487017633"/>
  <flow id="JF63060" begin="5060" fromJunction="J2" toJunction="J0" end="5120" vehsPerHour="56.97806751274839"/>
  <flow id="JF63061" begin="5060" fromJunction="J4" toJunction="J3" end="5120" vehsPerHour="56.44145112797495"/>
  <flow id="JF63062" begin="5060" fromJunction="J4" toJunction="J0" end="5120" vehsPerHour="20.98130170412668"/>
  <flow id="JF63063" begin="5120" fromJunction="J3" toJunction="J0" end="5180" vehsPerHour="305.66031096121316"/>
  <flow id="JF63064" begin="5120" fromJunction="J0" toJunction="J3" end="5180" vehsPerHour="291.0033973400457"/>
  <flow id="JF63065" begin="5120" fromJunction="J3" toJunction="J2" end="5180" vehsPerHour="113.7181211261427"/>
  <flow id="JF63066" begin="5120" fromJunction="J3" toJunction="J4" end="5180" vehsPerHour="118.03186616867733"/>
  <flow id="JF63067" begin="5120" fromJunction="J0" toJunction="J2" end="5180" vehsPerHour="133.9555582510269"/>
  <flow id="JF63068" begin="5120" fromJunction="J0" toJunction="J4" end="5180" vehsPerHour="57.44310298274076"/>
  <flow id="JF63069" begin="5180" fromJunction="J3" toJunction="J0" end="5240" vehsPerHour="195.06402656558032"/>
  <flow id="JF63070" begin="5180" fromJunction="J0" toJunction="J3" end="5240" vehsPerHour="518.7251460044549"/>
  <flow id="JF63071" begin="5180" fromJunction="J3" toJunction="J2" end="5240" vehsPerHour="28.495657692399334"/>
  <flow id="JF63072" begin="5180" fromJunction="J3" toJunction="J4" end="5240" vehsPerHour="90.80027767356574"/>
  <flow id="JF63073" begin="5180" fromJunction="J0" toJunction="J2" end="5240" vehsPerHour="20.356499329958012"/>
  <flow id="JF63074" begin="5180" fromJunction="J0" toJunction="J4" end="5240" vehsPerHour="19.250744309857197"/>
  <flow id="JF63075" begin="5180" fromJunction="J2" toJunction="J4" end="5240" vehsPerHour="11.714831740841971"/>
  <flow id="JF63076" begin="5180" fromJunction="J4" toJunction="J2" end="5240" vehsPerHour="111.6926432307022"/>
  <flow id="JF63077" begin="5180" fromJunction="J2" toJunction="J3" end="5240" vehsPerHour="21.616212202967002"/>
  <flow id="JF63078" begin="5180" fromJunction="J2" toJunction="J0" end="5240" vehsPerHour="20.66694748948563"/>
  <flow id="JF63079" begin="5180" fromJunction="J4" toJunction="J3" end="5240" vehsPerHour="22.02470517276429"/>
  <flow id="JF63080" begin="5180" fromJunction="J4" toJunction="J0" end="5240" vehsPerHour="6.1239518385117435"/>
  <flow id="JF63081" begin="5240" fromJunction="J3" toJunction="J0" end="5300" vehsPerHour="311.7931962242182"/>
  <flow id="JF63082" begin="5240" fromJunction="J0" toJunction="J3" end="5300" vehsPerHour="491.60880456654934"/>
  <flow id="JF63083" begin="5240" fromJunction="J3" toJunction="J2" end="5300" vehsPerHour="40.520255550506654"/>
  <flow id="JF63084" begin="5240" fromJunction="J3" toJunction="J4" end="5300" vehsPerHour="56.27715606406227"/>
  <flow id="JF63085" begin="5240" fromJunction="J0" toJunction="J2" end="5300" vehsPerHour="114.3930335445294"/>
  <flow id="JF63086" begin="5240" fromJunction="J0" toJunction="J4" end="5300" vehsPerHour="53.373704868135924"/>
  <flow id="JF63087" begin="5300" fromJunction="J3" toJunction="J0" end="5360" vehsPerHour="136.4385897326585"/>
  <flow id="JF63088" begin="5300" fromJunction="J0" toJunction="J3" end="5360" vehsPerHour="104.39462582551994"/>
  <flow id="JF63089" begin="5300" fromJunction="J3" toJunction="J2" end="5360" vehsPerHour="112.9321809198827"/>
  <flow id="JF63090" begin="5300" fromJunction="J3" toJunction="J4" end="5360" vehsPerHour="75.53262644869753"/>
  <flow id="JF63091" begin="5300" fromJunction="J0" toJunction="J2" end="5360" vehsPerHour="116.85946973677484"/>
  <flow id="JF63092" begin="5300" fromJunction="J0" toJunction="J4" end="5360" vehsPerHour="37.790310775886695"/>
  <flow id="JF63093" begin="5300" fromJunction="J2" toJunction="J4" end="5360" vehsPerHour="68.00564182638564"/>
  <flow id="JF63094" begin="5300" fromJunction="J4" toJunction="J2" end="5360" vehsPerHour="67.86009158376008"/>
  <flow id="JF63095" begin="5300" fromJunction="J2" toJunction="J3" end="5360" vehsPerHour="40.281228632692944"/>
  <flow id="JF63096" begin="5300" fromJunction="J2" toJunction="J0" end="5360" vehsPerHour="40.549374824091785"/>
  <flow id="JF63097" begin="5300" fromJunction="J4" toJunction="J3" end="5360" vehsPerHour="134.8369696257448"/>
  <flow id="JF63098" begin="5300" fromJunction="J4" toJunction="J0" end="5360" vehsPerHour="113.50280441873599"/>
  <flow id="JF63099" begin="5360" fromJunction="J3" toJunction="J0" end="5420" vehsPerHour="430.882551745288"/>
  <flow id="JF63100" begin="5360" fromJunction="J0" toJunction="J3" end="5420" vehsPerHour="16.831543157066864"/>
  <flow id="JF63101" begin="5360" fromJunction="J3" toJunction="J2" end="5420" vehsPerHour="65.44815036303338"/>
  <flow id="JF63102" begin="5360" fromJunction="J3" toJunction="J4" end="5420" vehsPerHour="32.385066295191464"/>
  <flow id="JF63103" begin="5360" fromJunction="J0" toJunction="J2" end="5420" vehsPerHour="10.46682884556713"/>
  <flow id="JF63104" begin="5360" fromJunction="J0" toJunction="J4" end="5420" vehsPerHour="82.46061906772401"/>
  <flow id="JF63105" begin="5360" fromJunction="J2" toJunction="J4" end="5420" vehsPerHour="32.72001984213128"/>
  <flow id="JF63106" begin="5360" fromJunction="J4" toJunction="J2" end="5420" vehsPerHour="47.67842348172735"/>
  <flow id="JF63107" begin="5360" fromJunction="J2" toJunction="J3" end="5420" vehsPerHour="4.307087586677541"/>
  <flow id="JF63108" begin="5360" fromJunction="J2" toJunction="J0" end="5420" vehsPerHour="129.49326004302412"/>
  <flow id="JF63109" begin="5360" fromJunction="J4" toJunction="J3" end="5420" vehsPerHour="97.81984800317524"/>
  <flow id="JF63110" begin="5360" fromJunction="J4" toJunction="J0" end="5420" vehsPerHour="38.128499754786894"/>
  <flow id="JF63111" begin="5420" fromJunction="J3" toJunction="J0" end="5480" vehsPerHour="95.90779343482508"/>
  <flow id="JF63112" begin="5420" fromJunction="J0" toJunction="J3" end="5480" vehsPerHour="210.50758200493476"/>
  <flow id="JF63113" begin="5420" fromJunction="J3" toJunction="J2" end="5480" vehsPerHour="32.81358822717559"/>
  <flow id="JF63114" begin="5420" fromJunction="J3" toJunction="J4" end="5480" vehsPerHour="8.718258059475355"/>
  <flow id="JF63115" begin="5420" fromJunction="J0" toJunction="J2" end="5480" vehsPerHour="45.25780926433901"/>
  <flow id="JF63116" begin="5420" fromJunction="J0" toJunction="J4" end="5480" vehsPerHour="29.824744843086805"/>
  <flow id="JF63117" begin="5420" fromJunction="J2" toJunction="J4" end="5480" vehsPerHour="51.01188881376148"/>
  <flow id="JF63118" begin="5420" fromJunction="J4" toJunction="J2" end="5480" vehsPerHour="3.138554553409473"/>
  <flow id="JF63119" begin="5420" fromJunction="J2" toJunction="J3" end="5480" vehsPerHour="24.281657260835768"/>
  <flow id="JF63120" begin="5420" fromJunction="J2" toJunction="J0" end="5480" vehsPerHour="55.24207343477653"/>
  <flow id="JF63121" begin="5420" fromJunction="J4" toJunction="J3" end="5480" vehsPerHour="26.270384574054948"/>
  <flow id="JF63122" begin="5420" fromJunction="J4" toJunction="J0" end="5480" vehsPerHour="43.59522638767636"/>
  <flow id="JF63123" begin="5480" fromJunction="J3" toJunction="J0" end="5540" vehsPerHour="116.82533772677466"/>
  <flow id="JF63124" begin="5480" fromJunction="J0" toJunction="J3" end="5540" vehsPerHour="69.84957852913504"/>
  <flow id="JF63125" begin="5480" fromJunction="J3" toJunction="J2" end="5540" vehsPerHour="31.507945814123577"/>
  <flow id="JF63126" begin="5480" fromJunction="J3" toJunction="J4" end="5540" vehsPerHour="105.17133673643868"/>
  <flow id="JF63127" begin="5480" fromJunction="J0" toJunction="J2" end="5540" vehsPerHour="126.74163156108368"/>
  <flow id="JF63128" begin="5480" fromJunction="J0" toJunction="J4" end="5540" vehsPerHour="88.72211162398834"/>
  <flow id="JF63129" begin="5480" fromJunction="J2" toJunction="J4" end="5540" vehsPerHour="108.40907496234453"/>
  <flow id="JF63130" begin="5480" fromJunction="J4" toJunction="J2" end="5540" vehsPerHour="68.79910399065012"/>
  <flow id="JF63131" begin="5480" fromJunction="J2" toJunction="J3" end="5540" vehsPerHour="35.46130635106346"/>
  <flow id="JF63132" begin="5480" fromJunction="J2" toJunction="J0" end="5540" vehsPerHour="55.911626229229206"/>
  <flow id="JF63133" begin="5480" fromJunction="J4" toJunction="J3" end="5540" vehsPerHour="0.6856365142441962"/>
  <flow id="JF63134" begin="5480" fromJunction="J4" toJunction="J0" end="5540" vehsPerHour="21.76375716047995"/>
  <flow id="JF63135" begin="5540" fromJunction="J3" toJunction="J0" end="5600" vehsPerHour="53.708593256868596"/>
  <flow id="JF63136" begin="5540" fromJunction="J0" toJunction="J3" end="5600" vehsPerHour="313.0185794927179"/>
  <flow id="JF63137" begin="5540" fromJunction="J3" toJunction="J2" end="5600" vehsPerHour="21.087999704184547"/>
  <flow id="JF63138" begin="5540" fromJunction="J3" toJunction="J4" end="5600" vehsPerHour="45.37096083936595"/>
  <flow id="JF63139" begin="5540" fromJunction="J0" toJunction="J2" end="5600" vehsPerHour="124.52278554503548"/>
  <flow id="JF63140" begin="5540" fromJunction="J0" toJunction="J4" end="5600" vehsPerHour="108.92904053208852"/>
  <flow id="JF63141" begin="5540" fromJunction="J2" toJunction="J4" end="5600" vehsPerHour="134.03535281974445"/>
  <flow id="JF63142" begin="5540" fromJunction="J4" toJunction="J2" end="5600" vehsPerHour="11.322710187990541"/>
  <flow id="JF63143" begin="5540" fromJunction="J2" toJunction="J3" end="5600" vehsPerHour="79.17264390052304"/>
  <flow id="JF63144" begin="5540" fromJunction="J2" toJunction="J0" end="5600" vehsPerHour="44.95230075141501"/>
  <flow id="JF63145" begin="5540" fromJunction="J4" toJunction="J3" end="5600" vehsPerHour="16.176456619771223"/>
  <flow id="JF63146" begin="5540" fromJunction="J4" toJunction="J0" end="5600" vehsPerHour="83.22787852433581"/>
  <flow id="JF63147" begin="5600" fromJunction="J3" toJunction="J0" end="5660" vehsPerHour="368.8215223301143"/>
  <flow id="JF63148" begin="5600" fromJunction="J0" toJunction="J3" end="5660" vehsPerHour="57.90806942024671"/>
  <flow id="JF63149" begin="5600" fromJunction="J3" toJunction="J2" end="5660" vehsPerHour="80.51739500036885"/>
  <flow id="JF63150" begin="5600" fromJunction="J3" toJunction="J4" end="5660" vehsPerHour="126.89180267269612"/>
  <flow id="JF63151" begin="5600" fromJunction="J0" toJunction="J2" end="5660" vehsPerHour="101.64268563833089"/>
  <flow id="JF63152" begin="5600" fromJunction="J0" toJunction="J4" end="5660" vehsPerHour="56.94955134562494"/>
  <flow id="JF63153" begin="5600" fromJunction="J2" toJunction="J4" end="5660" vehsPerHour="125.96658736862156"/>
  <flow id="JF63154" begin="5600" fromJunction="J4" toJunction="J2" end="5660" vehsPerHour="53.07462379622723"/>
  <flow id="JF63155" begin="5600" fromJunction="J2" toJunction="J3" end="5660" vehsPerHour="74.96130278571914"/>
  <flow id="JF63156" begin="5600" fromJunction="J2" toJunction="J0" end="5660" vehsPerHour="20.469564211970727"/>
  <flow id="JF63157" begin="5600" fromJunction="J4" toJunction="J3" end="5660" vehsPerHour="5.552076808575996"/>
  <flow id="JF63158" begin="5600" fromJunction="J4" toJunction="J0" end="5660" vehsPerHour="135.88177136404067"/>
  <flow id="JF63159" begin="5660" fromJunction="J3" toJunction="J0" end="5720" vehsPerHour="145.07556636827275"/>
  <flow id="JF63160" begin="5660" fromJunction="J0" toJunction="J3" end="5720" vehsPerHour="420.81784790225305"/>
  <flow id="JF63161" begin="5660" fromJunction="J3" toJunction="J2" end="5720" vehsPerHour="129.27973001054585"/>
  <flow id="JF63162" begin="5660" fromJunction="J3" toJunction="J4" end="5720" vehsPerHour="122.53829182651158"/>
  <flow id="JF63163" begin="5660" fromJunction="J0" toJunction="J2" end="5720" vehsPerHour="22.463456044956512"/>
  <flow id="JF63164" begin="5660" fromJunction="J0" toJunction="J4" end="5720" vehsPerHour="128.47934973911686"/>
  <flow id="JF63165" begin="5720" fromJunction="J3" toJunction="J0" end="5780" vehsPerHour="101.07558872023824"/>
  <flow id="JF63166" begin="5720" fromJunction="J0" toJunction="J3" end="5780" vehsPerHour="35.42914708395872"/>
  <flow id="JF63167" begin="5720" fromJunction="J3" toJunction="J2" end="5780" vehsPerHour="24.584273869676572"/>
  <flow id="JF63168" begin="5720" fromJunction="J3" toJunction="J4" end="5780" vehsPerHour="48.342292065046706"/>
  <flow id="JF63169" begin="5720" fromJunction="J0" toJunction="J2" end="5780" vehsPerHour="39.67085296201372"/>
  <flow id="JF63170" begin="5720" fromJunction="J0" toJunction="J4" end="5780" vehsPerHour="84.17295844822107"/>
  <flow id="JF63171" begin="5780" fromJunction="J3" toJunction="J0" end="5840" vehsPerHour="141.60807157239282"/>
  <flow id="JF63172" begin="5780" fromJunction="J0" toJunction="J3" end="5840" vehsPerHour="425.2694257532872"/>
  <flow id="JF63173" begin="5780" fromJunction="J3" toJunction="J2" end="5840" vehsPerHour="41.468356694767735"/>
  <flow id="JF63174" begin="5780" fromJunction="J3" toJunction="J4" end="5840" vehsPerHour="103.61436433189334"/>
  <flow id="JF63175" begin="5780" fromJunction="J0" toJunction="J2" end="5840" vehsPerHour="76.53740898209591"/>
  <flow id="JF63176" begin="5780" fromJunction="J0" toJunction="J4" end="5840" vehsPerHour="95.55051307513962"/>
  <flow id="JF63177" begin="5780" fromJunction="J2" toJunction="J4" end="5840" vehsPerHour="56.02782990490168"/>
  <flow id="JF63178" begin="5780" fromJunction="J4" toJunction="J2" end="5840" vehsPerHour="34.642327909972686"/>
  <flow id="JF63179" begin="5780" fromJunction="J2" toJunction="J3" end="5840" vehsPerHour="85.72781864040915"/>
  <flow id="JF63180" begin="5780" fromJunction="J2" toJunction="J0" end="5840" vehsPerHour="53.46158659741943"/>
  <flow id="JF63181" begin="5780" fromJunction="J4" toJunction="J3" end="5840" vehsPerHour="108.9430598006884"/>
  <flow id="JF63182" begin="5780" fromJunction="J4" toJunction="J0" end="5840" vehsPerHour="93.43934530614855"/>
  <flow id="JF63183" begin="5840" fromJunction="J3" toJunction="J0" end="5900" vehsPerHour="405.12202052812444"/>
  <flow id="JF63184" begin="5840" fromJunction="J0" toJunction="J3" end="5900" vehsPerHour="58.32404134082452"/>
  <flow id="JF63185" begin="5840" fromJunction="J3" toJunction="J2" end="5900" vehsPerHour="88.34090378358023"/>
  <flow id="JF63186" begin="5840" fromJunction="J3" toJunction="J4" end="5900" vehsPerHour="127.13217734918945"/>
  <flow id="JF63187" begin="5840" fromJunction="J0" toJunction="J2" end="5900" vehsPerHour="49.94340707176197"/>
  <flow id="JF63188" begin="5840" fromJunction="J0" toJunction="J4" end="5900" vehsPerHour="111.20391695490255"/>
  <flow id="JF63189" begin="5840" fromJunction="J2" toJunction="J4" end="5900" vehsPerHour="62.756077921466435"/>
  <flow id="JF63190" begin="5840" fromJunction="J4" toJunction="J2" end="5900" vehsPerHour="2.4905847063396243"/>
  <flow id="JF63191" begin="5840" fromJunction="J2" toJunction="J3" end="5900" vehsPerHour="34.124984879298005"/>
  <flow id="JF63192" begin="5840" fromJunction="J2" toJunction="J0" end="5900" vehsPerHour="77.26106638539126"/>
  <flow id="JF63193" begin="5840" fromJunction="J4" toJunction="J3" end="5900" vehsPerHour="56.48649549839871"/>
  <flow id="JF63194" begin="5840" fromJunction="J4" toJunction="J0" end="5900" vehsPerHour="68.17518894377856"/>
  <flow id="JF63195" begin="5900" fromJunction="J3" toJunction="J0" end="5960" vehsPerHour="420.27959778103065"/>
  <flow id="JF63196" begin="5900" fromJunction="J0" toJunction="J3" end="5960" vehsPerHour="266.33425833589257"/>
  <flow id="JF63197" begin="5900" fromJunction="J3" toJunction="J2" end="5960" vehsPerHour="112.65021735656292"/>
  <flow id="JF63198" begin="5900" fromJunction="J3" toJunction="J4" end="5960" vehsPerHour="106.53424608222747"/>
  <flow id="JF63199" begin="5900" fromJunction="J0" toJunction="J2" end="5960" vehsPerHour="131.5356541531577"/>
  <flow id="JF63200" begin="5900" fromJunction="J0" toJunction="J4" end="5960" vehsPerHour="94.8534440220603"/>
  <flow id="JF63201" begin="5900" fromJunction="J2" toJunction="J4" end="5960" vehsPerHour="84.29763688180745"/>
  <flow id="JF63202" begin="5900" fromJunction="J4" toJunction="J2" end="5960" vehsPerHour="62.13269100285613"/>
  <flow id="JF63203" begin="5900" fromJunction="J2" toJunction="J3" end="5960" vehsPerHour="33.05253688156854"/>
  <flow id="JF63204" begin="5900" fromJunction="J2" toJunction="J0" end="5960" vehsPerHour="48.05834240192481"/>
  <flow id="JF63205" begin="5900" fromJunction="J4" toJunction="J3" end="5960" vehsPerHour="91.56975268614994"/>
  <flow id="JF63206" begin="5900" fromJunction="J4" toJunction="J0" end="5960" vehsPerHour="64.3883293044728"/>
  <flow id="JF63207" begin="5960" fromJunction="J3" toJunction="J0" end="6020" vehsPerHour="136.26730343159133"/>
  <flow id="JF63208" begin="5960" fromJunction="J0" toJunction="J3" end="6020" vehsPerHour="349.3388116646123"/>
  <flow id="JF63209" begin="5960" fromJunction="J3" toJunction="J2" end="6020" vehsPerHour="20.019589462014057"/>
  <flow id="JF63210" begin="5960" fromJunction="J3" toJunction="J4" end="6020" vehsPerHour="115.81436133923668"/>
  <flow id="JF63211" begin="5960" fromJunction="J0" toJunction="J2" end="6020" vehsPerHour="32.87752356459083"/>
  <flow id="JF63212" begin="5960" fromJunction="J0" toJunction="J4" end="6020" vehsPerHour="125.21973722549595"/>
  <flow id="JF63213" begin="5960" fromJunction="J2" toJunction="J4" end="6020" vehsPerHour="93.71437738898888"/>
  <flow id="JF63214" begin="5960" fromJunction="J4" toJunction="J2" end="6020" vehsPerHour="97.95506025179182"/>
  <flow id="JF63215" begin="5960" fromJunction="J2" toJunction="J3" end="6020" vehsPerHour="86.42586752460538"/>
  <flow id="JF63216" begin="5960" fromJunction="J2" toJunction="J0" end="6020" vehsPerHour="48.86146682101664"/>
  <flow id="JF63217" begin="5960" fromJunction="J4" toJunction="J3" end="6020" vehsPerHour="26.142728554972443"/>
  <flow id="JF63218" begin="5960" fromJunction="J4" toJunction="J0" end="6020" vehsPerHour="8.658830508695667"/>
  <flow id="JF63219" begin="6020" fromJunction="J3" toJunction="J0" end="6080" vehsPerHour="507.49009307886894"/>
  <flow id="JF63220" begin="6020" fromJunction="J0" toJunction="J3" end="6080" vehsPerHour="503.0673963215064"/>
  <flow id="JF63221" begin="6020" fromJunction="J3" toJunction="J2" end="6080" vehsPerHour="36.39604098987117"/>
  <flow id="JF63222" begin="6020" fromJunction="J3" toJunction="J4" end="6080" vehsPerHour="65.24693344340285"/>
  <flow id="JF63223" begin="6020" fromJunction="J0" toJunction="J2" end="6080" vehsPerHour="19.51664227308915"/>
  <flow id="JF63224" begin="6020" fromJunction="J0" toJunction="J4" end="6080" vehsPerHour="4.741692236082655"/>
  <flow id="JF63225" begin="6020" fromJunction="J2" toJunction="J4" end="6080" vehsPerHour="53.93079546279937"/>
  <flow id="JF63226" begin="6020" fromJunction="J4" toJunction="J2" end="6080" vehsPerHour="97.78059161053612"/>
  <flow id="JF63227" begin="6020" fromJunction="J2" toJunction="J3" end="6080" vehsPerHour="109.65522750860886"/>
  <flow id="JF63228" begin="6020" fromJunction="J2" toJunction="J0" end="6080" vehsPerHour="33.27282591519459"/>
  <flow id="JF63229" begin="6020" fromJunction="J4" toJunction="J3" end="6080" vehsPerHour="66.30774465772204"/>
  <flow id="JF63230" begin="6020" fromJunction="J4" toJunction="J0" end="6080" vehsPerHour="61.62334637524797"/>
  <flow id="JF63231" begin="6080" fromJunction="J3" toJunction="J0" end="6140" vehsPerHour="301.89571983141354"/>
  <flow id="JF63232" begin="6080" fromJunction="J0" toJunction="J3" end="6140" vehsPerHour="54.44708342061395"/>
  <flow id="JF63233" begin="6080" fromJunction="J3" toJunction="J2" end="6140" vehsPerHour="135.35713964393815"/>
  <flow id="JF63234" begin="6080" fromJunction="J3" toJunction="J4" end="6140" vehsPerHour="78.73085004708906"/>
  <flow id="JF63235" begin="6080" fromJunction="J0" toJunction="J2" end="6140" vehsPerHour="1.9377551071853039"/>
  <flow id="JF63236" begin="6080" fromJunction="J0" toJunction="J4" end="6140" vehsPerHour="0.5147441564327025"/>
  <flow id="JF63237" begin="6080" fromJunction="J2" toJunction="J4" end="6140" vehsPerHour="97.79959076962984"/>
  <flow id="JF63238" begin="6080" fromJunction="J4" toJunction="J2" end="6140" vehsPerHour="136.07437155749923"/>
  <flow id="JF63239" begin="6080" fromJunction="J2" toJunction="J3" end="6140" vehsPerHour="107.29628662249341"/>
  <flow id="JF63240" begin="6080" fromJunction="J2" toJunction="J0" end="6140" vehsPerHour="67.31828959350814"/>
  <flow id="JF63241" begin="6080" fromJunction="J4" toJunction="J3" end="6140" vehsPerHour="55.770263453477575"/>
  <flow id="JF63242" begin="6080" fromJunction="J4" toJunction="J0" end="6140" vehsPerHour="46.296356442757386"/>
  <flow id="JF63243" begin="6140" fromJunction="J3" toJunction="J0" end="6200" vehsPerHour="73.3277905674237"/>
  <flow id="JF63244" begin="6140" fromJunction="J0" toJunction="J3" end="6200" vehsPerHour="371.60180759345286"/>
  <flow id="JF63245" begin="6140" fromJunction="J3" toJunction="J2" end="6200" vehsPerHour="136.72429096409257"/>
  <flow id="JF63246" begin="6140" fromJunction="J3" toJunction="J4" end="6200" vehsPerHour="130.02859866222093"/>
  <flow id="JF63247" begin="6140" fromJunction="J0" toJunction="J2" end="6200" vehsPerHour="135.74507815976574"/>
  <flow id="JF63248" begin="6140" fromJunction="J0" toJunction="J4" end="6200" vehsPerHour="112.32890569665037"/>
  <flow id="JF63249" begin="6140" fromJunction="J2" toJunction="J4" end="6200" vehsPerHour="78.9208024952682"/>
  <flow id="JF63250" begin="6140" fromJunction="J4" toJunction="J2" end="6200" vehsPerHour="32.23855812318744"/>
  <flow id="JF63251" begin="6140" fromJunction="J2" toJunction="J3" end="6200" vehsPerHour="53.09292443186365"/>
  <flow id="JF63252" begin="6140" fromJunction="J2" toJunction="J0" end="6200" vehsPerHour="86.98011487551821"/>
  <flow id="JF63253" begin="6140" fromJunction="J4" toJunction="J3" end="6200" vehsPerHour="34.84330712039821"/>
  <flow id="JF63254" begin="6140" fromJunction="J4" toJunction="J0" end="6200" vehsPerHour="66.71847445724103"/>
  <flow id="JF63255" begin="6200" fromJunction="J3" toJunction="J0" end="6260" vehsPerHour="386.15948426694007"/>
  <flow id="JF63256" begin="6200" fromJunction="J0" toJunction="J3" end="6260" vehsPerHour="384.01485307863265"/>
  <flow id="JF63257" begin="6200" fromJunction="J3" toJunction="J2" end="6260" vehsPerHour="33.12352868421266"/>
  <flow id="JF63258" begin="6200" fromJunction="J3" toJunction="J4" end="6260" vehsPerHour="118.22090251471867"/>
  <flow id="JF63259" begin="6200" fromJunction="J0" toJunction="J2" end="6260" vehsPerHour="39.66112242626172"/>
  <flow id="JF63260" begin="6200" fromJunction="J0" toJunction="J4" end="6260" vehsPerHour="14.36455016220141"/>
  <flow id="JF63261" begin="6260" fromJunction="J3" toJunction="J0" end="6320" vehsPerHour="116.4513022088526"/>
  <flow id="JF63262" begin="6260" fromJunction="J0" toJunction="J3" end="6320" vehsPerHour="410.58560656313296"/>
  <flow id="JF63263" begin="6260" fromJunction="J3" toJunction="J2" end="6320" vehsPerHour="136.82233000729065"/>
  <flow id="JF63264" begin="6260" fromJunction="J3" toJunction="J4" end="6320" vehsPerHour="70.81101060556095"/>
  <flow id="JF63265" begin="6260" fromJunction="J0" toJunction="J2" end="6320" vehsPerHour="81.88329886316048"/>
  <flow id="JF63266" begin="6260" fromJunction="J0" toJunction="J4" end="6320" vehsPerHour="121.26322150761206"/>
  <flow id="JF63267" begin="6260" fromJunction="J2" toJunction="J4" end="6320" vehsPerHour="4.925969011397175"/>
  <flow id="JF63268" begin="6260" fromJunction="J4" toJunction="J2" end="6320" vehsPerHour="86.81326986475298"/>
  <flow id="JF63269" begin="6260" fromJunction="J2" toJunction="J3" end="6320" vehsPerHour="38.586081308664966"/>
  <flow id="JF63270" begin="6260" fromJunction="J2" toJunction="J0" end="6320" vehsPerHour="133.66380354202954"/>
  <flow id="JF63271" begin="6260" fromJunction="J4" toJunction="J3" end="6320" vehsPerHour="72.26228860938451"/>
  <flow id="JF63272" begin="6260" fromJunction="J4" toJunction="J0" end="6320" vehsPerHour="121.13360967489142"/>
  <flow id="JF63273" begin="6320" fromJunction="J3" toJunction="J0" end="6380" vehsPerHour="253.01927524059064"/>
  <flow id="JF63274" begin="6320" fromJunction="J0" toJunction="J3" end="6380" vehsPerHour="117.90238589855325"/>
  <flow id="JF63275" begin="6320" fromJunction="J3" toJunction="J2" end="6380" vehsPerHour="82.50769301327679"/>
  <flow id="JF63276" begin="6320" fromJunction="J3" toJunction="J4" end="6380" vehsPerHour="0.7330402142034599"/>
  <flow id="JF63277" begin="6320" fromJunction="J0" toJunction="J2" end="6380" vehsPerHour="48.89211683639958"/>
  <flow id="JF63278" begin="6320" fromJunction="J0" toJunction="J4" end="6380" vehsPerHour="65.97138550700737"/>
  <flow id="JF63279" begin="6320" fromJunction="J2" toJunction="J4" end="6380" vehsPerHour="82.33558483614027"/>
  <flow id="JF63280" begin="6320" fromJunction="J4" toJunction="J2" end="6380" vehsPerHour="120.32083934853208"/>
  <flow id="JF63281" begin="6320" fromJunction="J2" toJunction="J3" end="6380" vehsPerHour="46.82992777651186"/>
  <flow id="JF63282" begin="6320" fromJunction="J2" toJunction="J0" end="6380" vehsPerHour="18.863575106309277"/>
  <flow id="JF63283" begin="6320" fromJunction="J4" toJunction="J3" end="6380" vehsPerHour="39.13453267032909"/>
  <flow id="JF63284" begin="6320" fromJunction="J4" toJunction="J0" end="6380" vehsPerHour="47.208445792154265"/>
  <flow id="JF63285" begin="6380" fromJunction="J3" toJunction="J0" end="6440" vehsPerHour="108.75626423783788"/>
  <flow id="JF63286" begin="6380" fromJunction="J0" toJunction="J3" end="6440" vehsPerHour="548.8483843535822"/>
  <flow id="JF63287" begin="6380" fromJunction="J3" toJunction="J2" end="6440" vehsPerHour="68.43172221984416"/>
  <flow id="JF63288" begin="6380" fromJunction="J3" toJunction="J4" end="6440" vehsPerHour="63.42785962869536"/>
  <flow id="JF63289" begin="6380" fromJunction="J0" toJunction="J2" end="6440" vehsPerHour="36.579319963343"/>
  <flow id="JF63290" begin="6380" fromJunction="J0" toJunction="J4" end="6440" vehsPerHour="100.3613849073105"/>
  <flow id="JF63291" begin="6380" fromJunction="J2" toJunction="J4" end="6440" vehsPerHour="11.937510097900976"/>
  <flow id="JF63292" begin="6380" fromJunction="J4" toJunction="J2" end="6440" vehsPerHour="35.581644929208096"/>
  <flow id="JF63293" begin="6380" fromJunction="J2" toJunction="J3" end="6440" vehsPerHour="83.2803377123964"/>
  <flow id="JF63294" begin="6380" fromJunction="J2" toJunction="J0" end="6440" vehsPerHour="92.47908472186215"/>
  <flow id="JF63295" begin="6380" fromJunction="J4" toJunction="J3" end="6440" vehsPerHour="10.789297544264665"/>