<?xml version="1.0" encoding="UTF-8"?>
<routes xmlns:xsi="http://www.w3.org/2001/XMLSchema-instance" xsi:noNamespaceSchemaLocation="http://sumo.dlr.de/xsd/routes_file.xsd">
  <flow id="JF65577" begin="0" fromJunction="J3" toJunction="J0" end="5000" vehsPerHour="510.55829777736466"/>
  <flow id="JF65578" begin="0" fromJunction="J0" toJunction="J3" end="5000" vehsPerHour="739.8874581952645"/>
  <flow id="JF65579" begin="0" fromJunction="J3" toJunction="J2" end="5000" vehsPerHour="56.005059940554425"/>
  <flow id="JF65580" begin="0" fromJunction="J3" toJunction="J4" end="5000" vehsPerHour="42.79737959750259"/>
  <flow id="JF65581" begin="0" fromJunction="J0" toJunction="J2" end="5000" vehsPerHour="13.903207104948471"/>
  <flow id="JF65582" begin="0" fromJunction="J0" toJunction="J4" end="5000" vehsPerHour="20.46165054756908"/>
  <flow id="JF65583" begin="0" fromJunction="J2" toJunction="J4" end="5000" vehsPerHour="465.8464529477306"/>
  <flow id="JF65584" begin="0" fromJunction="J4" toJunction="J2" end="5000" vehsPerHour="168.81731109621572"/>
  <flow id="JF65585" begin="0" fromJunction="J2" toJunction="J3" end="5000" vehsPerHour="40.33445749585018"/>
  <flow id="JF65586" begin="0" fromJunction="J2" toJunction="J0" end="5000" vehsPerHour="116.85811914975972"/>
  <flow id="JF65587" begin="0" fromJunction="J4" toJunction="J3" end="5000" vehsPerHour="92.2195816686162"/>
  <flow id="JF65588" begin="0" fromJunction="J4" toJunction="J0" end="5000" vehsPerHour="89.18746398017517"/>
  <flow id="JF65589" begin="5000" fromJunction="J3" toJunction="J0" end="5060" vehsPerHour="147.26862837357717"/>
  <flow id="JF65590" begin="5000" fromJunction="J0" toJunction="J3" end="5060" vehsPerHour="113.27058602162411"/>
  <flow id="JF65591" begin="5000" fromJunction="J3" toJunction="J2" end="5060" vehsPerHour="112.62207379391081"/>
  <flow id="JF65592" begin="5000" fromJunction="J3" toJunction="J4" end="5060" vehsPerHour="66.02531796193207"/>
  <flow id="JF65593" begin="5000" fromJunction="J0" toJunction="J2" end="5060" vehsPerHour="44.04807084656632"/>
  <flow id="JF65594" begin="5000" fromJunction="J0" toJunction="J4" end="5060" vehsPerHour="15.049125814283943"/>
  <flow id="JF65595" begin="5000" fromJunction="J2" toJunction="J4" end="5060" vehsPerHour="136.33351927059758"/>
  <flow id="JF65596" begin="5000" fromJunction="J4" toJunction="J2" end="5060" vehsPerHour="99.8984889906968"/>
  <flow id="JF65597" begin="5000" fromJunction="J2" toJunction="J3" end="5060" vehsPerHour="45.46533365654399"/>
  <flow id="JF65598" begin="5000" fromJunction="J2" toJunction="J0" end="5060" vehsPerHour="111.91076939846803"/>
  <flow id="JF65599" begin="5000" fromJunction="J4" toJunction="J3" end="5060" vehsPerHour="80.3391004635559"/>
  <flow id="JF65600" begin="5000" fromJunction="J4" toJunction="J0" end="5060" vehsPerHour="87.77489813627938"/>
  <flow id="JF65601" begin="5060" fromJunction="J3" toJunction="J0" end="5120" vehsPerHour="512.7094926231972"/>
  <flow id="JF65602" begin="5060" fromJunction="J0" toJunction="J3" end="5120" vehsPerHour="452.67051514475156"/>
  <flow id="JF65603" begin="5060" fromJunction="J3" toJunction="J2" end="5120" vehsPerHour="99.11891073360869"/>
  <flow id="JF65604" begin="5060" fromJunction="J3" toJunction="J4" end="5120" vehsPerHour="118.10435573783671"/>
  <flow id="JF65605" begin="5060" fromJunction="J0" toJunction="J2" end="5120" vehsPerHour="10.412959845316152"/>
  <flow id="JF65606" begin="5060" fromJunction="J0" toJunction="J4" end="5120" vehsPerHour="120.26292563099214"/>
  <flow id="JF65607" begin="5120" fromJunction="J3" toJunction="J0" end="5180" vehsPerHour="111.69029228855449"/>
  <flow id="JF65608" begin="5120" fromJunction="J0" toJunction="J3" end="5180" vehsPerHour="147.05579407400586"/>
  <flow id="JF65609" begin="5120" fromJunction="J3" toJunction="J2" end="5180" vehsPerHour="83.63269745517316"/>
  <flow id="JF65610" begin="5120" fromJunction="J3" toJunction="J4" end="5180" vehsPerHour="130.5013511048195"/>
  <flow id="JF65611" begin="5120" fromJunction="J0" toJunction="J2" end="5180" vehsPerHour="103.10960931702692"/>
  <flow id="JF65612" begin="5120" fromJunction="J0" toJunction="J4" end="5180" vehsPerHour="61.60220691143111"/>
  <flow id="JF65613" begin="5120" fromJunction="J2" toJunction="J4" end="5180" vehsPerHour="17.241694132161516"/>
  <flow id="JF65614" begin="5120" fromJunction="J4" toJunction="J2" end="5180" vehsPerHour="24.29584566781338"/>
  <flow id="JF65615" begin="5120" fromJunction="J2" toJunction="J3" end="5180" vehsPerHour="130.35434029100375"/>
  <flow id="JF65616" begin="5120" fromJunction="J2" toJunction="J0" end="5180" vehsPerHour="34.04497804769675"/>
  <flow id="JF65617" begin="5120" fromJunction="J4" toJunction="J3" end="5180" vehsPerHour="117.93270445232831"/>
  <flow id="JF65618" begin="5120" fromJunction="J4" toJunction="J0" end="5180" vehsPerHour="80.71757758536783"/>
  <flow id="JF65619" begin="5180" fromJunction="J3" toJunction="J0" end="5240" vehsPerHour="522.5432433266654"/>
  <flow id="JF65620" begin="5180" fromJunction="J0" toJunction="J3" end="5240" vehsPerHour="491.2607301665774"/>
  <flow id="JF65621" begin="5180" fromJunction="J3" toJunction="J2" end="5240" vehsPerHour="30.883981209296948"/>
  <flow id="JF65622" begin="5180" fromJunction="J3" toJunction="J4" end="5240" vehsPerHour="67.31629831572711"/>
  <flow id="JF65623" begin="5180" fromJunction="J0" toJunction="J2" end="5240" vehsPerHour="98.54759935046077"/>
  <flow id="JF65624" begin="5180" fromJunction="J0" toJunction="J4" end="5240" vehsPerHour="92.0387721733648"/>
  <flow id="JF65625" begin="5240" fromJunction="J3" toJunction="J0" end="5300" vehsPerHour="38.02178079947219"/>
  <flow id="JF65626" begin="5240" fromJunction="J0" toJunction="J3" end="5300" vehsPerHour="385.2432983407682"/>
  <flow id="JF65627" begin="5240" fromJunction="J3" toJunction="J2" end="5300" vehsPerHour="74.71730419017288"/>
  <flow id="JF65628" begin="5240" fromJunction="J3" toJunction="J4" end="5300" vehsPerHour="63.3799916550801"/>
  <flow id="JF65629" begin="5240" fromJunction="J0" toJunction="J2" end="5300" vehsPerHour="66.72185196799668"/>
  <flow id="JF65630" begin="5240" fromJunction="J0" toJunction="J4" end="5300" vehsPerHour="132.43623085848415"/>
  <flow id="JF65631" begin="5240" fromJunction="J2" toJunction="J4" end="5300" vehsPerHour="24.18564310652705"/>
  <flow id="JF65632" begin="5240" fromJunction="J4" toJunction="J2" end="5300" vehsPerHour="0.8554440832394827"/>
  <flow id="JF65633" begin="5240" fromJunction="J2" toJunction="J3" end="5300" vehsPerHour="116.03607217980931"/>
  <flow id="JF65634" begin="5240" fromJunction="J2" toJunction="J0" end="5300" vehsPerHour="78.82818444850496"/>
  <flow id="JF65635" begin="5240" fromJunction="J4" toJunction="J3" end="5300" vehsPerHour="55.74563120660824"/>
  <flow id="JF65636" begin="5240" fromJunction="J4" toJunction="J0" end="5300" vehsPerHour="119.85197117158816"/>
  <flow id="JF65637" begin="5300" fromJunction="J3" toJunction="J0" end="5360" vehsPerHour="424.2198944770891"/>
  <flow id="JF65638" begin="5300" fromJunction="J0" toJunction="J3" end="5360" vehsPerHour="149.61304357854317"/>
  <flow id="JF65639" begin="5300" fromJunction="J3" toJunction="J2" end="5360" vehsPerHour="18.679564088579887"/>
  <flow id="JF65640" begin="5300" fromJunction="J3" toJunction="J4" end="5360" vehsPerHour="74.78783761665132"/>
  <flow id="JF65641" begin="5300" fromJunction="J0" toJunction="J2" end="5360" vehsPerHour="133.9404993090568"/>
  <flow id="JF65642" begin="5300" fromJunction="J0" toJunction="J4" end="5360" vehsPerHour="69.88314421832065"/>
  <flow id="JF65643" begin="5300" fromJunction="J2" toJunction="J4" end="5360" vehsPerHour="55.94764886093734"/>
  <flow id="JF65644" begin="5300" fromJunction="J4" toJunction="J2" end="5360" vehsPerHour="34.39966593760274"/>
  <flow id="JF65645" begin="5300" fromJunction="J2" toJunction="J3" end="5360" vehsPerHour="16.01387484611987"/>
  <flow id="JF65646" begin="5300" fromJunction="J2" toJunction="J0" end="5360" vehsPerHour="129.44034356036758"/>
  <flow id="JF65647" begin="5300" fromJunction="J4" toJunction="J3" end="5360" vehsPerHour="10.05767201618194"/>
  <flow id="JF65648" begin="5300" fromJunction="J4" toJunction="J0" end="5360" vehsPerHour="123.52685108141566"/>
  <flow id="JF65649" begin="5360" fromJunction="J3" toJunction="J0" end="5420" vehsPerHour="533.2814929624088"/>
  <flow id="JF65650" begin="5360" fromJunction="J0" toJunction="J3" end="5420" vehsPerHour="373.5719395310315"/>
  <flow id="JF65651" begin="5360" fromJunction="J3" toJunction="J2" end="5420" vehsPerHour="56.003794956807624"/>
  <flow id="JF65652" begin="5360" fromJunction="J3" toJunction="J4" end="5420" vehsPerHour="42.60941836009078"/>
  <flow id="JF65653" begin="5360" fromJunction="J0" toJunction="J2" end="5420" vehsPerHour="9.258097122679606"/>
  <flow id="JF65654" begin="5360" fromJunction="J0" toJunction="J4" end="5420" vehsPerHour="71.44590288077315"/>
  <flow id="JF65655" begin="5360" fromJunction="J2" toJunction="J4" end="5420" vehsPerHour="27.336459204291653"/>
  <flow id="JF65656" begin="5360" fromJunction="J4" toJunction="J2" end="5420" vehsPerHour="84.01816197422842"/>
  <flow id="JF65657" begin="5360" fromJunction="J2" toJunction="J3" end="5420" vehsPerHour="1.2337750664046057"/>
  <flow id="JF65658" begin="5360" fromJunction="J2" toJunction="J0" end="5420" vehsPerHour="19.55096894321254"/>
  <flow id="JF65659" begin="5360" fromJunction="J4" toJunction="J3" end="5420" vehsPerHour="75.03651919014477"/>
  <flow id="JF65660" begin="5360" fromJunction="J4" toJunction="J0" end="5420" vehsPerHour="113.698653265412"/>
  <flow id="JF65661" begin="5420" fromJunction="J3" toJunction="J0" end="5480" vehsPerHour="156.96143216570755"/>
  <flow id="JF65662" begin="5420" fromJunction="J0" toJunction="J3" end="5480" vehsPerHour="229.40050824292513"/>
  <flow id="JF65663" begin="5420" fromJunction="J3" toJunction="J2" end="5480" vehsPerHour="67.99350121433073"/>
  <flow id="JF65664" begin="5420" fromJunction="J3" toJunction="J4" end="5480" vehsPerHour="9.318526760505687"/>
  <flow id="JF65665" begin="5420" fromJunction="J0" toJunction="J2" end="5480" vehsPerHour="63.33225715051956"/>
  <flow id="JF65666" begin="5420" fromJunction="J0" toJunction="J4" end="5480" vehsPerHour="26.294567505950045"/>
  <flow id="JF65667" begin="5480" fromJunction="J3" toJunction="J0" end="5540" vehsPerHour="262.3658403670713"/>
  <flow id="JF65668" begin="5480" fromJunction="J0" toJunction="J3" end="5540" vehsPerHour="83.2157295730976"/>
  <flow id="JF65669" begin="5480" fromJunction="J3" toJunction="J2" end="5540" vehsPerHour="12.15797197567484"/>
  <flow id="JF65670" begin="5480" fromJunction="J3" toJunction="J4" end="5540" vehsPerHour="53.85872016463551"/>
  <flow id="JF65671" begin="5480" fromJunction="J0" toJunction="J2" end="5540" vehsPerHour="73.5357886623485"/>
  <flow id="JF65672" begin="5480" fromJunction="J0" toJunction="J4" end="5540" vehsPerHour="49.43580325414636"/>
  <flow id="JF65673" begin="5480" fromJunction="J2" toJunction="J4" end="5540" vehsPerHour="124.02591037951026"/>
  <flow id="JF65674" begin="5480" fromJunction="J4" toJunction="J2" end="5540" vehsPerHour="117.48011150233775"/>
  <flow id="JF65675" begin="5480" fromJunction="J2" toJunction="J3" end="5540" vehsPerHour="117.24768126353652"/>
  <flow id="JF65676" begin="5480" fromJunction="J2" toJunction="J0" end="5540" vehsPerHour="5.384526948241374"/>
  <flow id="JF65677" begin="5480" fromJunction="J4" toJunction="J3" end="5540" vehsPerHour="131.14630920019536"/>
  <flow id="JF65678" begin="5480" fromJunction="J4" toJunction="J0" end="5540" vehsPerHour="85.01927123825683"/>
  <flow id="JF65679" begin="5540" fromJunction="J3" toJunction="J0" end="5600" vehsPerHour="355.3079894672417"/>
  <flow id="JF65680" begin="5540" fromJunction="J0" toJunction="J3" end="5600" vehsPerHour="231.95267076390533"/>
  <flow id="JF65681" begin="5540" fromJunction="J3" toJunction="J2" end="5600" vehsPerHour="102.3011255169035"/>
  <flow id="JF65682" begin="5540" fromJunction="J3" toJunction="J4" end="5600" vehsPerHour="36.20413346455344"/>
  <flow id="JF65683" begin="5540" fromJunction="J0" toJunction="J2" end="5600" vehsPerHour="43.498291701167396"/>
  <flow id="JF65684" begin="5540" fromJunction="J0" toJunction="J4" end="5600" vehsPerHour="41.94673301267193"/>
  <flow id="JF65685" begin="5540" fromJunction="J2" toJunction="J4" end="5600" vehsPerHour="64.39349947156637"/>
  <flow id="JF65686" begin="5540" fromJunction="J4" toJunction="J2" end="5600" vehsPerHour="46.3105013161618"/>
  <flow id="JF65687" begin="5540" fromJunction="J2" toJunction="J3" end="5600" vehsPerHour="86.26140976516565"/>
  <flow id="JF65688" begin="5540" fromJunction="J2" toJunction="J0" end="5600" vehsPerHour="87.42285852241034"/>
  <flow id="JF65689" begin="5540" fromJunction="J4" toJunction="J3" end="5600" vehsPerHour="116.1523849219421"/>
  <flow id="JF65690" begin="5540" fromJunction="J4" toJunction="J0" end="5600" vehsPerHour="92.1548489613842"/>
  <flow id="JF65691" begin="5600" fromJunction="J3" toJunction="J0" end="5660" vehsPerHour="355.6319259393851"/>
  <flow id="JF65692" begin="5600" fromJunction="J0" toJunction="J3" end="5660" vehsPerHour="190.60245660894162"/>
  <flow id="JF65693" begin="5600" fromJunction="J3" toJunction="J2" end="5660" vehsPerHour="85.4046381052819"/>
  <flow id="JF65694" begin="5600" fromJunction="J3" toJunction="J4" end="5660" vehsPerHour="11.238171418862105"/>
  <flow id="JF65695" begin="5600" fromJunction="J0" toJunction="J2" end="5660" vehsPerHour="130.42680867939103"/>
  <flow id="JF65696" begin="5600" fromJunction="J0" toJunction="J4" end="5660" vehsPerHour="83.39286932319014"/>
  <flow id="JF65697" begin="5660" fromJunction="J3" toJunction="J0" end="5720" vehsPerHour="107.04057599217495"/>
  <flow id="JF65698" begin="5660" fromJunction="J0" toJunction="J3" end="5720" vehsPerHour="265.76557990061673"/>
  <flow id="JF65699" begin="5660" fromJunction="J3" toJunction="J2" end="5720" vehsPerHour="100.19073182606898"/>
  <flow id="JF65700" begin="5660" fromJunction="J3" toJunction="J4" end="5720" vehsPerHour="39.087983575459546"/>
  <flow id="JF65701" begin="5660" fromJunction="J0" toJunction="J2" end="5720" vehsPerHour="86.83037988998743"/>
  <flow id="JF65702" begin="5660" fromJunction="J0" toJunction="J4" end="5720" vehsPerHour="128.02543385951773"/>
  <flow id="JF65703" begin="5720" fromJunction="J3" toJunction="J0" end="5780" vehsPerHour="275.2119192540872"/>
  <flow id="JF65704" begin="5720" fromJunction="J0" toJunction="J3" end="5780" vehsPerHour="495.9454932158751"/>
  <flow id="JF65705" begin="5720" fromJunction="J3" toJunction="J2" end="5780" vehsPerHour="75.87824950377163"/>
  <flow id="JF65706" begin="5720" fromJunction="J3" toJunction="J4" end="5780" vehsPerHour="120.08047650890609"/>
  <flow id="JF65707" begin="5720" fromJunction="J0" toJunction="J2" end="5780" vehsPerHour="70.06055876058683"/>
  <flow id="JF65708" begin="5720" fromJunction="J0" toJunction="J4" end="5780" vehsPerHour="82.74318708441375"/>
  <flow id="JF65709" begin="5720" fromJunction="J2" toJunction="J4" end="5780" vehsPerHour="57.36502069260844"/>
  <flow id="JF65710" begin="5720" fromJunction="J4" toJunction="J2" end="5780" vehsPerHour="7.992079953261784"/>
  <flow id="JF65711" begin="5720" fromJunction="J2" toJunction="J3" end="5780" vehsPerHour="7.456814313168171"/>
  <flow id="JF65712" begin="5720" fromJunction="J2" toJunction="J0" end="5780" vehsPerHour="93.53256311149637"/>
  <flow id="JF65713" begin="5720" fromJunction="J4" toJunction="J3" end="5780" vehsPerHour="19.320511549492046"/>
  <flow id="JF65714" begin="5720" fromJunction="J4" toJunction="J0" end="5780" vehsPerHour="127.04538732147854"/>
  <flow id="JF65715" begin="5780" fromJunction="J3" toJunction="J0" end="5840" vehsPerHour="288.10292942063813"/>
  <flow id="JF65716" begin="5780" fromJunction="J0" toJunction="J3" end="5840" vehsPerHour="473.8872099954444"/>
  <flow id="JF65717" begin="5780" fromJunction="J3" toJunction="J2" end="5840" vehsPerHour="74.54703579711547"/>
  <flow id="JF65718" begin="5780" fromJunction="J3" toJunction="J4" end="5840" vehsPerHour="84.98544162176135"/>
  <flow id="JF65719" begin="5780" fromJunction="J0" toJunction="J2" end="5840" vehsPerHour="135.68904312855227"/>
  <flow id="JF65720" begin="5780" fromJunction="J0" toJunction="J4" end="5840" vehsPerHour="47.10885991254246"/>
  <flow id="JF65721" begin="5840" fromJunction="J3" toJunction="J0" end="5900" vehsPerHour="63.90698253923337"/>
  <flow id="JF65722" begin="5840" fromJunction="J0" toJunction="J3" end="5900" vehsPerHour="537.5390125910931"/>
  <flow id="JF65723" begin="5840" fromJunction="J3" toJunction="J2" end="5900" vehsPerHour="2.4893088435795243"/>
  <flow id="JF65724" begin="5840" fromJunction="J3" toJunction="J4" end="5900" vehsPerHour="112.47566253839214"/>
  <flow id="JF65725" begin="5840" fromJunction="J0" toJunction="J2" end="5900" vehsPerHour="95.38786771574894"/>
  <flow id="JF65726" begin="5840" fromJunction="J0" toJunction="J4" end="5900" vehsPerHour="84.20855888716005"/>
  <flow id="JF65727" begin="5840" fromJunction="J2" toJunction="J4" end="5900" vehsPerHour="52.4417831244958"/>
  <flow id="JF65728" begin="5840" fromJunction="J4" toJunction="J2" end="5900" vehsPerHour="2.30738918028278"/>
  <flow id="JF65729" begin="5840" fromJunction="J2" toJunction="J3" end="5900" vehsPerHour="10.07353324657608"/>
  <flow id="JF65730" begin="5840" fromJunction="J2" toJunction="J0" end="5900" vehsPerHour="88.66772833677626"/>
  <flow id="JF65731" begin="5840" fromJunction="J4" toJunction="J3" end="5900" vehsPerHour="75.40342642742337"/>
  <flow id="JF65732" begin="5840" fromJunction="J4" toJunction="J0" end="5900" vehsPerHour="113.01025106959004"/>
  <flow id="JF65733" begin="5900" fromJunction="J3" toJunction="J0" end="5960" vehsPerHour="505.12467973449253"/>
  <flow id="JF65734" begin="5900" fromJunction="J0" toJunction="J3" end="5960" vehsPerHour="193.5889019671669"/>
  <flow id="JF65735" begin="5900" fromJunction="J3" toJunction="J2" end="5960" vehsPerHour="69.87227840713258"/>
  <flow id="JF65736" begin="5900" fromJunction="J3" toJunction="J4" end="5960" vehsPerHour="26.25813607760168"/>
  <flow id="JF65737" begin="5900" fromJunction="J0" toJunction="J2" end="5960" vehsPerHour="10.550037683957429"/>
  <flow id="JF65738" begin="5900" fromJunction="J0" toJunction="J4" end="5960" vehsPerHour="0.6633762934974179"/>
  <flow id="JF65739" begin="5960" fromJunction="J3" toJunction="J0" end="6020" vehsPerHour="402.5426809432823"/>
  <flow id="JF65740" begin="5960" fromJunction="J0" toJunction="J3" end="6020" vehsPerHour="303.3000095569621"/>
  <flow id="JF65741" begin="5960" fromJunction="J3" toJunction="J2" end="6020" vehsPerHour="76.31012447606987"/>
  <flow id="JF65742" begin="5960" fromJunction="J3" toJunction="J4" end="6020" vehsPerHour="4.870511029219032"/>
  <flow id="JF65743" begin="5960" fromJunction="J0" toJunction="J2" end="6020" vehsPerHour="44.159829890561994"/>
  <flow id="JF65744" begin="5960" fromJunction="J0" toJunction="J4" end="6020" vehsPerHour="76.4201213706088"/>
  <flow id="JF65745" begin="5960" fromJunction="J2" toJunction="J4" end="6020" vehsPerHour="107.40824079078376"/>
  <flow id="JF65746" begin="5960" fromJunction="J4" toJunction="J2" end="6020" vehsPerHour="37.2100618543412"/>
  <flow id="JF65747" begin="5960" fromJunction="J2" toJunction="J3" end="6020" vehsPerHour="60.81241081389119"/>
  <flow id="JF65748" begin="5960" fromJunction="J2" toJunction="J0" end="6020" vehsPerHour="135.5384496078981"/>
  <flow id="JF65749" begin="5960" fromJunction="J4" toJunction="J3" end="6020" vehsPerHour="54.18161426925539"/>
  <flow id="JF65750" begin="5960" fromJunction="J4" toJunction="J0" end="6020" vehsPerHour="1.3712655858132352"/>
  <flow id="JF65751" begin="6020" fromJunction="J3" toJunction="J0" end="6080" vehsPerHour="408.97431909452575"/>
  <flow id="JF65752" begin="6020" fromJunction="J0" toJunction="J3" end="6080" vehsPerHour="99.24096598770682"/>
  <flow id="JF65753" begin="6020" fromJunction="J3" toJunction="J2" end="6080" vehsPerHour="48.30482348915386"/>
  <flow id="JF65754" begin="6020" fromJunction="J3" toJunction="J4" end="6080" vehsPerHour="63.72309340941399"/>
  <flow id="JF65755" begin="6020" fromJunction="J0" toJunction="J2" end="6080" vehsPerHour="51.39124625058507"/>
  <flow id="JF65756" begin="6020" fromJunction="J0" toJunction="J4" end="6080" vehsPerHour="122.53294339384313"/>
  <flow id="JF65757" begin="6080" fromJunction="J3" toJunction="J0" end="6140" vehsPerHour="442.44190210949114"/>
  <flow id="JF65758" begin="6080" fromJunction="J0" toJunction="J3" end="6140" vehsPerHour="174.8700934494584"/>
  <flow id="JF65759" begin="6080" fromJunction="J3" toJunction="J2" end="6140" vehsPerHour="41.48165231157857"/>
  <flow id="JF65760" begin="6080" fromJunction="J3" toJunction="J4" end="6140" vehsPerHour="2.9496663381496058"/>
  <flow id="JF65761" begin="6080" fromJunction="J0" toJunction="J2" end="6140" vehsPerHour="128.7651070849644"/>
  <flow id="JF65762" begin="6080" fromJunction="J0" toJunction="J4" end="6140" vehsPerHour="20.71625423963054"/>
  <flow id="JF65763" begin="6080" fromJunction="J2" toJunction="J4" end="6140" vehsPerHour="38.42752527208046"/>
  <flow id="JF65764" begin="6080" fromJunction="J4" toJunction="J2" end="6140" vehsPerHour="55.503513443060605"/>
  <flow id="JF65765" begin="6080" fromJunction="J2" toJunction="J3" end="6140" vehsPerHour="27.152278561691112"/>
  <flow id="JF65766" begin="6080" fromJunction="J2" toJunction="J0" end="6140" vehsPerHour="46.831147056872815"/>
  <flow id="JF65767" begin="6080" fromJunction="J4" toJunction="J3" end="6140" vehsPerHour="35.16890417671451"/>
  <flow id="JF65768" begin="6080" fromJunction="J4" toJunction="J0" end="6140" vehsPerHour="120.12242325363502"/>
  <flow id="JF65769" begin="6140" fromJunction="J3" toJunction="J0" end="6200" vehsPerHour="110.22747378011118"/>
  <flow id="JF65770" begin="6140" fromJunction="J0" toJunction="J3" end="6200" vehsPerHour="416.3283025263624"/>
  <flow id="JF65771" begin="6140" fromJunction="J3" toJunction="J2" end="6200" vehsPerHour="51.93571410131032"/>
  <flow id="JF65772" begin="6140" fromJunction="J3" toJunction="J4" end="6200" vehsPerHour="126.30158725798587"/>
  <flow id="JF65773" begin="6140" fromJunction="J0" toJunction="J2" end="6200" vehsPerHour="101.59296019643752"/>
  <flow id="JF65774" begin="6140" fromJunction="J0" toJunction="J4" end="6200" vehsPerHour="71.01443873175617"/>
  <flow id="JF65775" begin="6200" fromJunction="J3" toJunction="J0" end="6260" vehsPerHour="475.5124723492063"/>
  <flow id="JF65776" begin="6200" fromJunction="J0" toJunction="J3" end="6260" vehsPerHour="126.30043368980765"/>
  <flow id="JF65777" begin="6200" fromJunction="J3" toJunction="J2" end="6260" vehsPerHour="15.671640023784276"/>
  <flow id="JF65778" begin="6200" fromJunction="J3" toJunction="J4" end="6260" vehsPerHour="96.9437236730299"/>
  <flow id="JF65779" begin="6200" fromJunction="J0" toJunction="J2" end="6260" vehsPerHour="10.719548302848015"/>
  <flow id="JF65780" begin="6200" fromJunction="J0" toJunction="J4" end="6260" vehsPerHour="88.35220469237899"/>
  <flow id="JF65781" begin="6200" fromJunction="J2" toJunction="J4" end="6260" vehsPerHour="14.632034788122592"/>
  <flow id="JF65782" begin="6200" fromJunction="J4" toJunction="J2" end="6260" vehsPerHour="80.41216440851422"/>
  <flow id="JF65783" begin="6200" fromJunction="J2" toJunction="J3" end="6260" vehsPerHour="29.105243946632715"/>
  <flow id="JF65784" begin="6200" fromJunction="J2" toJunction="J0" end="6260" vehsPerHour="128.55118343201812"/>
  <flow id="JF65785" begin="6200" fromJunction="J4" toJunction="J3" end="6260" vehsPerHour="17.49305521576539"/>
  <flow id="JF65786" begin="6200" fromJunction="J4" toJunction="J0" end="6260" vehsPerHour="123.77489410074124"/>
  <flow id="JF65787" begin="6260" fromJunction="J3" toJunction="J0" end="6320" vehsPerHour="165.0484315695934"/>
  <flow id="JF65788" begin="6260" fromJunction="J0" toJunction="J3" end="6320" vehsPerHour="439.33693107010146"/>
  <flow id="JF65789" begin="6260" fromJunction="J3" toJunction="J2" end="6320" vehsPerHour="104.11684989002565"/>
  <flow id="JF65790" begin="6260" fromJunction="J3" toJunction="J4" end="6320" vehsPerHour="30.792235459141263"/>
  <flow id="JF65791" begin="6260" fromJunction="J0" toJunction="J2" end="6320" vehsPerHour="35.199530406649735"/>
  <flow id="JF65792" begin="6260" fromJunction="J0" toJunction="J4" end="6320" vehsPerHour="47.440635140785155"/>
  <flow id="JF65793" begin="6260" fromJunction="J2" toJunction="J4" end="6320" vehsPerHour="120.57299721577502"/>
  <flow id="JF65794" begin="6260" fromJunction="J4" toJunction="J2" end="6320" vehsPerHour="77.86641599668259"/>
  <flow id="JF65795" begin="6260" fromJunction="J2" toJunction="J3" end="6320" vehsPerHour="13.083984801558106"/>
  <flow id="JF65796" begin="6260" fromJunction="J2" toJunction="J0" end="6320" vehsPerHour="17.041595789448007"/>
  <flow id="JF65797" begin="6260" fromJunction="J4" toJunction="J3" end="6320" vehsPerHour="118.37918107373659"/>
  <flow id="JF65798" begin="6260" fromJunction="J4" toJunction="J0" end="6320" vehsPerHour="4.956983428239632"/>
  <flow id="JF65799" begin="6320" fromJunction="J3" toJunction="J0" end="6380" vehsPerHour="362.1278723533722"/>
  <flow id="JF65800" begin="6320" fromJunction="J0" toJunction="J3" end="6380" vehsPerHour="529.3594794947558"/>
  <flow id="JF65801" begin="6320" fromJunction="J3" toJunction="J2" end="6380" vehsPerHour="31.047433770262582"/>
  <flow id="JF65802" begin="6320" fromJunction="J3" toJunction="J4" end="6380" vehsPerHour="55.91759366762296"/>
  <flow id="JF65803" begin="6320" fromJunction="J0" toJunction="J2" end="6380" vehsPerHour="74.56401685853851"/>
  <flow id="JF65804" begin="6320" fromJunction="J0" toJunction="J4" end="6380" vehsPerHour="70.27467592606037"/>
  <flow id="JF65805" begin="6380" fromJunction="J3" toJunction="J0" end="6440" vehsPerHour="447.0590963500631"/>
  <flow id="JF65806" begin="6380" fromJunction="J0" toJunction="J3" end="6440" vehsPerHour="377.9738712540192"/>
  <flow id="JF65807" begin="6380" fromJunction="J3" toJunction="J2" end="6440" vehsPerHour="17.282262227703626"/>
  <flow id="JF65808" begin="6380" fromJunction="J3" toJunction="J4" end="6440" vehsPerHour="25.06954625986208"/>
  <flow id="JF65809" begin="6380" fromJunction="J0" toJunction="J2" end="6440" vehsPerHour="73.89307371892362"/>
  <flow id="JF65810" begin="6380" fromJunction="J0" toJunction="J4" end="6440" vehsPerHour="94.75210371240613"/>
  <flow id="JF65811" begin="6380" fromJunction="J2" toJunction="J4" end="6440" vehsPerHour="20.63380341683388"/>
  <flow id="JF65812" begin="6380" fromJunction="J4" toJunction="J2" end="6440" vehsPerHour="24.282285146823234"/>
  <flow id="JF65813" begin="6380" fromJunction="J2" toJunction="J3" end="6440" vehsPerHour="94.07878809774758"/>
  <flow id="JF65814" begin="6380" fromJunction="J2" toJunction="J0" end="6440" vehsPerHour="13.780369316277014"/>
  <flow id="JF65815" begin="6380" fromJunction="J4" toJunction="J3" end="6440" vehsPerHour="22.095225568667338"/>
  <flow id="JF65816" begin="6380" fromJunction="J4" toJunction="J0" end="6440" vehsPerHour="73.56146245121153"/>
  <flow id="JF65817" begin="6440" fromJunction="J3" toJunction="J0" end="6500" vehsPerHour="180.1221714963014"/>
  <flow id="JF65818" begin="6440" fromJunction="J0" toJunction="J3" end="6500" vehsPerHour="331.0534362832519"/>
  <flow id="JF65819" begin="6440" fromJunction="J3" toJunction="J2" end="6500" vehsPerHour="73.03088919637564"/>
  <flow id="JF65820" begin="6440" fromJunction="J3" toJunction="J4" end="6500" vehsPerHour="50.51226196974181"/>
  <flow id="JF65821" begin="6440" fromJunction="J0" toJunction="J2" end="6500" vehsPerHour="114.2352190892879"/>
  <flow id="JF65822" begin="6440" fromJunction="J0" toJunction="J4" end="6500" vehsPerHour="72.6289751869799"/>
  <flow id="JF65823" begin="6440" fromJunction="J2" toJunction="J4" end="6500" vehsPerHour="18.425152662671568"/>
  <flow id="JF65824" begin="6440" fromJunction="J4" toJunction="J2" end="6500" vehsPerHour="134.84597193142216"/>
  <flow id="JF65825" begin="6440" fromJunction="J2" toJunction="J3" end="6500" vehsPerHour="102.22085293954206"/>
  <flow id="JF65826" begin="6440" fromJunction="J2" toJunction="J0" end="6500" vehsPerHour="74.94316721727284"/>
  <flow id="JF65827" begin="6440" fromJunction="J4" toJunction="J3" end="6500" vehsPerHour="103.81655240498384"/>
  <flow id="JF65828" begin="6440" fromJunction="J4" toJunction="J0" end="6500" vehsPerHour="54.04656751120813"/>
  <flow id="JF65829" begin="6500" fromJunction="J3" toJunction="J0" end="6560" vehsPerHour="139.57139570855426"/>
  <flow id="JF65830" begin="6500" fromJunction="J0" toJunction="J3" end="6560" vehsPerHour="34.40242087670541"/>
  <flow id="JF65831" begin="6500" fromJunction="J3" toJunction="J2" end="6560" vehsPerHour="15.677100955571236"/>
  <flow id="JF65832" begin="6500" fromJunction="J3" toJunction="J4" end="6560" vehsPerHour="22.92169456729752"/>
  <flow id="JF65833" begin="6500" fromJunction="J0" toJunction="J2" end="6560" vehsPerHour="121.40116253049761"/>
  <flow id="JF65834" begin="6500" fromJunction="J0" toJunction="J4" end="6560" vehsPerHour="52.57568968772769"/>
  <flow id="JF65835" begin="6500" fromJunction="J2" toJunction="J4" end="6560" vehsPerHour="123.62027700892997"/>
  <flow id="JF65836" begin="6500" fromJunction="J4" toJunction="J2" end="6560" vehsPerHour="75.40490043557794"/>
  <flow id="JF65837" begin="6500" fromJunction="J2" toJunction="J3" end="6560" vehsPerHour="57.021447487507736"/>
  <flow id="JF65838" begin="6500" fromJunction="J2" toJunction="J0" end="6560" vehsPerHour="91.3960439496039"/>
  <flow id="JF65839" begin="6500" fromJunction="J4" toJunction="J3" end="6560" vehsPerHour="43.518897199178966"/>