<?xml version="1.0" encoding="UTF-8"?>
<routes xmlns:xsi="http://www.w3.org/2001/XMLSchema-instance" xsi:noNamespaceSchemaLocation="http://sumo.dlr.de/xsd/routes_file.xsd">
  <flow id="JF68133" begin="0" fromJunction="J3" toJunction="J0" end="5000" vehsPerHour="340.30118890323365"/>
  <flow id="JF68134" begin="0" fromJunction="J0" toJunction="J3" end="5000" vehsPerHour="303.56458290178426"/>
  <flow id="JF68135" begin="0" fromJunction="J3" toJunction="J2" end="5000" vehsPerHour="130.52887867757306"/>
  <flow id="JF68136" begin="0" fromJunction="J3" toJunction="J4" end="5000" vehsPerHour="102.83889098905627"/>
  <flow id="JF68137" begin="0" fromJunction="J0" toJunction="J2" end="5000" vehsPerHour="15.23525237234741"/>
  <flow id="JF68138" begin="0" fromJunction="J0" toJunction="J4" end="5000" vehsPerHour="125.00298849577794"/>
  <flow id="JF68139" begin="0" fromJunction="J2" toJunction="J4" end="5000" vehsPerHour="320.35244652092496"/>
  <flow id="JF68140" begin="0" fromJunction="J4" toJunction="J2" end="5000" vehsPerHour="79.22823525758916"/>
  <flow id="JF68141" begin="0" fromJunction="J2" toJunction="J3" end="5000" vehsPerHour="127.51523211806249"/>
  <flow id="JF68142" begin="0" fromJunction="J2" toJunction="J0" end="5000" vehsPerHour="100.40601032307865"/>
  <flow id="JF68143" begin="0" fromJunction="J4" toJunction="J3" end="5000" vehsPerHour="6.1189531570878755"/>
  <flow id="JF68144" begin="0" fromJunction="J4" toJunction="J0" end="5000" vehsPerHour="131.77537224208754"/>
  <flow id="JF68145" begin="5000" fromJunction="J3" toJunction="J0" end="5060" vehsPerHour="286.54051785909274"/>
  <flow id="JF68146" begin="5000" fromJunction="J0" toJunction="J3" end="5060" vehsPerHour="245.0247672914518"/>
  <flow id="JF68147" begin="5000" fromJunction="J3" toJunction="J2" end="5060" vehsPerHour="83.93072200565354"/>
  <flow id="JF68148" begin="5000" fromJunction="J3" toJunction="J4" end="5060" vehsPerHour="95.7147848785239"/>
  <flow id="JF68149" begin="5000" fromJunction="J0" toJunction="J2" end="5060" vehsPerHour="9.655092217147024"/>
  <flow id="JF68150" begin="5000" fromJunction="J0" toJunction="J4" end="5060" vehsPerHour="82.8973463242857"/>
  <flow id="JF68151" begin="5060" fromJunction="J3" toJunction="J0" end="5120" vehsPerHour="163.16011565543207"/>
  <flow id="JF68152" begin="5060" fromJunction="J0" toJunction="J3" end="5120" vehsPerHour="105.22330593389728"/>
  <flow id="JF68153" begin="5060" fromJunction="J3" toJunction="J2" end="5120" vehsPerHour="114.09603021954032"/>
  <flow id="JF68154" begin="5060" fromJunction="J3" toJunction="J4" end="5120" vehsPerHour="16.604146042548706"/>
  <flow id="JF68155" begin="5060" fromJunction="J0" toJunction="J2" end="5120" vehsPerHour="131.51573057675654"/>
  <flow id="JF68156" begin="5060" fromJunction="J0" toJunction="J4" end="5120" vehsPerHour="101.33142970025497"/>
  <flow id="JF68157" begin="5060" fromJunction="J2" toJunction="J4" end="5120" vehsPerHour="14.428346508082884"/>
  <flow id="JF68158" begin="5060" fromJunction="J4" toJunction="J2" end="5120" vehsPerHour="12.501182252835994"/>
  <flow id="JF68159" begin="5060" fromJunction="J2" toJunction="J3" end="5120" vehsPerHour="27.699887858568115"/>
  <flow id="JF68160" begin="5060" fromJunction="J2" toJunction="J0" end="5120" vehsPerHour="42.68213289835848"/>
  <flow id="JF68161" begin="5060" fromJunction="J4" toJunction="J3" end="5120" vehsPerHour="85.88002231249904"/>
  <flow id="JF68162" begin="5060" fromJunction="J4" toJunction="J0" end="5120" vehsPerHour="34.3333727840799"/>
  <flow id="JF68163" begin="5120" fromJunction="J3" toJunction="J0" end="5180" vehsPerHour="246.52671541825933"/>
  <flow id="JF68164" begin="5120" fromJunction="J0" toJunction="J3" end="5180" vehsPerHour="92.86278148777866"/>
  <flow id="JF68165" begin="5120" fromJunction="J3" toJunction="J2" end="5180" vehsPerHour="71.12370685219639"/>
  <flow id="JF68166" begin="5120" fromJunction="J3" toJunction="J4" end="5180" vehsPerHour="133.87159238791955"/>
  <flow id="JF68167" begin="5120" fromJunction="J0" toJunction="J2" end="5180" vehsPerHour="74.4901075312933"/>
  <flow id="JF68168" begin="5120" fromJunction="J0" toJunction="J4" end="5180" vehsPerHour="28.13312296707356"/>
  <flow id="JF68169" begin="5120" fromJunction="J2" toJunction="J4" end="5180" vehsPerHour="31.62269638767087"/>
  <flow id="JF68170" begin="5120" fromJunction="J4" toJunction="J2" end="5180" vehsPerHour="134.55279636409247"/>
  <flow id="JF68171" begin="5120" fromJunction="J2" toJunction="J3" end="5180" vehsPerHour="66.87903483435228"/>
  <flow id="JF68172" begin="5120" fromJunction="J2" toJunction="J0" end="5180" vehsPerHour="131.99970448183777"/>
  <flow id="JF68173" begin="5120" fromJunction="J4" toJunction="J3" end="5180" vehsPerHour="22.09590945595263"/>
  <flow id="JF68174" begin="5120" fromJunction="J4" toJunction="J0" end="5180" vehsPerHour="118.79703270609662"/>
  <flow id="JF68175" begin="5180" fromJunction="J3" toJunction="J0" end="5240" vehsPerHour="132.31746923953403"/>
  <flow id="JF68176" begin="5180" fromJunction="J0" toJunction="J3" end="5240" vehsPerHour="233.7168740338378"/>
  <flow id="JF68177" begin="5180" fromJunction="J3" toJunction="J2" end="5240" vehsPerHour="131.94056428660141"/>
  <flow id="JF68178" begin="5180" fromJunction="J3" toJunction="J4" end="5240" vehsPerHour="62.711903109436655"/>
  <flow id="JF68179" begin="5180" fromJunction="J0" toJunction="J2" end="5240" vehsPerHour="66.77106102392376"/>
  <flow id="JF68180" begin="5180" fromJunction="J0" toJunction="J4" end="5240" vehsPerHour="134.45355297466463"/>
  <flow id="JF68181" begin="5180" fromJunction="J2" toJunction="J4" end="5240" vehsPerHour="65.22244010216032"/>
  <flow id="JF68182" begin="5180" fromJunction="J4" toJunction="J2" end="5240" vehsPerHour="6.276167965486727"/>
  <flow id="JF68183" begin="5180" fromJunction="J2" toJunction="J3" end="5240" vehsPerHour="108.71345775619382"/>
  <flow id="JF68184" begin="5180" fromJunction="J2" toJunction="J0" end="5240" vehsPerHour="136.52525062327655"/>
  <flow id="JF68185" begin="5180" fromJunction="J4" toJunction="J3" end="5240" vehsPerHour="127.62212612725769"/>
  <flow id="JF68186" begin="5180" fromJunction="J4" toJunction="J0" end="5240" vehsPerHour="126.91045020575298"/>
  <flow id="JF68187" begin="5240" fromJunction="J3" toJunction="J0" end="5300" vehsPerHour="424.0011462062705"/>
  <flow id="JF68188" begin="5240" fromJunction="J0" toJunction="J3" end="5300" vehsPerHour="527.5256135400399"/>
  <flow id="JF68189" begin="5240" fromJunction="J3" toJunction="J2" end="5300" vehsPerHour="59.56235018540427"/>
  <flow id="JF68190" begin="5240" fromJunction="J3" toJunction="J4" end="5300" vehsPerHour="84.06006018260618"/>
  <flow id="JF68191" begin="5240" fromJunction="J0" toJunction="J2" end="5300" vehsPerHour="92.1089977730728"/>
  <flow id="JF68192" begin="5240" fromJunction="J0" toJunction="J4" end="5300" vehsPerHour="99.83891791899718"/>
  <flow id="JF68193" begin="5240" fromJunction="J2" toJunction="J4" end="5300" vehsPerHour="91.43812409108051"/>
  <flow id="JF68194" begin="5240" fromJunction="J4" toJunction="J2" end="5300" vehsPerHour="44.429699688015845"/>
  <flow id="JF68195" begin="5240" fromJunction="J2" toJunction="J3" end="5300" vehsPerHour="9.396938920161032"/>
  <flow id="JF68196" begin="5240" fromJunction="J2" toJunction="J0" end="5300" vehsPerHour="134.49133803014803"/>
  <flow id="JF68197" begin="5240" fromJunction="J4" toJunction="J3" end="5300" vehsPerHour="69.02389913528668"/>
  <flow id="JF68198" begin="5240" fromJunction="J4" toJunction="J0" end="5300" vehsPerHour="83.67146070166844"/>
  <flow id="JF68199" begin="5300" fromJunction="J3" toJunction="J0" end="5360" vehsPerHour="2.713433811333682"/>
  <flow id="JF68200" begin="5300" fromJunction="J0" toJunction="J3" end="5360" vehsPerHour="109.47925485120437"/>
  <flow id="JF68201" begin="5300" fromJunction="J3" toJunction="J2" end="5360" vehsPerHour="62.63304258765983"/>
  <flow id="JF68202" begin="5300" fromJunction="J3" toJunction="J4" end="5360" vehsPerHour="83.51017837246187"/>
  <flow id="JF68203" begin="5300" fromJunction="J0" toJunction="J2" end="5360" vehsPerHour="2.2154502599956354"/>
  <flow id="JF68204" begin="5300" fromJunction="J0" toJunction="J4" end="5360" vehsPerHour="1.807103911768387"/>
  <flow id="JF68205" begin="5300" fromJunction="J2" toJunction="J4" end="5360" vehsPerHour="120.14457439236092"/>
  <flow id="JF68206" begin="5300" fromJunction="J4" toJunction="J2" end="5360" vehsPerHour="34.47968428257723"/>
  <flow id="JF68207" begin="5300" fromJunction="J2" toJunction="J3" end="5360" vehsPerHour="4.9983922842977275"/>
  <flow id="JF68208" begin="5300" fromJunction="J2" toJunction="J0" end="5360" vehsPerHour="93.75250270694357"/>
  <flow id="JF68209" begin="5300" fromJunction="J4" toJunction="J3" end="5360" vehsPerHour="28.273744753402507"/>
  <flow id="JF68210" begin="5300" fromJunction="J4" toJunction="J0" end="5360" vehsPerHour="93.97968623408941"/>
  <flow id="JF68211" begin="5360" fromJunction="J3" toJunction="J0" end="5420" vehsPerHour="358.06430831947125"/>
  <flow id="JF68212" begin="5360" fromJunction="J0" toJunction="J3" end="5420" vehsPerHour="182.78773140734853"/>
  <flow id="JF68213" begin="5360" fromJunction="J3" toJunction="J2" end="5420" vehsPerHour="90.62490249502335"/>
  <flow id="JF68214" begin="5360" fromJunction="J3" toJunction="J4" end="5420" vehsPerHour="75.9894882472754"/>
  <flow id="JF68215" begin="5360" fromJunction="J0" toJunction="J2" end="5420" vehsPerHour="34.391324241496946"/>
  <flow id="JF68216" begin="5360" fromJunction="J0" toJunction="J4" end="5420" vehsPerHour="3.922129225814717"/>
  <flow id="JF68217" begin="5360" fromJunction="J2" toJunction="J4" end="5420" vehsPerHour="88.84211837860023"/>
  <flow id="JF68218" begin="5360" fromJunction="J4" toJunction="J2" end="5420" vehsPerHour="84.29873550166259"/>
  <flow id="JF68219" begin="5360" fromJunction="J2" toJunction="J3" end="5420" vehsPerHour="50.23367843020171"/>
  <flow id="JF68220" begin="5360" fromJunction="J2" toJunction="J0" end="5420" vehsPerHour="132.8024168987416"/>
  <flow id="JF68221" begin="5360" fromJunction="J4" toJunction="J3" end="5420" vehsPerHour="59.557865463690455"/>
  <flow id="JF68222" begin="5360" fromJunction="J4" toJunction="J0" end="5420" vehsPerHour="109.51699364081578"/>
  <flow id="JF68223" begin="5420" fromJunction="J3" toJunction="J0" end="5480" vehsPerHour="196.10577316888035"/>
  <flow id="JF68224" begin="5420" fromJunction="J0" toJunction="J3" end="5480" vehsPerHour="518.3670376854033"/>
  <flow id="JF68225" begin="5420" fromJunction="J3" toJunction="J2" end="5480" vehsPerHour="59.3729317722614"/>
  <flow id="JF68226" begin="5420" fromJunction="J3" toJunction="J4" end="5480" vehsPerHour="37.140721937606834"/>
  <flow id="JF68227" begin="5420" fromJunction="J0" toJunction="J2" end="5480" vehsPerHour="107.81939589666692"/>
  <flow id="JF68228" begin="5420" fromJunction="J0" toJunction="J4" end="5480" vehsPerHour="71.38845819339916"/>
  <flow id="JF68229" begin="5420" fromJunction="J2" toJunction="J4" end="5480" vehsPerHour="80.08571075148586"/>
  <flow id="JF68230" begin="5420" fromJunction="J4" toJunction="J2" end="5480" vehsPerHour="120.71394200801842"/>
  <flow id="JF68231" begin="5420" fromJunction="J2" toJunction="J3" end="5480" vehsPerHour="24.091215312535322"/>
  <flow id="JF68232" begin="5420" fromJunction="J2" toJunction="J0" end="5480" vehsPerHour="41.02111019855147"/>
  <flow id="JF68233" begin="5420" fromJunction="J4" toJunction="J3" end="5480" vehsPerHour="71.62678184935712"/>
  <flow id="JF68234" begin="5420" fromJunction="J4" toJunction="J0" end="5480" vehsPerHour="86.21863242100623"/>
  <flow id="JF68235" begin="5480" fromJunction="J3" toJunction="J0" end="5540" vehsPerHour="230.36584360405044"/>
  <flow id="JF68236" begin="5480" fromJunction="J0" toJunction="J3" end="5540" vehsPerHour="24.701665031298187"/>
  <flow id="JF68237" begin="5480" fromJunction="J3" toJunction="J2" end="5540" vehsPerHour="76.09948013361057"/>
  <flow id="JF68238" begin="5480" fromJunction="J3" toJunction="J4" end="5540" vehsPerHour="66.03503598419067"/>
  <flow id="JF68239" begin="5480" fromJunction="J0" toJunction="J2" end="5540" vehsPerHour="0.7139492121979106"/>
  <flow id="JF68240" begin="5480" fromJunction="J0" toJunction="J4" end="5540" vehsPerHour="17.61283719136259"/>
  <flow id="JF68241" begin="5540" fromJunction="J3" toJunction="J0" end="5600" vehsPerHour="213.26482418457906"/>
  <flow id="JF68242" begin="5540" fromJunction="J0" toJunction="J3" end="5600" vehsPerHour="251.1531188906551"/>
  <flow id="JF68243" begin="5540" fromJunction="J3" toJunction="J2" end="5600" vehsPerHour="70.98421059964681"/>
  <flow id="JF68244" begin="5540" fromJunction="J3" toJunction="J4" end="5600" vehsPerHour="38.4551655267594"/>
  <flow id="JF68245" begin="5540" fromJunction="J0" toJunction="J2" end="5600" vehsPerHour="12.604016500463036"/>
  <flow id="JF68246" begin="5540" fromJunction="J0" toJunction="J4" end="5600" vehsPerHour="2.291601710210771"/>
  <flow id="JF68247" begin="5540" fromJunction="J2" toJunction="J4" end="5600" vehsPerHour="4.979135347036427"/>
  <flow id="JF68248" begin="5540" fromJunction="J4" toJunction="J2" end="5600" vehsPerHour="86.58058105403839"/>
  <flow id="JF68249" begin="5540" fromJunction="J2" toJunction="J3" end="5600" vehsPerHour="63.61937865420515"/>
  <flow id="JF68250" begin="5540" fromJunction="J2" toJunction="J0" end="5600" vehsPerHour="16.038331789457345"/>
  <flow id="JF68251" begin="5540" fromJunction="J4" toJunction="J3" end="5600" vehsPerHour="71.30026893085903"/>
  <flow id="JF68252" begin="5540" fromJunction="J4" toJunction="J0" end="5600" vehsPerHour="6.496317893984606"/>
  <flow id="JF68253" begin="5600" fromJunction="J3" toJunction="J0" end="5660" vehsPerHour="255.52886270600516"/>
  <flow id="JF68254" begin="5600" fromJunction="J0" toJunction="J3" end="5660" vehsPerHour="310.13489987095846"/>
  <flow id="JF68255" begin="5600" fromJunction="J3" toJunction="J2" end="5660" vehsPerHour="16.60350342285853"/>
  <flow id="JF68256" begin="5600" fromJunction="J3" toJunction="J4" end="5660" vehsPerHour="61.10244032558113"/>
  <flow id="JF68257" begin="5600" fromJunction="J0" toJunction="J2" end="5660" vehsPerHour="87.46038190806279"/>
  <flow id="JF68258" begin="5600" fromJunction="J0" toJunction="J4" end="5660" vehsPerHour="50.417253409210346"/>
  <flow id="JF68259" begin="5600" fromJunction="J2" toJunction="J4" end="5660" vehsPerHour="42.68692754738982"/>
  <flow id="JF68260" begin="5600" fromJunction="J4" toJunction="J2" end="5660" vehsPerHour="43.966994674393305"/>
  <flow id="JF68261" begin="5600" fromJunction="J2" toJunction="J3" end="5660" vehsPerHour="13.005297065156487"/>
  <flow id="JF68262" begin="5600" fromJunction="J2" toJunction="J0" end="5660" vehsPerHour="125.61154610280359"/>
  <flow id="JF68263" begin="5600" fromJunction="J4" toJunction="J3" end="5660" vehsPerHour="87.16340023857148"/>
  <flow id="JF68264" begin="5600" fromJunction="J4" toJunction="J0" end="5660" vehsPerHour="71.68684474813735"/>
  <flow id="JF68265" begin="5660" fromJunction="J3" toJunction="J0" end="5720" vehsPerHour="308.9439170854299"/>
  <flow id="JF68266" begin="5660" fromJunction="J0" toJunction="J3" end="5720" vehsPerHour="369.23585209312165"/>
  <flow id="JF68267" begin="5660" fromJunction="J3" toJunction="J2" end="5720" vehsPerHour="79.84222934443972"/>
  <flow id="JF68268" begin="5660" fromJunction="J3" toJunction="J4" end="5720" vehsPerHour="90.1618077108363"/>
  <flow id="JF68269" begin="5660" fromJunction="J0" toJunction="J2" end="5720" vehsPerHour="42.41036509009468"/>
  <flow id="JF68270" begin="5660" fromJunction="J0" toJunction="J4" end="5720" vehsPerHour="19.18671996084844"/>
  <flow id="JF68271" begin="5660" fromJunction="J2" toJunction="J4" end="5720" vehsPerHour="5.70817855818323"/>
  <flow id="JF68272" begin="5660" fromJunction="J4" toJunction="J2" end="5720" vehsPerHour="24.538372468080006"/>
  <flow id="JF68273" begin="5660" fromJunction="J2" toJunction="J3" end="5720" vehsPerHour="113.32803651280031"/>
  <flow id="JF68274" begin="5660" fromJunction="J2" toJunction="J0" end="5720" vehsPerHour="129.35472522957122"/>
  <flow id="JF68275" begin="5660" fromJunction="J4" toJunction="J3" end="5720" vehsPerHour="12.563376977191202"/>
  <flow id="JF68276" begin="5660" fromJunction="J4" toJunction="J0" end="5720" vehsPerHour="128.33905848004582"/>
  <flow id="JF68277" begin="5720" fromJunction="J3" toJunction="J0" end="5780" vehsPerHour="23.10288537767484"/>
  <flow id="JF68278" begin="5720" fromJunction="J0" toJunction="J3" end="5780" vehsPerHour="473.14818252692174"/>
  <flow id="JF68279" begin="5720" fromJunction="J3" toJunction="J2" end="5780" vehsPerHour="1.6891955032351398"/>
  <flow id="JF68280" begin="5720" fromJunction="J3" toJunction="J4" end="5780" vehsPerHour="12.7277019435927"/>
  <flow id="JF68281" begin="5720" fromJunction="J0" toJunction="J2" end="5780" vehsPerHour="70.89695996175654"/>
  <flow id="JF68282" begin="5720" fromJunction="J0" toJunction="J4" end="5780" vehsPerHour="124.24323085455849"/>
  <flow id="JF68283" begin="5720" fromJunction="J2" toJunction="J4" end="5780" vehsPerHour="48.47234209072666"/>
  <flow id="JF68284" begin="5720" fromJunction="J4" toJunction="J2" end="5780" vehsPerHour="118.99424252150462"/>
  <flow id="JF68285" begin="5720" fromJunction="J2" toJunction="J3" end="5780" vehsPerHour="2.4195341313557877"/>
  <flow id="JF68286" begin="5720" fromJunction="J2" toJunction="J0" end="5780" vehsPerHour="96.17489095482935"/>
  <flow id="JF68287" begin="5720" fromJunction="J4" toJunction="J3" end="5780" vehsPerHour="3.6156173462068026"/>
  <flow id="JF68288" begin="5720" fromJunction="J4" toJunction="J0" end="5780" vehsPerHour="59.1870719142782"/>
  <flow id="JF68289" begin="5780" fromJunction="J3" toJunction="J0" end="5840" vehsPerHour="416.6645569664573"/>
  <flow id="JF68290" begin="5780" fromJunction="J0" toJunction="J3" end="5840" vehsPerHour="248.38255013546691"/>
  <flow id="JF68291" begin="5780" fromJunction="J3" toJunction="J2" end="5840" vehsPerHour="22.10926432893614"/>
  <flow id="JF68292" begin="5780" fromJunction="J3" toJunction="J4" end="5840" vehsPerHour="95.85248380330374"/>
  <flow id="JF68293" begin="5780" fromJunction="J0" toJunction="J2" end="5840" vehsPerHour="26.463729445800276"/>
  <flow id="JF68294" begin="5780" fromJunction="J0" toJunction="J4" end="5840" vehsPerHour="57.699810033122574"/>
  <flow id="JF68295" begin="5780" fromJunction="J2" toJunction="J4" end="5840" vehsPerHour="26.604657735680092"/>
  <flow id="JF68296" begin="5780" fromJunction="J4" toJunction="J2" end="5840" vehsPerHour="42.915997357581716"/>
  <flow id="JF68297" begin="5780" fromJunction="J2" toJunction="J3" end="5840" vehsPerHour="66.40595894766254"/>
  <flow id="JF68298" begin="5780" fromJunction="J2" toJunction="J0" end="5840" vehsPerHour="40.222525970857426"/>
  <flow id="JF68299" begin="5780" fromJunction="J4" toJunction="J3" end="5840" vehsPerHour="70.69499423683389"/>
  <flow id="JF68300" begin="5780" fromJunction="J4" toJunction="J0" end="5840" vehsPerHour="107.17110660004302"/>
  <flow id="JF68301" begin="5840" fromJunction="J3" toJunction="J0" end="5900" vehsPerHour="144.14316717224037"/>
  <flow id="JF68302" begin="5840" fromJunction="J0" toJunction="J3" end="5900" vehsPerHour="55.67298425259057"/>
  <flow id="JF68303" begin="5840" fromJunction="J3" toJunction="J2" end="5900" vehsPerHour="0.3975260090521494"/>
  <flow id="JF68304" begin="5840" fromJunction="J3" toJunction="J4" end="5900" vehsPerHour="118.35637458828397"/>
  <flow id="JF68305" begin="5840" fromJunction="J0" toJunction="J2" end="5900" vehsPerHour="62.93514568385167"/>
  <flow id="JF68306" begin="5840" fromJunction="J0" toJunction="J4" end="5900" vehsPerHour="84.08408346697053"/>
  <flow id="JF68307" begin="5900" fromJunction="J3" toJunction="J0" end="5960" vehsPerHour="112.16212729317343"/>
  <flow id="JF68308" begin="5900" fromJunction="J0" toJunction="J3" end="5960" vehsPerHour="256.4130197597312"/>
  <flow id="JF68309" begin="5900" fromJunction="J3" toJunction="J2" end="5960" vehsPerHour="50.19061039482516"/>
  <flow id="JF68310" begin="5900" fromJunction="J3" toJunction="J4" end="5960" vehsPerHour="123.78073334904468"/>
  <flow id="JF68311" begin="5900" fromJunction="J0" toJunction="J2" end="5960" vehsPerHour="35.541592409574335"/>
  <flow id="JF68312" begin="5900" fromJunction="J0" toJunction="J4" end="5960" vehsPerHour="98.36632128629198"/>
  <flow id="JF68313" begin="5960" fromJunction="J3" toJunction="J0" end="6020" vehsPerHour="211.51987939114494"/>
  <flow id="JF68314" begin="5960" fromJunction="J0" toJunction="J3" end="6020" vehsPerHour="67.24679164036769"/>
  <flow id="JF68315" begin="5960" fromJunction="J3" toJunction="J2" end="6020" vehsPerHour="92.27898598399354"/>
  <flow id="JF68316" begin="5960" fromJunction="J3" toJunction="J4" end="6020" vehsPerHour="121.1690367544953"/>
  <flow id="JF68317" begin="5960" fromJunction="J0" toJunction="J2" end="6020" vehsPerHour="30.390705620018466"/>
  <flow id="JF68318" begin="5960" fromJunction="J0" toJunction="J4" end="6020" vehsPerHour="20.020668456752986"/>
  <flow id="JF68319" begin="5960" fromJunction="J2" toJunction="J4" end="6020" vehsPerHour="14.316496497281234"/>
  <flow id="JF68320" begin="5960" fromJunction="J4" toJunction="J2" end="6020" vehsPerHour="23.126216564202522"/>
  <flow id="JF68321" begin="5960" fromJunction="J2" toJunction="J3" end="6020" vehsPerHour="117.9719503541029"/>
  <flow id="JF68322" begin="5960" fromJunction="J2" toJunction="J0" end="6020" vehsPerHour="11.28955718519133"/>
  <flow id="JF68323" begin="5960" fromJunction="J4" toJunction="J3" end="6020" vehsPerHour="19.876628303347644"/>
  <flow id="JF68324" begin="5960" fromJunction="J4" toJunction="J0" end="6020" vehsPerHour="135.62876026721082"/>
  <flow id="JF68325" begin="6020" fromJunction="J3" toJunction="J0" end="6080" vehsPerHour="445.36587119622874"/>
  <flow id="JF68326" begin="6020" fromJunction="J0" toJunction="J3" end="6080" vehsPerHour="352.54377671427"/>
  <flow id="JF68327" begin="6020" fromJunction="J3" toJunction="J2" end="6080" vehsPerHour="84.60774328037638"/>
  <flow id="JF68328" begin="6020" fromJunction="J3" toJunction="J4" end="6080" vehsPerHour="73.65882233991789"/>
  <flow id="JF68329" begin="6020" fromJunction="J0" toJunction="J2" end="6080" vehsPerHour="33.85114400548351"/>
  <flow id="JF68330" begin="6020" fromJunction="J0" toJunction="J4" end="6080" vehsPerHour="22.007450060655614"/>
  <flow id="JF68331" begin="6080" fromJunction="J3" toJunction="J0" end="6140" vehsPerHour="378.2867843556309"/>
  <flow id="JF68332" begin="6080" fromJunction="J0" toJunction="J3" end="6140" vehsPerHour="543.6405451674375"/>
  <flow id="JF68333" begin="6080" fromJunction="J3" toJunction="J2" end="6140" vehsPerHour="103.41253246696947"/>
  <flow id="JF68334" begin="6080" fromJunction="J3" toJunction="J4" end="6140" vehsPerHour="11.79195704790891"/>
  <flow id="JF68335" begin="6080" fromJunction="J0" toJunction="J2" end="6140" vehsPerHour="32.10987844387811"/>
  <flow id="JF68336" begin="6080" fromJunction="J0" toJunction="J4" end="6140" vehsPerHour="111.86678189648501"/>
  <flow id="JF68337" begin="6080" fromJunction="J2" toJunction="J4" end="6140" vehsPerHour="129.82265832898275"/>
  <flow id="JF68338" begin="6080" fromJunction="J4" toJunction="J2" end="6140" vehsPerHour="61.40698040065614"/>
  <flow id="JF68339" begin="6080" fromJunction="J2" toJunction="J3" end="6140" vehsPerHour="0.6125579774898788"/>
  <flow id="JF68340" begin="6080" fromJunction="J2" toJunction="J0" end="6140" vehsPerHour="121.99051483813801"/>
  <flow id="JF68341" begin="6080" fromJunction="J4" toJunction="J3" end="6140" vehsPerHour="19.92455836046099"/>
  <flow id="JF68342" begin="6080" fromJunction="J4" toJunction="J0" end="6140" vehsPerHour="62.079346655613364"/>
  <flow id="JF68343" begin="6140" fromJunction="J3" toJunction="J0" end="6200" vehsPerHour="343.447626085888"/>
  <flow id="JF68344" begin="6140" fromJunction="J0" toJunction="J3" end="6200" vehsPerHour="342.241398070674"/>
  <flow id="JF68345" begin="6140" fromJunction="J3" toJunction="J2" end="6200" vehsPerHour="70.40106277339322"/>
  <flow id="JF68346" begin="6140" fromJunction="J3" toJunction="J4" end="6200" vehsPerHour="73.66160504223325"/>
  <flow id="JF68347" begin="6140" fromJunction="J0" toJunction="J2" end="6200" vehsPerHour="24.314272617100524"/>
  <flow id="JF68348" begin="6140" fromJunction="J0" toJunction="J4" end="6200" vehsPerHour="127.37703034195988"/>
  <flow id="JF68349" begin="6200" fromJunction="J3" toJunction="J0" end="6260" vehsPerHour="476.48179029389934"/>
  <flow id="JF68350" begin="6200" fromJunction="J0" toJunction="J3" end="6260" vehsPerHour="233.55569732032086"/>
  <flow id="JF68351" begin="6200" fromJunction="J3" toJunction="J2" end="6260" vehsPerHour="133.31709930195262"/>
  <flow id="JF68352" begin="6200" fromJunction="J3" toJunction="J4" end="6260" vehsPerHour="79.1869919281324"/>
  <flow id="JF68353" begin="6200" fromJunction="J0" toJunction="J2" end="6260" vehsPerHour="19.46679776518797"/>
  <flow id="JF68354" begin="6200" fromJunction="J0" toJunction="J4" end="6260" vehsPerHour="20.470910830646694"/>
  <flow id="JF68355" begin="6200" fromJunction="J2" toJunction="J4" end="6260" vehsPerHour="122.59861545304017"/>
  <flow id="JF68356" begin="6200" fromJunction="J4" toJunction="J2" end="6260" vehsPerHour="79.60273358901755"/>
  <flow id="JF68357" begin="6200" fromJunction="J2" toJunction="J3" end="6260" vehsPerHour="38.695009254074975"/>
  <flow id="JF68358" begin="6200" fromJunction="J2" toJunction="J0" end="6260" vehsPerHour="83.5764737854941"/>
  <flow id="JF68359" begin="6200" fromJunction="J4" toJunction="J3" end="6260" vehsPerHour="23.756659692907128"/>
  <flow id="JF68360" begin="6200" fromJunction="J4" toJunction="J0" end="6260" vehsPerHour="96.5998825128837"/>
  <flow id="JF68361" begin="6260" fromJunction="J3" toJunction="J0" end="6320" vehsPerHour="416.82850643038716"/>
  <flow id="JF68362" begin="6260" fromJunction="J0" toJunction="J3" end="6320" vehsPerHour="351.72216077364027"/>
  <flow id="JF68363" begin="6260" fromJunction="J3" toJunction="J2" end="6320" vehsPerHour="112.97058798205371"/>
  <flow id="JF68364" begin="6260" fromJunction="J3" toJunction="J4" end="6320" vehsPerHour="75.31030784124142"/>
  <flow id="JF68365" begin="6260" fromJunction="J0" toJunction="J2" end="6320" vehsPerHour="64.93161314947533"/>
  <flow id="JF68366" begin="6260" fromJunction="J0" toJunction="J4" end="6320" vehsPerHour="39.34633085391549"/>
  <flow id="JF68367" begin="6260" fromJunction="J2" toJunction="J4" end="6320" vehsPerHour="10.408346999787954"/>
  <flow id="JF68368" begin="6260" fromJunction="J4" toJunction="J2" end="6320" vehsPerHour="112.35493444591447"/>
  <flow id="JF68369" begin="6260" fromJunction="J2" toJunction="J3" end="6320" vehsPerHour="117.51868148518219"/>
  <flow id="JF68370" begin="6260" fromJunction="J2" toJunction="J0" end="6320" vehsPerHour="87.3058932288579"/>
  <flow id="JF68371" begin="6260" fromJunction="J4" toJunction="J3" end="6320" vehsPerHour="118.5327915867876"/>
  <flow id="JF68372" begin="6260" fromJunction="J4" toJunction="J0" end="6320" vehsPerHour="39.00935195670565"/>
  <flow id="JF68373" begin="6320" fromJunction="J3" toJunction="J0" end="6380" vehsPerHour="497.50213853118856"/>
  <flow id="JF68374" begin="6320" fromJunction="J0" toJunction="J3" end="6380" vehsPerHour="229.1885187899642"/>
  <flow id="JF68375" begin="6320" fromJunction="J3" toJunction="J2" end="6380" vehsPerHour="24.494278244395908"/>
  <flow id="JF68376" begin="6320" fromJunction="J3" toJunction="J4" end="6380" vehsPerHour="100.21819255989746"/>
  <flow id="JF68377" begin="6320" fromJunction="J0" toJunction="J2" end="6380" vehsPerHour="106.17888534582018"/>
  <flow id="JF68378" begin="6320" fromJunction="J0" toJunction="J4" end="6380" vehsPerHour="123.76342289824203"/>
  <flow id="JF68379" begin="6320" fromJunction="J2" toJunction="J4" end="6380" vehsPerHour="116.58192105164157"/>
  <flow id="JF68380" begin="6320" fromJunction="J4" toJunction="J2" end="6380" vehsPerHour="134.99803104260053"/>
  <flow id="JF68381" begin="6320" fromJunction="J2" toJunction="J3" end="6380" vehsPerHour="134.66725976149175"/>
  <flow id="JF68382" begin="6320" fromJunction="J2" toJunction="J0" end="6380" vehsPerHour="97.74010606359163"/>
  <flow id="JF68383" begin="6320" fromJunction="J4" toJunction="J3" end="6380" vehsPerHour="119.67238580359344"/>
  <flow id="JF68384" begin="6320" fromJunction="J4" toJunction="J0" end="6380" vehsPerHour="55.81021725727591"/>
  <flow id="JF68385" begin="6380" fromJunction="J3" toJunction="J0" end="6440" vehsPerHour="299.74259891832804"/>
  <flow id="JF68386" begin="6380" fromJunction="J0" toJunction="J3" end="6440" vehsPerHour="352.1395163267541"/>
  <flow id="JF68387" begin="6380" fromJunction="J3" toJunction="J2" end="6440" vehsPerHour="129.09922463721398"/>
  <flow id="JF68388" begin="6380" fromJunction="J3" toJunction="J4" end="6440" vehsPerHour="61.74350370322221"/>
  <flow id="JF68389" begin="6380" fromJunction="J0" toJunction="J2" end="6440" vehsPerHour="33.474272184059764"/>
  <flow id="JF68390" begin="6380" fromJunction="J0" toJunction="J4" end="6440" vehsPerHour="27.31798495789153"/>
  <flow id="JF68391" begin="6380" fromJunction="J2" toJunction="J4" end="6440" vehsPerHour="82.65324857485817"/>
  <flow id="JF68392" begin="6380" fromJunction="J4" toJunction="J2" end="6440" vehsPerHour="14.320610641187162"/>
  <flow id="JF68393" begin="6380" fromJunction="J2" toJunction="J3" end="6440" vehsPerHour="93.82106013174763"/>
  <flow id="JF68394" begin="6380" fromJunction="J2" toJunction="J0" end="6440" vehsPerHour="122.03166910859242"/>
  <flow id="JF68395" begin="6380" fromJunction="J4" toJunction="J3" end="6440" vehsPerHour="134.49060025831835"/>