<?xml version="1.0" encoding="UTF-8"?>
<routes xmlns:xsi="http://www.w3.org/2001/XMLSchema-instance" xsi:noNamespaceSchemaLocation="http://sumo.dlr.de/xsd/routes_file.xsd">
  <flow id="JF63885" begin="0" fromJunction="J3" toJunction="J0" end="5000" vehsPerHour="516.9288719647145"/>
  <flow id="JF63886" begin="0" fromJunction="J0" toJunction="J3" end="5000" vehsPerHour="797.0401672279456"/>
  <flow id="JF63887" begin="0" fromJunction="J3" toJunction="J2" end="5000" vehsPerHour="38.10093799000362"/>
  <flow id="JF63888" begin="0" fromJunction="J3" toJunction="J4" end="5000" vehsPerHour="133.29407750243604"/>
  <flow id="JF63889" begin="0" fromJunction="J0" toJunction="J2" end="5000" vehsPerHour="44.4855785466459"/>
  <flow id="JF63890" begin="0" fromJunction="J0" toJunction="J4" end="5000" vehsPerHour="91.71046917307646"/>
  <flow id="JF63891" begin="0" fromJunction="J2" toJunction="J4" end="5000" vehsPerHour="273.6457245961219"/>
  <flow id="JF63892" begin="0" fromJunction="J4" toJunction="J2" end="5000" vehsPerHour="314.24546264147585"/>
  <flow id="JF63893" begin="0" fromJunction="J2" toJunction="J3" end="5000" vehsPerHour="70.50196415775255"/>
  <flow id="JF63894" begin="0" fromJunction="J2" toJunction="J0" end="5000" vehsPerHour="36.61464797919484"/>
  <flow id="JF63895" begin="0" fromJunction="J4" toJunction="J3" end="5000" vehsPerHour="56.64937680426766"/>
  <flow id="JF63896" begin="0" fromJunction="J4" toJunction="J0" end="5000" vehsPerHour="125.45193109962548"/>
  <flow id="JF63897" begin="5000" fromJunction="J3" toJunction="J0" end="5060" vehsPerHour="276.73434564813994"/>
  <flow id="JF63898" begin="5000" fromJunction="J0" toJunction="J3" end="5060" vehsPerHour="50.097302860928544"/>
  <flow id="JF63899" begin="5000" fromJunction="J3" toJunction="J2" end="5060" vehsPerHour="129.67200918284345"/>
  <flow id="JF63900" begin="5000" fromJunction="J3" toJunction="J4" end="5060" vehsPerHour="70.64050910511808"/>
  <flow id="JF63901" begin="5000" fromJunction="J0" toJunction="J2" end="5060" vehsPerHour="79.74677468615893"/>
  <flow id="JF63902" begin="5000" fromJunction="J0" toJunction="J4" end="5060" vehsPerHour="130.69717821992106"/>
  <flow id="JF63903" begin="5000" fromJunction="J2" toJunction="J4" end="5060" vehsPerHour="93.35738310355138"/>
  <flow id="JF63904" begin="5000" fromJunction="J4" toJunction="J2" end="5060" vehsPerHour="46.988164604615974"/>
  <flow id="JF63905" begin="5000" fromJunction="J2" toJunction="J3" end="5060" vehsPerHour="127.4346587009748"/>
  <flow id="JF63906" begin="5000" fromJunction="J2" toJunction="J0" end="5060" vehsPerHour="2.0858038557355907"/>
  <flow id="JF63907" begin="5000" fromJunction="J4" toJunction="J3" end="5060" vehsPerHour="104.17771130678928"/>
  <flow id="JF63908" begin="5000" fromJunction="J4" toJunction="J0" end="5060" vehsPerHour="79.43962720633093"/>
  <flow id="JF63909" begin="5060" fromJunction="J3" toJunction="J0" end="5120" vehsPerHour="319.16279246836905"/>
  <flow id="JF63910" begin="5060" fromJunction="J0" toJunction="J3" end="5120" vehsPerHour="379.1418996229222"/>
  <flow id="JF63911" begin="5060" fromJunction="J3" toJunction="J2" end="5120" vehsPerHour="13.557223491563855"/>
  <flow id="JF63912" begin="5060" fromJunction="J3" toJunction="J4" end="5120" vehsPerHour="102.42210940082246"/>
  <flow id="JF63913" begin="5060" fromJunction="J0" toJunction="J2" end="5120" vehsPerHour="129.38959809127076"/>
  <flow id="JF63914" begin="5060" fromJunction="J0" toJunction="J4" end="5120" vehsPerHour="71.7906735883934"/>
  <flow id="JF63915" begin="5060" fromJunction="J2" toJunction="J4" end="5120" vehsPerHour="51.42372115651108"/>
  <flow id="JF63916" begin="5060" fromJunction="J4" toJunction="J2" end="5120" vehsPerHour="78.89093870421011"/>
  <flow id="JF63917" begin="5060" fromJunction="J2" toJunction="J3" end="5120" vehsPerHour="66.91529699193897"/>
  <flow id="JF63918" begin="5060" fromJunction="J2" toJunction="J0" end="5120" vehsPerHour="110.82901876214922"/>
  <flow id="JF63919" begin="5060" fromJunction="J4" toJunction="J3" end="5120" vehsPerHour="126.53507761119859"/>
  <flow id="JF63920" begin="5060" fromJunction="J4" toJunction="J0" end="5120" vehsPerHour="65.57679480295658"/>
  <flow id="JF63921" begin="5120" fromJunction="J3" toJunction="J0" end="5180" vehsPerHour="162.67137999200287"/>
  <flow id="JF63922" begin="5120" fromJunction="J0" toJunction="J3" end="5180" vehsPerHour="58.38818275877789"/>
  <flow id="JF63923" begin="5120" fromJunction="J3" toJunction="J2" end="5180" vehsPerHour="105.62339168224959"/>
  <flow id="JF63924" begin="5120" fromJunction="J3" toJunction="J4" end="5180" vehsPerHour="77.18913737945118"/>
  <flow id="JF63925" begin="5120" fromJunction="J0" toJunction="J2" end="5180" vehsPerHour="118.84099141009114"/>
  <flow id="JF63926" begin="5120" fromJunction="J0" toJunction="J4" end="5180" vehsPerHour="122.80454115939825"/>
  <flow id="JF63927" begin="5180" fromJunction="J3" toJunction="J0" end="5240" vehsPerHour="333.91970251340416"/>
  <flow id="JF63928" begin="5180" fromJunction="J0" toJunction="J3" end="5240" vehsPerHour="379.57897455360705"/>
  <flow id="JF63929" begin="5180" fromJunction="J3" toJunction="J2" end="5240" vehsPerHour="3.765893008588768"/>
  <flow id="JF63930" begin="5180" fromJunction="J3" toJunction="J4" end="5240" vehsPerHour="77.5007640014947"/>
  <flow id="JF63931" begin="5180" fromJunction="J0" toJunction="J2" end="5240" vehsPerHour="97.69342555359928"/>
  <flow id="JF63932" begin="5180" fromJunction="J0" toJunction="J4" end="5240" vehsPerHour="121.89278574577583"/>
  <flow id="JF63933" begin="5240" fromJunction="J3" toJunction="J0" end="5300" vehsPerHour="425.448036194115"/>
  <flow id="JF63934" begin="5240" fromJunction="J0" toJunction="J3" end="5300" vehsPerHour="417.0966147817926"/>
  <flow id="JF63935" begin="5240" fromJunction="J3" toJunction="J2" end="5300" vehsPerHour="129.6540342017967"/>
  <flow id="JF63936" begin="5240" fromJunction="J3" toJunction="J4" end="5300" vehsPerHour="107.33759742753229"/>
  <flow id="JF63937" begin="5240" fromJunction="J0" toJunction="J2" end="5300" vehsPerHour="68.28950406698827"/>
  <flow id="JF63938" begin="5240" fromJunction="J0" toJunction="J4" end="5300" vehsPerHour="38.00551444181512"/>
  <flow id="JF63939" begin="5240" fromJunction="J2" toJunction="J4" end="5300" vehsPerHour="61.249985142081655"/>
  <flow id="JF63940" begin="5240" fromJunction="J4" toJunction="J2" end="5300" vehsPerHour="37.402781866893335"/>
  <flow id="JF63941" begin="5240" fromJunction="J2" toJunction="J3" end="5300" vehsPerHour="114.91789113944213"/>
  <flow id="JF63942" begin="5240" fromJunction="J2" toJunction="J0" end="5300" vehsPerHour="63.279196522082685"/>
  <flow id="JF63943" begin="5240" fromJunction="J4" toJunction="J3" end="5300" vehsPerHour="31.256878748558616"/>
  <flow id="JF63944" begin="5240" fromJunction="J4" toJunction="J0" end="5300" vehsPerHour="89.72459588706775"/>
  <flow id="JF63945" begin="5300" fromJunction="J3" toJunction="J0" end="5360" vehsPerHour="282.60865712681965"/>
  <flow id="JF63946" begin="5300" fromJunction="J0" toJunction="J3" end="5360" vehsPerHour="218.22094172168985"/>
  <flow id="JF63947" begin="5300" fromJunction="J3" toJunction="J2" end="5360" vehsPerHour="108.15124694012205"/>
  <flow id="JF63948" begin="5300" fromJunction="J3" toJunction="J4" end="5360" vehsPerHour="91.09327042464588"/>
  <flow id="JF63949" begin="5300" fromJunction="J0" toJunction="J2" end="5360" vehsPerHour="21.586829274376907"/>
  <flow id="JF63950" begin="5300" fromJunction="J0" toJunction="J4" end="5360" vehsPerHour="134.85256434581254"/>
  <flow id="JF63951" begin="5300" fromJunction="J2" toJunction="J4" end="5360" vehsPerHour="42.323724439852526"/>
  <flow id="JF63952" begin="5300" fromJunction="J4" toJunction="J2" end="5360" vehsPerHour="22.96771436978986"/>
  <flow id="JF63953" begin="5300" fromJunction="J2" toJunction="J3" end="5360" vehsPerHour="54.91600765257796"/>
  <flow id="JF63954" begin="5300" fromJunction="J2" toJunction="J0" end="5360" vehsPerHour="56.45886496777135"/>
  <flow id="JF63955" begin="5300" fromJunction="J4" toJunction="J3" end="5360" vehsPerHour="24.00441632156294"/>
  <flow id="JF63956" begin="5300" fromJunction="J4" toJunction="J0" end="5360" vehsPerHour="68.04795932501013"/>
  <flow id="JF63957" begin="5360" fromJunction="J3" toJunction="J0" end="5420" vehsPerHour="423.97848348709084"/>
  <flow id="JF63958" begin="5360" fromJunction="J0" toJunction="J3" end="5420" vehsPerHour="10.190683421493695"/>
  <flow id="JF63959" begin="5360" fromJunction="J3" toJunction="J2" end="5420" vehsPerHour="33.32603469093018"/>
  <flow id="JF63960" begin="5360" fromJunction="J3" toJunction="J4" end="5420" vehsPerHour="136.33770544420108"/>
  <flow id="JF63961" begin="5360" fromJunction="J0" toJunction="J2" end="5420" vehsPerHour="1.0940643229926486"/>
  <flow id="JF63962" begin="5360" fromJunction="J0" toJunction="J4" end="5420" vehsPerHour="103.84118347550547"/>
  <flow id="JF63963" begin="5360" fromJunction="J2" toJunction="J4" end="5420" vehsPerHour="49.69111953919457"/>
  <flow id="JF63964" begin="5360" fromJunction="J4" toJunction="J2" end="5420" vehsPerHour="81.84836169353166"/>
  <flow id="JF63965" begin="5360" fromJunction="J2" toJunction="J3" end="5420" vehsPerHour="36.0486298397196"/>
  <flow id="JF63966" begin="5360" fromJunction="J2" toJunction="J0" end="5420" vehsPerHour="44.087955477405835"/>
  <flow id="JF63967" begin="5360" fromJunction="J4" toJunction="J3" end="5420" vehsPerHour="37.56671612866193"/>
  <flow id="JF63968" begin="5360" fromJunction="J4" toJunction="J0" end="5420" vehsPerHour="135.2954139469137"/>
  <flow id="JF63969" begin="5420" fromJunction="J3" toJunction="J0" end="5480" vehsPerHour="483.15572388050344"/>
  <flow id="JF63970" begin="5420" fromJunction="J0" toJunction="J3" end="5480" vehsPerHour="371.54753801297846"/>
  <flow id="JF63971" begin="5420" fromJunction="J3" toJunction="J2" end="5480" vehsPerHour="11.091569675090163"/>
  <flow id="JF63972" begin="5420" fromJunction="J3" toJunction="J4" end="5480" vehsPerHour="25.545358657060522"/>
  <flow id="JF63973" begin="5420" fromJunction="J0" toJunction="J2" end="5480" vehsPerHour="36.11104268183102"/>
  <flow id="JF63974" begin="5420" fromJunction="J0" toJunction="J4" end="5480" vehsPerHour="117.50642392929143"/>
  <flow id="JF63975" begin="5480" fromJunction="J3" toJunction="J0" end="5540" vehsPerHour="415.30650017770347"/>
  <flow id="JF63976" begin="5480" fromJunction="J0" toJunction="J3" end="5540" vehsPerHour="199.22455925516567"/>
  <flow id="JF63977" begin="5480" fromJunction="J3" toJunction="J2" end="5540" vehsPerHour="89.81335176215774"/>
  <flow id="JF63978" begin="5480" fromJunction="J3" toJunction="J4" end="5540" vehsPerHour="4.372942506900841"/>
  <flow id="JF63979" begin="5480" fromJunction="J0" toJunction="J2" end="5540" vehsPerHour="64.09554609207777"/>
  <flow id="JF63980" begin="5480" fromJunction="J0" toJunction="J4" end="5540" vehsPerHour="103.77804502286642"/>
  <flow id="JF63981" begin="5480" fromJunction="J2" toJunction="J4" end="5540" vehsPerHour="49.99475806295227"/>
  <flow id="JF63982" begin="5480" fromJunction="J4" toJunction="J2" end="5540" vehsPerHour="1.509551375372671"/>
  <flow id="JF63983" begin="5480" fromJunction="J2" toJunction="J3" end="5540" vehsPerHour="116.9727789585272"/>
  <flow id="JF63984" begin="5480" fromJunction="J2" toJunction="J0" end="5540" vehsPerHour="117.82490812336786"/>
  <flow id="JF63985" begin="5480" fromJunction="J4" toJunction="J3" end="5540" vehsPerHour="26.91420490504418"/>
  <flow id="JF63986" begin="5480" fromJunction="J4" toJunction="J0" end="5540" vehsPerHour="21.89829412567586"/>
  <flow id="JF63987" begin="5540" fromJunction="J3" toJunction="J0" end="5600" vehsPerHour="437.0129365893651"/>
  <flow id="JF63988" begin="5540" fromJunction="J0" toJunction="J3" end="5600" vehsPerHour="131.8104966566743"/>
  <flow id="JF63989" begin="5540" fromJunction="J3" toJunction="J2" end="5600" vehsPerHour="33.611463209439364"/>
  <flow id="JF63990" begin="5540" fromJunction="J3" toJunction="J4" end="5600" vehsPerHour="21.509922781345864"/>
  <flow id="JF63991" begin="5540" fromJunction="J0" toJunction="J2" end="5600" vehsPerHour="48.75086326962933"/>
  <flow id="JF63992" begin="5540" fromJunction="J0" toJunction="J4" end="5600" vehsPerHour="22.07905539341214"/>
  <flow id="JF63993" begin="5540" fromJunction="J2" toJunction="J4" end="5600" vehsPerHour="35.211309736822294"/>
  <flow id="JF63994" begin="5540" fromJunction="J4" toJunction="J2" end="5600" vehsPerHour="26.745847412754"/>
  <flow id="JF63995" begin="5540" fromJunction="J2" toJunction="J3" end="5600" vehsPerHour="27.163554046029912"/>
  <flow id="JF63996" begin="5540" fromJunction="J2" toJunction="J0" end="5600" vehsPerHour="81.85402721215888"/>
  <flow id="JF63997" begin="5540" fromJunction="J4" toJunction="J3" end="5600" vehsPerHour="122.14084000343028"/>
  <flow id="JF63998" begin="5540" fromJunction="J4" toJunction="J0" end="5600" vehsPerHour="20.58116263911518"/>
  <flow id="JF63999" begin="5600" fromJunction="J3" toJunction="J0" end="5660" vehsPerHour="255.06574762738524"/>
  <flow id="JF64000" begin="5600" fromJunction="J0" toJunction="J3" end="5660" vehsPerHour="214.40596333973667"/>
  <flow id="JF64001" begin="5600" fromJunction="J3" toJunction="J2" end="5660" vehsPerHour="133.58816051533964"/>
  <flow id="JF64002" begin="5600" fromJunction="J3" toJunction="J4" end="5660" vehsPerHour="126.35876056727074"/>
  <flow id="JF64003" begin="5600" fromJunction="J0" toJunction="J2" end="5660" vehsPerHour="93.11782222755488"/>
  <flow id="JF64004" begin="5600" fromJunction="J0" toJunction="J4" end="5660" vehsPerHour="68.67409308967811"/>
  <flow id="JF64005" begin="5600" fromJunction="J2" toJunction="J4" end="5660" vehsPerHour="49.561303669983666"/>
  <flow id="JF64006" begin="5600" fromJunction="J4" toJunction="J2" end="5660" vehsPerHour="80.40588084297536"/>
  <flow id="JF64007" begin="5600" fromJunction="J2" toJunction="J3" end="5660" vehsPerHour="63.007267390647954"/>
  <flow id="JF64008" begin="5600" fromJunction="J2" toJunction="J0" end="5660" vehsPerHour="100.88579194313705"/>
  <flow id="JF64009" begin="5600" fromJunction="J4" toJunction="J3" end="5660" vehsPerHour="20.53231022371953"/>
  <flow id="JF64010" begin="5600" fromJunction="J4" toJunction="J0" end="5660" vehsPerHour="122.85841006333453"/>
  <flow id="JF64011" begin="5660" fromJunction="J3" toJunction="J0" end="5720" vehsPerHour="170.61642271809754"/>
  <flow id="JF64012" begin="5660" fromJunction="J0" toJunction="J3" end="5720" vehsPerHour="373.87154016152607"/>
  <flow id="JF64013" begin="5660" fromJunction="J3" toJunction="J2" end="5720" vehsPerHour="56.50229557836556"/>
  <flow id="JF64014" begin="5660" fromJunction="J3" toJunction="J4" end="5720" vehsPerHour="82.21440496507408"/>
  <flow id="JF64015" begin="5660" fromJunction="J0" toJunction="J2" end="5720" vehsPerHour="31.390743553927248"/>
  <flow id="JF64016" begin="5660" fromJunction="J0" toJunction="J4" end="5720" vehsPerHour="13.545157595462317"/>
  <flow id="JF64017" begin="5660" fromJunction="J2" toJunction="J4" end="5720" vehsPerHour="48.15306807742763"/>
  <flow id="JF64018" begin="5660" fromJunction="J4" toJunction="J2" end="5720" vehsPerHour="122.31151719633318"/>
  <flow id="JF64019" begin="5660" fromJunction="J2" toJunction="J3" end="5720" vehsPerHour="70.60574790340627"/>
  <flow id="JF64020" begin="5660" fromJunction="J2" toJunction="J0" end="5720" vehsPerHour="106.0842291590325"/>
  <flow id="JF64021" begin="5660" fromJunction="J4" toJunction="J3" end="5720" vehsPerHour="101.73683424375514"/>
  <flow id="JF64022" begin="5660" fromJunction="J4" toJunction="J0" end="5720" vehsPerHour="71.2384596133355"/>
  <flow id="JF64023" begin="5720" fromJunction="J3" toJunction="J0" end="5780" vehsPerHour="455.3393086514916"/>
  <flow id="JF64024" begin="5720" fromJunction="J0" toJunction="J3" end="5780" vehsPerHour="297.64718221750496"/>
  <flow id="JF64025" begin="5720" fromJunction="J3" toJunction="J2" end="5780" vehsPerHour="70.1899636023297"/>
  <flow id="JF64026" begin="5720" fromJunction="J3" toJunction="J4" end="5780" vehsPerHour="107.50637538476376"/>
  <flow id="JF64027" begin="5720" fromJunction="J0" toJunction="J2" end="5780" vehsPerHour="66.07897626267957"/>
  <flow id="JF64028" begin="5720" fromJunction="J0" toJunction="J4" end="5780" vehsPerHour="89.12038046693651"/>
  <flow id="JF64029" begin="5780" fromJunction="J3" toJunction="J0" end="5840" vehsPerHour="139.83117631043393"/>
  <flow id="JF64030" begin="5780" fromJunction="J0" toJunction="J3" end="5840" vehsPerHour="401.52653032784644"/>
  <flow id="JF64031" begin="5780" fromJunction="J3" toJunction="J2" end="5840" vehsPerHour="72.10191504314825"/>
  <flow id="JF64032" begin="5780" fromJunction="J3" toJunction="J4" end="5840" vehsPerHour="14.626592953139824"/>
  <flow id="JF64033" begin="5780" fromJunction="J0" toJunction="J2" end="5840" vehsPerHour="50.129185926748534"/>
  <flow id="JF64034" begin="5780" fromJunction="J0" toJunction="J4" end="5840" vehsPerHour="81.2180578844283"/>
  <flow id="JF64035" begin="5780" fromJunction="J2" toJunction="J4" end="5840" vehsPerHour="95.79604303654801"/>
  <flow id="JF64036" begin="5780" fromJunction="J4" toJunction="J2" end="5840" vehsPerHour="70.51692450481724"/>
  <flow id="JF64037" begin="5780" fromJunction="J2" toJunction="J3" end="5840" vehsPerHour="125.77189500226862"/>
  <flow id="JF64038" begin="5780" fromJunction="J2" toJunction="J0" end="5840" vehsPerHour="102.46188792624"/>
  <flow id="JF64039" begin="5780" fromJunction="J4" toJunction="J3" end="5840" vehsPerHour="86.21050226285617"/>
  <flow id="JF64040" begin="5780" fromJunction="J4" toJunction="J0" end="5840" vehsPerHour="41.35636969113425"/>
  <flow id="JF64041" begin="5840" fromJunction="J3" toJunction="J0" end="5900" vehsPerHour="318.99160793086"/>
  <flow id="JF64042" begin="5840" fromJunction="J0" toJunction="J3" end="5900" vehsPerHour="519.3114663572147"/>
  <flow id="JF64043" begin="5840" fromJunction="J3" toJunction="J2" end="5900" vehsPerHour="4.59395985095631"/>
  <flow id="JF64044" begin="5840" fromJunction="J3" toJunction="J4" end="5900" vehsPerHour="28.108638948351434"/>
  <flow id="JF64045" begin="5840" fromJunction="J0" toJunction="J2" end="5900" vehsPerHour="5.011068744816314"/>
  <flow id="JF64046" begin="5840" fromJunction="J0" toJunction="J4" end="5900" vehsPerHour="12.437452328445833"/>
  <flow id="JF64047" begin="5840" fromJunction="J2" toJunction="J4" end="5900" vehsPerHour="109.8227233586177"/>
  <flow id="JF64048" begin="5840" fromJunction="J4" toJunction="J2" end="5900" vehsPerHour="98.16577718084397"/>
  <flow id="JF64049" begin="5840" fromJunction="J2" toJunction="J3" end="5900" vehsPerHour="5.163869012667639"/>
  <flow id="JF64050" begin="5840" fromJunction="J2" toJunction="J0" end="5900" vehsPerHour="120.84213650028445"/>
  <flow id="JF64051" begin="5840" fromJunction="J4" toJunction="J3" end="5900" vehsPerHour="27.076634429220526"/>
  <flow id="JF64052" begin="5840" fromJunction="J4" toJunction="J0" end="5900" vehsPerHour="9.792882067037173"/>
  <flow id="JF64053" begin="5900" fromJunction="J3" toJunction="J0" end="5960" vehsPerHour="260.8802655341283"/>
  <flow id="JF64054" begin="5900" fromJunction="J0" toJunction="J3" end="5960" vehsPerHour="75.12776679377022"/>
  <flow id="JF64055" begin="5900" fromJunction="J3" toJunction="J2" end="5960" vehsPerHour="120.0147035205478"/>
  <flow id="JF64056" begin="5900" fromJunction="J3" toJunction="J4" end="5960" vehsPerHour="67.42814885315867"/>
  <flow id="JF64057" begin="5900" fromJunction="J0" toJunction="J2" end="5960" vehsPerHour="29.815251405122083"/>
  <flow id="JF64058" begin="5900" fromJunction="J0" toJunction="J4" end="5960" vehsPerHour="7.922164663917103"/>
  <flow id="JF64059" begin="5900" fromJunction="J2" toJunction="J4" end="5960" vehsPerHour="125.06794863736718"/>
  <flow id="JF64060" begin="5900" fromJunction="J4" toJunction="J2" end="5960" vehsPerHour="78.89787232722941"/>
  <flow id="JF64061" begin="5900" fromJunction="J2" toJunction="J3" end="5960" vehsPerHour="95.96158751367149"/>
  <flow id="JF64062" begin="5900" fromJunction="J2" toJunction="J0" end="5960" vehsPerHour="51.23095660192104"/>
  <flow id="JF64063" begin="5900" fromJunction="J4" toJunction="J3" end="5960" vehsPerHour="120.07460034633209"/>
  <flow id="JF64064" begin="5900" fromJunction="J4" toJunction="J0" end="5960" vehsPerHour="122.77079305367029"/>
  <flow id="JF64065" begin="5960" fromJunction="J3" toJunction="J0" end="6020" vehsPerHour="354.6182298716073"/>
  <flow id="JF64066" begin="5960" fromJunction="J0" toJunction="J3" end="6020" vehsPerHour="331.9958852576824"/>
  <flow id="JF64067" begin="5960" fromJunction="J3" toJunction="J2" end="6020" vehsPerHour="14.70115190287463"/>
  <flow id="JF64068" begin="5960" fromJunction="J3" toJunction="J4" end="6020" vehsPerHour="51.51497435785979"/>
  <flow id="JF64069" begin="5960" fromJunction="J0" toJunction="J2" end="6020" vehsPerHour="113.81651800699083"/>
  <flow id="JF64070" begin="5960" fromJunction="J0" toJunction="J4" end="6020" vehsPerHour="92.03354155225176"/>
  <flow id="JF64071" begin="5960" fromJunction="J2" toJunction="J4" end="6020" vehsPerHour="20.715133493590205"/>
  <flow id="JF64072" begin="5960" fromJunction="J4" toJunction="J2" end="6020" vehsPerHour="24.23854844552674"/>
  <flow id="JF64073" begin="5960" fromJunction="J2" toJunction="J3" end="6020" vehsPerHour="105.77849994343593"/>
  <flow id="JF64074" begin="5960" fromJunction="J2" toJunction="J0" end="6020" vehsPerHour="76.7306296339383"/>
  <flow id="JF64075" begin="5960" fromJunction="J4" toJunction="J3" end="6020" vehsPerHour="120.2839131336332"/>
  <flow id="JF64076" begin="5960" fromJunction="J4" toJunction="J0" end="6020" vehsPerHour="17.97951122237523"/>
  <flow id="JF64077" begin="6020" fromJunction="J3" toJunction="J0" end="6080" vehsPerHour="100.59271134948095"/>
  <flow id="JF64078" begin="6020" fromJunction="J0" toJunction="J3" end="6080" vehsPerHour="89.51491645195784"/>
  <flow id="JF64079" begin="6020" fromJunction="J3" toJunction="J2" end="6080" vehsPerHour="76.26555170420654"/>
  <flow id="JF64080" begin="6020" fromJunction="J3" toJunction="J4" end="6080" vehsPerHour="93.29262873215431"/>
  <flow id="JF64081" begin="6020" fromJunction="J0" toJunction="J2" end="6080" vehsPerHour="136.24884179134384"/>
  <flow id="JF64082" begin="6020" fromJunction="J0" toJunction="J4" end="6080" vehsPerHour="96.7946278073685"/>
  <flow id="JF64083" begin="6020" fromJunction="J2" toJunction="J4" end="6080" vehsPerHour="78.75701519516579"/>
  <flow id="JF64084" begin="6020" fromJunction="J4" toJunction="J2" end="6080" vehsPerHour="2.7451633643021123"/>
  <flow id="JF64085" begin="6020" fromJunction="J2" toJunction="J3" end="6080" vehsPerHour="65.45132866942426"/>
  <flow id="JF64086" begin="6020" fromJunction="J2" toJunction="J0" end="6080" vehsPerHour="85.32850169576547"/>
  <flow id="JF64087" begin="6020" fromJunction="J4" toJunction="J3" end="6080" vehsPerHour="24.143869765679913"/>
  <flow id="JF64088" begin="6020" fromJunction="J4" toJunction="J0" end="6080" vehsPerHour="37.18110822739851"/>
  <flow id="JF64089" begin="6080" fromJunction="J3" toJunction="J0" end="6140" vehsPerHour="536.8367190239569"/>
  <flow id="JF64090" begin="6080" fromJunction="J0" toJunction="J3" end="6140" vehsPerHour="115.90012893072064"/>
  <flow id="JF64091" begin="6080" fromJunction="J3" toJunction="J2" end="6140" vehsPerHour="12.673990872071123"/>
  <flow id="JF64092" begin="6080" fromJunction="J3" toJunction="J4" end="6140" vehsPerHour="117.49454710930787"/>
  <flow id="JF64093" begin="6080" fromJunction="J0" toJunction="J2" end="6140" vehsPerHour="77.34384483216178"/>
  <flow id="JF64094" begin="6080" fromJunction="J0" toJunction="J4" end="6140" vehsPerHour="15.10320224808483"/>
  <flow id="JF64095" begin="6080" fromJunction="J2" toJunction="J4" end="6140" vehsPerHour="5.870286132922828"/>
  <flow id="JF64096" begin="6080" fromJunction="J4" toJunction="J2" end="6140" vehsPerHour="34.43400242175639"/>
  <flow id="JF64097" begin="6080" fromJunction="J2" toJunction="J3" end="6140" vehsPerHour="64.49638568984656"/>
  <flow id="JF64098" begin="6080" fromJunction="J2" toJunction="J0" end="6140" vehsPerHour="43.17685942535764"/>
  <flow id="JF64099" begin="6080" fromJunction="J4" toJunction="J3" end="6140" vehsPerHour="55.186125859857945"/>
  <flow id="JF64100" begin="6080" fromJunction="J4" toJunction="J0" end="6140" vehsPerHour="88.13746244284569"/>
  <flow id="JF64101" begin="6140" fromJunction="J3" toJunction="J0" end="6200" vehsPerHour="226.08724448808346"/>
  <flow id="JF64102" begin="6140" fromJunction="J0" toJunction="J3" end="6200" vehsPerHour="64.3908724253862"/>
  <flow id="JF64103" begin="6140" fromJunction="J3" toJunction="J2" end="6200" vehsPerHour="82.07699830868572"/>
  <flow id="JF64104" begin="6140" fromJunction="J3" toJunction="J4" end="6200" vehsPerHour="41.768283514604285"/>
  <flow id="JF64105" begin="6140" fromJunction="J0" toJunction="J2" end="6200" vehsPerHour="61.86067528630947"/>
  <flow id="JF64106" begin="6140" fromJunction="J0" toJunction="J4" end="6200" vehsPerHour="46.06838039506103"/>
  <flow id="JF64107" begin="6140" fromJunction="J2" toJunction="J4" end="6200" vehsPerHour="53.11227507917338"/>
  <flow id="JF64108" begin="6140" fromJunction="J4" toJunction="J2" end="6200" vehsPerHour="70.69278478665863"/>
  <flow id="JF64109" begin="6140" fromJunction="J2" toJunction="J3" end="6200" vehsPerHour="120.09819063910713"/>
  <flow id="JF64110" begin="6140" fromJunction="J2" toJunction="J0" end="6200" vehsPerHour="5.5234320591536115"/>
  <flow id="JF64111" begin="6140" fromJunction="J4" toJunction="J3" end="6200" vehsPerHour="10.870496976680187"/>
  <flow id="JF64112" begin="6140" fromJunction="J4" toJunction="J0" end="6200" vehsPerHour="52.21468585480094"/>
  <flow id="JF64113" begin="6200" fromJunction="J3" toJunction="J0" end="6260" vehsPerHour="130.11422629230654"/>
  <flow id="JF64114" begin="6200" fromJunction="J0" toJunction="J3" end="6260" vehsPerHour="364.827644299841"/>
  <flow id="JF64115" begin="6200" fromJunction="J3" toJunction="J2" end="6260" vehsPerHour="13.815959576481017"/>
  <flow id="JF64116" begin="6200" fromJunction="J3" toJunction="J4" end="6260" vehsPerHour="51.55482417235294"/>
  <flow id="JF64117" begin="6200" fromJunction="J0" toJunction="J2" end="6260" vehsPerHour="94.96205704056378"/>
  <flow id="JF64118" begin="6200" fromJunction="J0" toJunction="J4" end="6260" vehsPerHour="136.37195915902595"/>
  <flow id="JF64119" begin="6200" fromJunction="J2" toJunction="J4" end="6260" vehsPerHour="2.292510885902882"/>
  <flow id="JF64120" begin="6200" fromJunction="J4" toJunction="J2" end="6260" vehsPerHour="54.99854424136169"/>
  <flow id="JF64121" begin="6200" fromJunction="J2" toJunction="J3" end="6260" vehsPerHour="47.565660632112795"/>
  <flow id="JF64122" begin="6200" fromJunction="J2" toJunction="J0" end="6260" vehsPerHour="132.03465102857615"/>
  <flow id="JF64123" begin="6200" fromJunction="J4" toJunction="J3" end="6260" vehsPerHour="40.75395568550285"/>
  <flow id="JF64124" begin="6200" fromJunction="J4" toJunction="J0" end="6260" vehsPerHour="71.50305924930818"/>
  <flow id="JF64125" begin="6260" fromJunction="J3" toJunction="J0" end="6320" vehsPerHour="191.56615017795727"/>
  <flow id="JF64126" begin="6260" fromJunction="J0" toJunction="J3" end="6320" vehsPerHour="68.55631427303649"/>
  <flow id="JF64127" begin="6260" fromJunction="J3" toJunction="J2" end="6320" vehsPerHour="14.111365766235842"/>
  <flow id="JF64128" begin="6260" fromJunction="J3" toJunction="J4" end="6320" vehsPerHour="14.159373602514334"/>
  <flow id="JF64129" begin="6260" fromJunction="J0" toJunction="J2" end="6320" vehsPerHour="122.65228131156667"/>
  <flow id="JF64130" begin="6260" fromJunction="J0" toJunction="J4" end="6320" vehsPerHour="15.810238676730005"/>
  <flow id="JF64131" begin="6260" fromJunction="J2" toJunction="J4" end="6320" vehsPerHour="72.64980902359744"/>
  <flow id="JF64132" begin="6260" fromJunction="J4" toJunction="J2" end="6320" vehsPerHour="67.47812219861942"/>
  <flow id="JF64133" begin="6260" fromJunction="J2" toJunction="J3" end="6320" vehsPerHour="107.38554726044534"/>
  <flow id="JF64134" begin="6260" fromJunction="J2" toJunction="J0" end="6320" vehsPerHour="116.74676949707823"/>
  <flow id="JF64135" begin="6260" fromJunction="J4" toJunction="J3" end="6320" vehsPerHour="92.1258267087031"/>
  <flow id="JF64136" begin="6260" fromJunction="J4" toJunction="J0" end="6320" vehsPerHour="109.3160939078048"/>
  <flow id="JF64137" begin="6320" fromJunction="J3" toJunction="J0" end="6380" vehsPerHour="130.3640573167189"/>
  <flow id="JF64138" begin="6320" fromJunction="J0" toJunction="J3" end="6380" vehsPerHour="129.9650261112507"/>
  <flow id="JF64139" begin="6320" fromJunction="J3" toJunction="J2" end="6380" vehsPerHour="42.315149025558824"/>
  <flow id="JF64140" begin="6320" fromJunction="J3" toJunction="J4" end="6380" vehsPerHour="66.79707033289768"/>
  <flow id="JF64141" begin="6320" fromJunction="J0" toJunction="J2" end="6380" vehsPerHour="66.89902648199761"/>
  <flow id="JF64142" begin="6320" fromJunction="J0" toJunction="J4" end="6380" vehsPerHour="120.57542434349702"/>
  <flow id="JF64143" begin="6320" fromJunction="J2" toJunction="J4" end="6380" vehsPerHour="102.85600903788587"/>
  <flow id="JF64144" begin="6320" fromJunction="J4" toJunction="J2" end="6380" vehsPerHour="132.08616519653748"/>
  <flow id="JF64145" begin="6320" fromJunction="J2" toJunction="J3" end="6380" vehsPerHour="123.0504494282366"/>
  <flow id="JF64146" begin="6320" fromJunction="J2" toJunction="J0" end="6380" vehsPerHour="135.50597599206372"/>
  <flow id="JF64147" begin="6320" fromJunction="J4" toJunction="J3" end="6380" vehsPerHour="51.24612750444486"/>