<?xml version="1.0" encoding="UTF-8"?>
<routes xmlns:xsi="http://www.w3.org/2001/XMLSchema-instance" xsi:noNamespaceSchemaLocation="http://sumo.dlr.de/xsd/routes_file.xsd">
  <flow id="JF61377" begin="0" fromJunction="J3" toJunction="J0" end="5000" vehsPerHour="59.30006860084067"/>
  <flow id="JF61378" begin="0" fromJunction="J0" toJunction="J3" end="5000" vehsPerHour="1156.8722385228007"/>
  <flow id="JF61379" begin="0" fromJunction="J3" toJunction="J2" end="5000" vehsPerHour="94.70912506026703"/>
  <flow id="JF61380" begin="0" fromJunction="J3" toJunction="J4" end="5000" vehsPerHour="0.3426998247227964"/>
  <flow id="JF61381" begin="0" fromJunction="J0" toJunction="J2" end="5000" vehsPerHour="88.88719129923454"/>
  <flow id="JF61382" begin="0" fromJunction="J0" toJunction="J4" end="5000" vehsPerHour="4.598558353619693"/>
  <flow id="JF61383" begin="0" fromJunction="J2" toJunction="J4" end="5000" vehsPerHour="183.16250100994165"/>
  <flow id="JF61384" begin="0" fromJunction="J4" toJunction="J2" end="5000" vehsPerHour="102.04752061542068"/>
  <flow id="JF61385" begin="0" fromJunction="J2" toJunction="J3" end="5000" vehsPerHour="12.768785278249204"/>
  <flow id="JF61386" begin="0" fromJunction="J2" toJunction="J0" end="5000" vehsPerHour="20.04965990961725"/>
  <flow id="JF61387" begin="0" fromJunction="J4" toJunction="J3" end="5000" vehsPerHour="16.125083031882017"/>
  <flow id="JF61388" begin="0" fromJunction="J4" toJunction="J0" end="5000" vehsPerHour="16.43824837250727"/>
  <flow id="JF61389" begin="5000" fromJunction="J3" toJunction="J0" end="5060" vehsPerHour="132.29785531892847"/>
  <flow id="JF61390" begin="5000" fromJunction="J0" toJunction="J3" end="5060" vehsPerHour="451.4910464867934"/>
  <flow id="JF61391" begin="5000" fromJunction="J3" toJunction="J2" end="5060" vehsPerHour="60.8904394992152"/>
  <flow id="JF61392" begin="5000" fromJunction="J3" toJunction="J4" end="5060" vehsPerHour="24.674728452880714"/>
  <flow id="JF61393" begin="5000" fromJunction="J0" toJunction="J2" end="5060" vehsPerHour="2.0753745131329357"/>
  <flow id="JF61394" begin="5000" fromJunction="J0" toJunction="J4" end="5060" vehsPerHour="28.206557002999173"/>
  <flow id="JF61395" begin="5060" fromJunction="J3" toJunction="J0" end="5120" vehsPerHour="134.3652146146328"/>
  <flow id="JF61396" begin="5060" fromJunction="J0" toJunction="J3" end="5120" vehsPerHour="548.5174766732467"/>
  <flow id="JF61397" begin="5060" fromJunction="J3" toJunction="J2" end="5120" vehsPerHour="82.62007273901752"/>
  <flow id="JF61398" begin="5060" fromJunction="J3" toJunction="J4" end="5120" vehsPerHour="110.3716808821598"/>
  <flow id="JF61399" begin="5060" fromJunction="J0" toJunction="J2" end="5120" vehsPerHour="83.211088993004"/>
  <flow id="JF61400" begin="5060" fromJunction="J0" toJunction="J4" end="5120" vehsPerHour="1.2949292913147539"/>
  <flow id="JF61401" begin="5060" fromJunction="J2" toJunction="J4" end="5120" vehsPerHour="91.41841377197046"/>
  <flow id="JF61402" begin="5060" fromJunction="J4" toJunction="J2" end="5120" vehsPerHour="130.8942576669222"/>
  <flow id="JF61403" begin="5060" fromJunction="J2" toJunction="J3" end="5120" vehsPerHour="129.4600517684083"/>
  <flow id="JF61404" begin="5060" fromJunction="J2" toJunction="J0" end="5120" vehsPerHour="36.84128925940982"/>
  <flow id="JF61405" begin="5060" fromJunction="J4" toJunction="J3" end="5120" vehsPerHour="34.00321017217949"/>
  <flow id="JF61406" begin="5060" fromJunction="J4" toJunction="J0" end="5120" vehsPerHour="12.148919340775818"/>
  <flow id="JF61407" begin="5120" fromJunction="J3" toJunction="J0" end="5180" vehsPerHour="162.5966524682737"/>
  <flow id="JF61408" begin="5120" fromJunction="J0" toJunction="J3" end="5180" vehsPerHour="540.0993500441982"/>
  <flow id="JF61409" begin="5120" fromJunction="J3" toJunction="J2" end="5180" vehsPerHour="89.26316816196181"/>
  <flow id="JF61410" begin="5120" fromJunction="J3" toJunction="J4" end="5180" vehsPerHour="21.031998113285848"/>
  <flow id="JF61411" begin="5120" fromJunction="J0" toJunction="J2" end="5180" vehsPerHour="53.08318036555323"/>
  <flow id="JF61412" begin="5120" fromJunction="J0" toJunction="J4" end="5180" vehsPerHour="81.97244412293388"/>
  <flow id="JF61413" begin="5120" fromJunction="J2" toJunction="J4" end="5180" vehsPerHour="57.81143757541952"/>
  <flow id="JF61414" begin="5120" fromJunction="J4" toJunction="J2" end="5180" vehsPerHour="26.564376308704173"/>
  <flow id="JF61415" begin="5120" fromJunction="J2" toJunction="J3" end="5180" vehsPerHour="105.80271350391156"/>
  <flow id="JF61416" begin="5120" fromJunction="J2" toJunction="J0" end="5180" vehsPerHour="10.599946095074833"/>
  <flow id="JF61417" begin="5120" fromJunction="J4" toJunction="J3" end="5180" vehsPerHour="28.216407218101292"/>
  <flow id="JF61418" begin="5120" fromJunction="J4" toJunction="J0" end="5180" vehsPerHour="92.095003469227"/>
  <flow id="JF61419" begin="5180" fromJunction="J3" toJunction="J0" end="5240" vehsPerHour="360.7967795882221"/>
  <flow id="JF61420" begin="5180" fromJunction="J0" toJunction="J3" end="5240" vehsPerHour="52.54442941426287"/>
  <flow id="JF61421" begin="5180" fromJunction="J3" toJunction="J2" end="5240" vehsPerHour="72.2454587515675"/>
  <flow id="JF61422" begin="5180" fromJunction="J3" toJunction="J4" end="5240" vehsPerHour="121.7131983238998"/>
  <flow id="JF61423" begin="5180" fromJunction="J0" toJunction="J2" end="5240" vehsPerHour="74.7137888134163"/>
  <flow id="JF61424" begin="5180" fromJunction="J0" toJunction="J4" end="5240" vehsPerHour="135.26699892667736"/>
  <flow id="JF61425" begin="5240" fromJunction="J3" toJunction="J0" end="5300" vehsPerHour="471.94058427612197"/>
  <flow id="JF61426" begin="5240" fromJunction="J0" toJunction="J3" end="5300" vehsPerHour="4.5019966840702"/>
  <flow id="JF61427" begin="5240" fromJunction="J3" toJunction="J2" end="5300" vehsPerHour="100.4757251309274"/>
  <flow id="JF61428" begin="5240" fromJunction="J3" toJunction="J4" end="5300" vehsPerHour="61.31532724759008"/>
  <flow id="JF61429" begin="5240" fromJunction="J0" toJunction="J2" end="5300" vehsPerHour="36.06318179940841"/>
  <flow id="JF61430" begin="5240" fromJunction="J0" toJunction="J4" end="5300" vehsPerHour="28.738540068796784"/>
  <flow id="JF61431" begin="5300" fromJunction="J3" toJunction="J0" end="5360" vehsPerHour="492.28866147871645"/>
  <flow id="JF61432" begin="5300" fromJunction="J0" toJunction="J3" end="5360" vehsPerHour="230.70118821225435"/>
  <flow id="JF61433" begin="5300" fromJunction="J3" toJunction="J2" end="5360" vehsPerHour="128.08309121546205"/>
  <flow id="JF61434" begin="5300" fromJunction="J3" toJunction="J4" end="5360" vehsPerHour="69.1593890350527"/>
  <flow id="JF61435" begin="5300" fromJunction="J0" toJunction="J2" end="5360" vehsPerHour="124.0930205746856"/>
  <flow id="JF61436" begin="5300" fromJunction="J0" toJunction="J4" end="5360" vehsPerHour="115.97719147638841"/>
  <flow id="JF61437" begin="5360" fromJunction="J3" toJunction="J0" end="5420" vehsPerHour="239.13415565777848"/>
  <flow id="JF61438" begin="5360" fromJunction="J0" toJunction="J3" end="5420" vehsPerHour="180.98425355339342"/>
  <flow id="JF61439" begin="5360" fromJunction="J3" toJunction="J2" end="5420" vehsPerHour="133.74240739844964"/>
  <flow id="JF61440" begin="5360" fromJunction="J3" toJunction="J4" end="5420" vehsPerHour="29.588232506678082"/>
  <flow id="JF61441" begin="5360" fromJunction="J0" toJunction="J2" end="5420" vehsPerHour="26.593915844029702"/>
  <flow id="JF61442" begin="5360" fromJunction="J0" toJunction="J4" end="5420" vehsPerHour="133.45523057657587"/>
  <flow id="JF61443" begin="5360" fromJunction="J2" toJunction="J4" end="5420" vehsPerHour="28.379504657673774"/>
  <flow id="JF61444" begin="5360" fromJunction="J4" toJunction="J2" end="5420" vehsPerHour="92.59620029643449"/>
  <flow id="JF61445" begin="5360" fromJunction="J2" toJunction="J3" end="5420" vehsPerHour="46.94933264605311"/>
  <flow id="JF61446" begin="5360" fromJunction="J2" toJunction="J0" end="5420" vehsPerHour="108.81830445191943"/>
  <flow id="JF61447" begin="5360" fromJunction="J4" toJunction="J3" end="5420" vehsPerHour="110.94211478590157"/>
  <flow id="JF61448" begin="5360" fromJunction="J4" toJunction="J0" end="5420" vehsPerHour="55.69006992730013"/>
  <flow id="JF61449" begin="5420" fromJunction="J3" toJunction="J0" end="5480" vehsPerHour="260.61475494101535"/>
  <flow id="JF61450" begin="5420" fromJunction="J0" toJunction="J3" end="5480" vehsPerHour="466.53960631823026"/>
  <flow id="JF61451" begin="5420" fromJunction="J3" toJunction="J2" end="5480" vehsPerHour="6.403192816393446"/>
  <flow id="JF61452" begin="5420" fromJunction="J3" toJunction="J4" end="5480" vehsPerHour="17.593255361185857"/>
  <flow id="JF61453" begin="5420" fromJunction="J0" toJunction="J2" end="5480" vehsPerHour="53.36659816937089"/>
  <flow id="JF61454" begin="5420" fromJunction="J0" toJunction="J4" end="5480" vehsPerHour="61.166081498443646"/>
  <flow id="JF61455" begin="5420" fromJunction="J2" toJunction="J4" end="5480" vehsPerHour="33.92064125429929"/>
  <flow id="JF61456" begin="5420" fromJunction="J4" toJunction="J2" end="5480" vehsPerHour="23.557444762002095"/>
  <flow id="JF61457" begin="5420" fromJunction="J2" toJunction="J3" end="5480" vehsPerHour="2.075682679975978"/>
  <flow id="JF61458" begin="5420" fromJunction="J2" toJunction="J0" end="5480" vehsPerHour="91.30506699263101"/>
  <flow id="JF61459" begin="5420" fromJunction="J4" toJunction="J3" end="5480" vehsPerHour="92.78699253485169"/>
  <flow id="JF61460" begin="5420" fromJunction="J4" toJunction="J0" end="5480" vehsPerHour="33.275363693371006"/>
  <flow id="JF61461" begin="5480" fromJunction="J3" toJunction="J0" end="5540" vehsPerHour="412.6842334283966"/>
  <flow id="JF61462" begin="5480" fromJunction="J0" toJunction="J3" end="5540" vehsPerHour="324.9859908174334"/>
  <flow id="JF61463" begin="5480" fromJunction="J3" toJunction="J2" end="5540" vehsPerHour="17.74333996426515"/>
  <flow id="JF61464" begin="5480" fromJunction="J3" toJunction="J4" end="5540" vehsPerHour="84.34853174819924"/>
  <flow id="JF61465" begin="5480" fromJunction="J0" toJunction="J2" end="5540" vehsPerHour="16.937164283570112"/>
  <flow id="JF61466" begin="5480" fromJunction="J0" toJunction="J4" end="5540" vehsPerHour="127.00027688826829"/>
  <flow id="JF61467" begin="5480" fromJunction="J2" toJunction="J4" end="5540" vehsPerHour="6.335119740834156"/>
  <flow id="JF61468" begin="5480" fromJunction="J4" toJunction="J2" end="5540" vehsPerHour="50.71564573826282"/>
  <flow id="JF61469" begin="5480" fromJunction="J2" toJunction="J3" end="5540" vehsPerHour="129.729903008363"/>
  <flow id="JF61470" begin="5480" fromJunction="J2" toJunction="J0" end="5540" vehsPerHour="99.84458213981634"/>
  <flow id="JF61471" begin="5480" fromJunction="J4" toJunction="J3" end="5540" vehsPerHour="7.639188361778103"/>
  <flow id="JF61472" begin="5480" fromJunction="J4" toJunction="J0" end="5540" vehsPerHour="56.09375030532661"/>
  <flow id="JF61473" begin="5540" fromJunction="J3" toJunction="J0" end="5600" vehsPerHour="169.72379277207642"/>
  <flow id="JF61474" begin="5540" fromJunction="J0" toJunction="J3" end="5600" vehsPerHour="251.909246440349"/>
  <flow id="JF61475" begin="5540" fromJunction="J3" toJunction="J2" end="5600" vehsPerHour="0.40581795948780996"/>
  <flow id="JF61476" begin="5540" fromJunction="J3" toJunction="J4" end="5600" vehsPerHour="25.272223192305326"/>
  <flow id="JF61477" begin="5540" fromJunction="J0" toJunction="J2" end="5600" vehsPerHour="15.20440331376172"/>
  <flow id="JF61478" begin="5540" fromJunction="J0" toJunction="J4" end="5600" vehsPerHour="52.35507299382817"/>
  <flow id="JF61479" begin="5600" fromJunction="J3" toJunction="J0" end="5660" vehsPerHour="319.72983577064196"/>
  <flow id="JF61480" begin="5600" fromJunction="J0" toJunction="J3" end="5660" vehsPerHour="502.28302758269996"/>
  <flow id="JF61481" begin="5600" fromJunction="J3" toJunction="J2" end="5660" vehsPerHour="15.089078460807237"/>
  <flow id="JF61482" begin="5600" fromJunction="J3" toJunction="J4" end="5660" vehsPerHour="90.39212756075983"/>
  <flow id="JF61483" begin="5600" fromJunction="J0" toJunction="J2" end="5660" vehsPerHour="20.697268603797127"/>
  <flow id="JF61484" begin="5600" fromJunction="J0" toJunction="J4" end="5660" vehsPerHour="88.57305484475411"/>
  <flow id="JF61485" begin="5600" fromJunction="J2" toJunction="J4" end="5660" vehsPerHour="41.195410112336646"/>
  <flow id="JF61486" begin="5600" fromJunction="J4" toJunction="J2" end="5660" vehsPerHour="24.2368756440328"/>
  <flow id="JF61487" begin="5600" fromJunction="J2" toJunction="J3" end="5660" vehsPerHour="6.024709329627791"/>
  <flow id="JF61488" begin="5600" fromJunction="J2" toJunction="J0" end="5660" vehsPerHour="128.83800408479954"/>
  <flow id="JF61489" begin="5600" fromJunction="J4" toJunction="J3" end="5660" vehsPerHour="25.571215778354087"/>
  <flow id="JF61490" begin="5600" fromJunction="J4" toJunction="J0" end="5660" vehsPerHour="92.03704532192543"/>
  <flow id="JF61491" begin="5660" fromJunction="J3" toJunction="J0" end="5720" vehsPerHour="38.352614508932625"/>
  <flow id="JF61492" begin="5660" fromJunction="J0" toJunction="J3" end="5720" vehsPerHour="407.84614549905615"/>
  <flow id="JF61493" begin="5660" fromJunction="J3" toJunction="J2" end="5720" vehsPerHour="8.812537272256382"/>
  <flow id="JF61494" begin="5660" fromJunction="J3" toJunction="J4" end="5720" vehsPerHour="124.392744714688"/>
  <flow id="JF61495" begin="5660" fromJunction="J0" toJunction="J2" end="5720" vehsPerHour="42.08901735265268"/>
  <flow id="JF61496" begin="5660" fromJunction="J0" toJunction="J4" end="5720" vehsPerHour="78.66259019044675"/>
  <flow id="JF61497" begin="5660" fromJunction="J2" toJunction="J4" end="5720" vehsPerHour="90.27220243014048"/>
  <flow id="JF61498" begin="5660" fromJunction="J4" toJunction="J2" end="5720" vehsPerHour="34.101551509359254"/>
  <flow id="JF61499" begin="5660" fromJunction="J2" toJunction="J3" end="5720" vehsPerHour="48.74193425490002"/>
  <flow id="JF61500" begin="5660" fromJunction="J2" toJunction="J0" end="5720" vehsPerHour="4.9006074421389725"/>
  <flow id="JF61501" begin="5660" fromJunction="J4" toJunction="J3" end="5720" vehsPerHour="67.36110952753332"/>
  <flow id="JF61502" begin="5660" fromJunction="J4" toJunction="J0" end="5720" vehsPerHour="22.192558577554696"/>
  <flow id="JF61503" begin="5720" fromJunction="J3" toJunction="J0" end="5780" vehsPerHour="282.6859653770145"/>
  <flow id="JF61504" begin="5720" fromJunction="J0" toJunction="J3" end="5780" vehsPerHour="270.9892367980671"/>
  <flow id="JF61505" begin="5720" fromJunction="J3" toJunction="J2" end="5780" vehsPerHour="43.16104870302812"/>
  <flow id="JF61506" begin="5720" fromJunction="J3" toJunction="J4" end="5780" vehsPerHour="46.62181529732689"/>
  <flow id="JF61507" begin="5720" fromJunction="J0" toJunction="J2" end="5780" vehsPerHour="65.71301918127077"/>
  <flow id="JF61508" begin="5720" fromJunction="J0" toJunction="J4" end="5780" vehsPerHour="50.48088252479145"/>
  <flow id="JF61509" begin="5720" fromJunction="J2" toJunction="J4" end="5780" vehsPerHour="0.6183906822947707"/>
  <flow id="JF61510" begin="5720" fromJunction="J4" toJunction="J2" end="5780" vehsPerHour="30.56001547646459"/>
  <flow id="JF61511" begin="5720" fromJunction="J2" toJunction="J3" end="5780" vehsPerHour="74.46130463500276"/>
  <flow id="JF61512" begin="5720" fromJunction="J2" toJunction="J0" end="5780" vehsPerHour="27.47578152119371"/>
  <flow id="JF61513" begin="5720" fromJunction="J4" toJunction="J3" end="5780" vehsPerHour="15.781211428702646"/>
  <flow id="JF61514" begin="5720" fromJunction="J4" toJunction="J0" end="5780" vehsPerHour="71.6765094363575"/>
  <flow id="JF61515" begin="5780" fromJunction="J3" toJunction="J0" end="5840" vehsPerHour="308.15444921355703"/>
  <flow id="JF61516" begin="5780" fromJunction="J0" toJunction="J3" end="5840" vehsPerHour="41.85108673920369"/>
  <flow id="JF61517" begin="5780" fromJunction="J3" toJunction="J2" end="5840" vehsPerHour="99.13165556402105"/>
  <flow id="JF61518" begin="5780" fromJunction="J3" toJunction="J4" end="5840" vehsPerHour="14.896774616866487"/>
  <flow id="JF61519" begin="5780" fromJunction="J0" toJunction="J2" end="5840" vehsPerHour="36.884777121164014"/>
  <flow id="JF61520" begin="5780" fromJunction="J0" toJunction="J4" end="5840" vehsPerHour="24.001222820271387"/>
  <flow id="JF61521" begin="5780" fromJunction="J2" toJunction="J4" end="5840" vehsPerHour="40.620989881728946"/>
  <flow id="JF61522" begin="5780" fromJunction="J4" toJunction="J2" end="5840" vehsPerHour="89.62932218634108"/>
  <flow id="JF61523" begin="5780" fromJunction="J2" toJunction="J3" end="5840" vehsPerHour="20.07719296565889"/>
  <flow id="JF61524" begin="5780" fromJunction="J2" toJunction="J0" end="5840" vehsPerHour="133.82954829197027"/>
  <flow id="JF61525" begin="5780" fromJunction="J4" toJunction="J3" end="5840" vehsPerHour="36.33877963727998"/>
  <flow id="JF61526" begin="5780" fromJunction="J4" toJunction="J0" end="5840" vehsPerHour="17.16535353555346"/>
  <flow id="JF61527" begin="5840" fromJunction="J3" toJunction="J0" end="5900" vehsPerHour="517.4467040888627"/>
  <flow id="JF61528" begin="5840" fromJunction="J0" toJunction="J3" end="5900" vehsPerHour="369.17737827254626"/>
  <flow id="JF61529" begin="5840" fromJunction="J3" toJunction="J2" end="5900" vehsPerHour="34.00349155116326"/>
  <flow id="JF61530" begin="5840" fromJunction="J3" toJunction="J4" end="5900" vehsPerHour="24.924083815250548"/>
  <flow id="JF61531" begin="5840" fromJunction="J0" toJunction="J2" end="5900" vehsPerHour="93.1975576504468"/>
  <flow id="JF61532" begin="5840" fromJunction="J0" toJunction="J4" end="5900" vehsPerHour="119.43879305000469"/>
  <flow id="JF61533" begin="5840" fromJunction="J2" toJunction="J4" end="5900" vehsPerHour="65.3464975952243"/>
  <flow id="JF61534" begin="5840" fromJunction="J4" toJunction="J2" end="5900" vehsPerHour="114.15873262789911"/>
  <flow id="JF61535" begin="5840" fromJunction="J2" toJunction="J3" end="5900" vehsPerHour="23.8042995429752"/>
  <flow id="JF61536" begin="5840" fromJunction="J2" toJunction="J0" end="5900" vehsPerHour="102.52037200987944"/>
  <flow id="JF61537" begin="5840" fromJunction="J4" toJunction="J3" end="5900" vehsPerHour="135.31171997699042"/>
  <flow id="JF61538" begin="5840" fromJunction="J4" toJunction="J0" end="5900" vehsPerHour="120.28025496256791"/>
  <flow id="JF61539" begin="5900" fromJunction="J3" toJunction="J0" end="5960" vehsPerHour="304.48592127114813"/>
  <flow id="JF61540" begin="5900" fromJunction="J0" toJunction="J3" end="5960" vehsPerHour="127.97434567598853"/>
  <flow id="JF61541" begin="5900" fromJunction="J3" toJunction="J2" end="5960" vehsPerHour="109.23112415466468"/>
  <flow id="JF61542" begin="5900" fromJunction="J3" toJunction="J4" end="5960" vehsPerHour="66.37891556114192"/>
  <flow id="JF61543" begin="5900" fromJunction="J0" toJunction="J2" end="5960" vehsPerHour="33.74322094504779"/>
  <flow id="JF61544" begin="5900" fromJunction="J0" toJunction="J4" end="5960" vehsPerHour="79.08552268160183"/>
  <flow id="JF61545" begin="5900" fromJunction="J2" toJunction="J4" end="5960" vehsPerHour="52.99695574177388"/>
  <flow id="JF61546" begin="5900" fromJunction="J4" toJunction="J2" end="5960" vehsPerHour="106.4884298210613"/>
  <flow id="JF61547" begin="5900" fromJunction="J2" toJunction="J3" end="5960" vehsPerHour="104.79866579009077"/>
  <flow id="JF61548" begin="5900" fromJunction="J2" toJunction="J0" end="5960" vehsPerHour="65.03916022008808"/>
  <flow id="JF61549" begin="5900" fromJunction="J4" toJunction="J3" end="5960" vehsPerHour="6.054073989944323"/>
  <flow id="JF61550" begin="5900" fromJunction="J4" toJunction="J0" end="5960" vehsPerHour="44.49109923558214"/>
  <flow id="JF61551" begin="5960" fromJunction="J3" toJunction="J0" end="6020" vehsPerHour="172.00943402868944"/>
  <flow id="JF61552" begin="5960" fromJunction="J0" toJunction="J3" end="6020" vehsPerHour="45.833089918681175"/>
  <flow id="JF61553" begin="5960" fromJunction="J3" toJunction="J2" end="6020" vehsPerHour="135.61949192452863"/>
  <flow id="JF61554" begin="5960" fromJunction="J3" toJunction="J4" end="6020" vehsPerHour="84.49773785864241"/>
  <flow id="JF61555" begin="5960" fromJunction="J0" toJunction="J2" end="6020" vehsPerHour="90.38106320954334"/>
  <flow id="JF61556" begin="5960" fromJunction="J0" toJunction="J4" end="6020" vehsPerHour="21.83154502973133"/>
  <flow id="JF61557" begin="5960" fromJunction="J2" toJunction="J4" end="6020" vehsPerHour="17.564394064436804"/>
  <flow id="JF61558" begin="5960" fromJunction="J4" toJunction="J2" end="6020" vehsPerHour="123.99489899721486"/>
  <flow id="JF61559" begin="5960" fromJunction="J2" toJunction="J3" end="6020" vehsPerHour="7.493609848790913"/>
  <flow id="JF61560" begin="5960" fromJunction="J2" toJunction="J0" end="6020" vehsPerHour="113.59526898815918"/>
  <flow id="JF61561" begin="5960" fromJunction="J4" toJunction="J3" end="6020" vehsPerHour="130.8781227374912"/>
  <flow id="JF61562" begin="5960" fromJunction="J4" toJunction="J0" end="6020" vehsPerHour="43.39433034848221"/>
  <flow id="JF61563" begin="6020" fromJunction="J3" toJunction="J0" end="6080" vehsPerHour="417.4618799273346"/>
  <flow id="JF61564" begin="6020" fromJunction="J0" toJunction="J3" end="6080" vehsPerHour="88.60117595481687"/>
  <flow id="JF61565" begin="6020" fromJunction="J3" toJunction="J2" end="6080" vehsPerHour="54.397210946170304"/>
  <flow id="JF61566" begin="6020" fromJunction="J3" toJunction="J4" end="6080" vehsPerHour="23.939197555376953"/>
  <flow id="JF61567" begin="6020" fromJunction="J0" toJunction="J2" end="6080" vehsPerHour="131.60866372704788"/>
  <flow id="JF61568" begin="6020" fromJunction="J0" toJunction="J4" end="6080" vehsPerHour="8.934715322309197"/>
  <flow id="JF61569" begin="6020" fromJunction="J2" toJunction="J4" end="6080" vehsPerHour="126.34254354045906"/>
  <flow id="JF61570" begin="6020" fromJunction="J4" toJunction="J2" end="6080" vehsPerHour="15.549918367864834"/>
  <flow id="JF61571" begin="6020" fromJunction="J2" toJunction="J3" end="6080" vehsPerHour="17.167600503276546"/>
  <flow id="JF61572" begin="6020" fromJunction="J2" toJunction="J0" end="6080" vehsPerHour="11.840555621388637"/>
  <flow id="JF61573" begin="6020" fromJunction="J4" toJunction="J3" end="6080" vehsPerHour="86.28375602229805"/>
  <flow id="JF61574" begin="6020" fromJunction="J4" toJunction="J0" end="6080" vehsPerHour="90.5910943088958"/>
  <flow id="JF61575" begin="6080" fromJunction="J3" toJunction="J0" end="6140" vehsPerHour="91.02443386350943"/>
  <flow id="JF61576" begin="6080" fromJunction="J0" toJunction="J3" end="6140" vehsPerHour="443.32339754138076"/>
  <flow id="JF61577" begin="6080" fromJunction="J3" toJunction="J2" end="6140" vehsPerHour="39.49886387522805"/>
  <flow id="JF61578" begin="6080" fromJunction="J3" toJunction="J4" end="6140" vehsPerHour="65.08718917772455"/>
  <flow id="JF61579" begin="6080" fromJunction="J0" toJunction="J2" end="6140" vehsPerHour="45.97383542166708"/>
  <flow id="JF61580" begin="6080" fromJunction="J0" toJunction="J4" end="6140" vehsPerHour="116.99072289353339"/>
  <flow id="JF61581" begin="6140" fromJunction="J3" toJunction="J0" end="6200" vehsPerHour="383.657433224225"/>
  <flow id="JF61582" begin="6140" fromJunction="J0" toJunction="J3" end="6200" vehsPerHour="549.101226111019"/>
  <flow id="JF61583" begin="6140" fromJunction="J3" toJunction="J2" end="6200" vehsPerHour="71.09830001171146"/>
  <flow id="JF61584" begin="6140" fromJunction="J3" toJunction="J4" end="6200" vehsPerHour="27.784431994911706"/>
  <flow id="JF61585" begin="6140" fromJunction="J0" toJunction="J2" end="6200" vehsPerHour="38.36096103454393"/>
  <flow id="JF61586" begin="6140" fromJunction="J0" toJunction="J4" end="6200" vehsPerHour="24.983564915991863"/>
  <flow id="JF61587" begin="6140" fromJunction="J2" toJunction="J4" end="6200" vehsPerHour="101.00099830127257"/>
  <flow id="JF61588" begin="6140" fromJunction="J4" toJunction="J2" end="6200" vehsPerHour="15.80648824448173"/>
  <flow id="JF61589" begin="6140" fromJunction="J2" toJunction="J3" end="6200" vehsPerHour="31.149407407355834"/>
  <flow id="JF61590" begin="6140" fromJunction="J2" toJunction="J0" end="6200" vehsPerHour="75.53147589648538"/>
  <flow id="JF61591" begin="6140" fromJunction="J4" toJunction="J3" end="6200" vehsPerHour="32.660647530070015"/>
  <flow id="JF61592" begin="6140" fromJunction="J4" toJunction="J0" end="6200" vehsPerHour="133.3919047248928"/>
  <flow id="JF61593" begin="6200" fromJunction="J3" toJunction="J0" end="6260" vehsPerHour="32.370913885133085"/>
  <flow id="JF61594" begin="6200" fromJunction="J0" toJunction="J3" end="6260" vehsPerHour="262.67528365755925"/>
  <flow id="JF61595" begin="6200" fromJunction="J3" toJunction="J2" end="6260" vehsPerHour="27.436994554850642"/>
  <flow id="JF61596" begin="6200" fromJunction="J3" toJunction="J4" end="6260" vehsPerHour="91.51077151690724"/>
  <flow id="JF61597" begin="6200" fromJunction="J0" toJunction="J2" end="6260" vehsPerHour="39.13307503230916"/>
  <flow id="JF61598" begin="6200" fromJunction="J0" toJunction="J4" end="6260" vehsPerHour="55.02748353719269"/>
  <flow id="JF61599" begin="6200" fromJunction="J2" toJunction="J4" end="6260" vehsPerHour="55.0616368367953"/>
  <flow id="JF61600" begin="6200" fromJunction="J4" toJunction="J2" end="6260" vehsPerHour="97.75924135933076"/>
  <flow id="JF61601" begin="6200" fromJunction="J2" toJunction="J3" end="6260" vehsPerHour="70.18346990375966"/>
  <flow id="JF61602" begin="6200" fromJunction="J2" toJunction="J0" end="6260" vehsPerHour="10.716587868827085"/>
  <flow id="JF61603" begin="6200" fromJunction="J4" toJunction="J3" end="6260" vehsPerHour="59.541201125076526"/>
  <flow id="JF61604" begin="6200" fromJunction="J4" toJunction="J0" end="6260" vehsPerHour="5.362844862795222"/>
  <flow id="JF61605" begin="6260" fromJunction="J3" toJunction="J0" end="6320" vehsPerHour="62.24177957891303"/>
  <flow id="JF61606" begin="6260" fromJunction="J0" toJunction="J3" end="6320" vehsPerHour="234.23267588116929"/>
  <flow id="JF61607" begin="6260" fromJunction="J3" toJunction="J2" end="6320" vehsPerHour="39.805073080352315"/>
  <flow id="JF61608" begin="6260" fromJunction="J3" toJunction="J4" end="6320" vehsPerHour="103.15027593464262"/>
  <flow id="JF61609" begin="6260" fromJunction="J0" toJunction="J2" end="6320" vehsPerHour="134.31823108797798"/>
  <flow id="JF61610" begin="6260" fromJunction="J0" toJunction="J4" end="6320" vehsPerHour="11.432140829804652"/>
  <flow id="JF61611" begin="6260" fromJunction="J2" toJunction="J4" end="6320" vehsPerHour="58.76695067039434"/>
  <flow id="JF61612" begin="6260" fromJunction="J4" toJunction="J2" end="6320" vehsPerHour="132.34996641584905"/>
  <flow id="JF61613" begin="6260" fromJunction="J2" toJunction="J3" end="6320" vehsPerHour="83.30306427175836"/>
  <flow id="JF61614" begin="6260" fromJunction="J2" toJunction="J0" end="6320" vehsPerHour="46.56266346554705"/>
  <flow id="JF61615" begin="6260" fromJunction="J4" toJunction="J3" end="6320" vehsPerHour="130.54831171943573"/>
  <flow id="JF61616" begin="6260" fromJunction="J4" toJunction="J0" end="6320" vehsPerHour="23.000419248465608"/>
  <flow id="JF61617" begin="6320" fromJunction="J3" toJunction="J0" end="6380" vehsPerHour="176.3469118076144"/>
  <flow id="JF61618" begin="6320" fromJunction="J0" toJunction="J3" end="6380" vehsPerHour="318.11795016455915"/>
  <flow id="JF61619" begin="6320" fromJunction="J3" toJunction="J2" end="6380" vehsPerHour="107.3418879612466"/>
  <flow id="JF61620" begin="6320" fromJunction="J3" toJunction="J4" end="6380" vehsPerHour="69.66801565177529"/>
  <flow id="JF61621" begin="6320" fromJunction="J0" toJunction="J2" end="6380" vehsPerHour="97.45977160601059"/>
  <flow id="JF61622" begin="6320" fromJunction="J0" toJunction="J4" end="6380" vehsPerHour="62.50000489007584"/>
  <flow id="JF61623" begin="6320" fromJunction="J2" toJunction="J4" end="6380" vehsPerHour="112.1942488710165"/>
  <flow id="JF61624" begin="6320" fromJunction="J4" toJunction="J2" end="6380" vehsPerHour="76.90832481612424"/>
  <flow id="JF61625" begin="6320" fromJunction="J2" toJunction="J3" end="6380" vehsPerHour="122.90266003755414"/>
  <flow id="JF61626" begin="6320" fromJunction="J2" toJunction="J0" end="6380" vehsPerHour="48.777869517459585"/>
  <flow id="JF61627" begin="6320" fromJunction="J4" toJunction="J3" end="6380" vehsPerHour="124.48191397804183"/>
  <flow id="JF61628" begin="6320" fromJunction="J4" toJunction="J0" end="6380" vehsPerHour="85.28793178052096"/>
  <flow id="JF61629" begin="6380" fromJunction="J3" toJunction="J0" end="6440" vehsPerHour="145.17626120910649"/>
  <flow id="JF61630" begin="6380" fromJunction="J0" toJunction="J3" end="6440" vehsPerHour="123.25937743883979"/>
  <flow id="JF61631" begin="6380" fromJunction="J3" toJunction="J2" end="6440" vehsPerHour="69.93388510905228"/>
  <flow id="JF61632" begin="6380" fromJunction="J3" toJunction="J4" end="6440" vehsPerHour="3.8835111873572803"/>
  <flow id="JF61633" begin="6380" fromJunction="J0" toJunction="J2" end="6440" vehsPerHour="126.67668619738484"/>
  <flow id="JF61634" begin="6380" fromJunction="J0" toJunction="J4" end="6440" vehsPerHour="16.106904694700425"/>
  <flow id="JF61635" begin="6380" fromJunction="J2" toJunction="J4" end="6440" vehsPerHour="52.89449885931914"/>
  <flow id="JF61636" begin="6380" fromJunction="J4" toJunction="J2" end="6440" vehsPerHour="51.483571023647805"/>
  <flow id="JF61637" begin="6380" fromJunction="J2" toJunction="J3" end="6440" vehsPerHour="110.22101595980902"/>
  <flow id="JF61638" begin="6380" fromJunction="J2" toJunction="J0" end="6440" vehsPerHour="113.7391731171955"/>
  <flow id="JF61639" begin="6380" fromJunction="J4" toJunction="J3" end="6440" vehsPerHour="24.813268086625207"/>