<?xml version="1.0" encoding="UTF-8"?>
<routes xmlns:xsi="http://www.w3.org/2001/XMLSchema-instance" xsi:noNamespaceSchemaLocation="http://sumo.dlr.de/xsd/routes_file.xsd">
  <flow id="JF66447" begin="0" fromJunction="J3" toJunction="J0" end="5000" vehsPerHour="1073.411742901428"/>
  <flow id="JF66448" begin="0" fromJunction="J0" toJunction="J3" end="5000" vehsPerHour="26.5826220422678"/>
  <flow id="JF66449" begin="0" fromJunction="J3" toJunction="J2" end="5000" vehsPerHour="19.56572545292241"/>
  <flow id="JF66450" begin="0" fromJunction="J3" toJunction="J4" end="5000" vehsPerHour="39.18395808255117"/>
  <flow id="JF66451" begin="0" fromJunction="J0" toJunction="J2" end="5000" vehsPerHour="35.41375118247716"/>
  <flow id="JF66452" begin="0" fromJunction="J0" toJunction="J4" end="5000" vehsPerHour="80.61058612781049"/>
  <flow id="JF66453" begin="0" fromJunction="J2" toJunction="J4" end="5000" vehsPerHour="177.0280147061853"/>
  <flow id="JF66454" begin="0" fromJunction="J4" toJunction="J2" end="5000" vehsPerHour="416.6584509769732"/>
  <flow id="JF66455" begin="0" fromJunction="J2" toJunction="J3" end="5000" vehsPerHour="8.408827888640293"/>
  <flow id="JF66456" begin="0" fromJunction="J2" toJunction="J0" end="5000" vehsPerHour="72.04735528556103"/>
  <flow id="JF66457" begin="0" fromJunction="J4" toJunction="J3" end="5000" vehsPerHour="22.419380924943848"/>
  <flow id="JF66458" begin="0" fromJunction="J4" toJunction="J0" end="5000" vehsPerHour="82.49842713321765"/>
  <flow id="JF66459" begin="5000" fromJunction="J3" toJunction="J0" end="5060" vehsPerHour="454.01727212552873"/>
  <flow id="JF66460" begin="5000" fromJunction="J0" toJunction="J3" end="5060" vehsPerHour="544.0512615483649"/>
  <flow id="JF66461" begin="5000" fromJunction="J3" toJunction="J2" end="5060" vehsPerHour="115.52492613929682"/>
  <flow id="JF66462" begin="5000" fromJunction="J3" toJunction="J4" end="5060" vehsPerHour="130.97878526176444"/>
  <flow id="JF66463" begin="5000" fromJunction="J0" toJunction="J2" end="5060" vehsPerHour="82.71304168583522"/>
  <flow id="JF66464" begin="5000" fromJunction="J0" toJunction="J4" end="5060" vehsPerHour="100.53386475502677"/>
  <flow id="JF66465" begin="5000" fromJunction="J2" toJunction="J4" end="5060" vehsPerHour="93.92803373432315"/>
  <flow id="JF66466" begin="5000" fromJunction="J4" toJunction="J2" end="5060" vehsPerHour="38.4783431524735"/>
  <flow id="JF66467" begin="5000" fromJunction="J2" toJunction="J3" end="5060" vehsPerHour="119.18878376453547"/>
  <flow id="JF66468" begin="5000" fromJunction="J2" toJunction="J0" end="5060" vehsPerHour="52.6797746424744"/>
  <flow id="JF66469" begin="5000" fromJunction="J4" toJunction="J3" end="5060" vehsPerHour="134.9889042011552"/>
  <flow id="JF66470" begin="5000" fromJunction="J4" toJunction="J0" end="5060" vehsPerHour="75.44296605820638"/>
  <flow id="JF66471" begin="5060" fromJunction="J3" toJunction="J0" end="5120" vehsPerHour="331.532716602843"/>
  <flow id="JF66472" begin="5060" fromJunction="J0" toJunction="J3" end="5120" vehsPerHour="211.31369547009177"/>
  <flow id="JF66473" begin="5060" fromJunction="J3" toJunction="J2" end="5120" vehsPerHour="68.82027210174626"/>
  <flow id="JF66474" begin="5060" fromJunction="J3" toJunction="J4" end="5120" vehsPerHour="61.36388781421907"/>
  <flow id="JF66475" begin="5060" fromJunction="J0" toJunction="J2" end="5120" vehsPerHour="74.09893517133462"/>
  <flow id="JF66476" begin="5060" fromJunction="J0" toJunction="J4" end="5120" vehsPerHour="45.682088921155504"/>
  <flow id="JF66477" begin="5060" fromJunction="J2" toJunction="J4" end="5120" vehsPerHour="26.203553588580377"/>
  <flow id="JF66478" begin="5060" fromJunction="J4" toJunction="J2" end="5120" vehsPerHour="89.06227362309987"/>
  <flow id="JF66479" begin="5060" fromJunction="J2" toJunction="J3" end="5120" vehsPerHour="18.54953283739398"/>
  <flow id="JF66480" begin="5060" fromJunction="J2" toJunction="J0" end="5120" vehsPerHour="86.82649879292127"/>
  <flow id="JF66481" begin="5060" fromJunction="J4" toJunction="J3" end="5120" vehsPerHour="61.83173293989007"/>
  <flow id="JF66482" begin="5060" fromJunction="J4" toJunction="J0" end="5120" vehsPerHour="94.20515803831648"/>
  <flow id="JF66483" begin="5120" fromJunction="J3" toJunction="J0" end="5180" vehsPerHour="420.73541225913"/>
  <flow id="JF66484" begin="5120" fromJunction="J0" toJunction="J3" end="5180" vehsPerHour="204.27511393830372"/>
  <flow id="JF66485" begin="5120" fromJunction="J3" toJunction="J2" end="5180" vehsPerHour="15.836135664314817"/>
  <flow id="JF66486" begin="5120" fromJunction="J3" toJunction="J4" end="5180" vehsPerHour="35.01668619628958"/>
  <flow id="JF66487" begin="5120" fromJunction="J0" toJunction="J2" end="5180" vehsPerHour="52.06658453751515"/>
  <flow id="JF66488" begin="5120" fromJunction="J0" toJunction="J4" end="5180" vehsPerHour="79.45245161445587"/>
  <flow id="JF66489" begin="5180" fromJunction="J3" toJunction="J0" end="5240" vehsPerHour="197.42802009754357"/>
  <flow id="JF66490" begin="5180" fromJunction="J0" toJunction="J3" end="5240" vehsPerHour="491.34734281695313"/>
  <flow id="JF66491" begin="5180" fromJunction="J3" toJunction="J2" end="5240" vehsPerHour="126.47785871840269"/>
  <flow id="JF66492" begin="5180" fromJunction="J3" toJunction="J4" end="5240" vehsPerHour="51.19862050068028"/>
  <flow id="JF66493" begin="5180" fromJunction="J0" toJunction="J2" end="5240" vehsPerHour="92.15378421692283"/>
  <flow id="JF66494" begin="5180" fromJunction="J0" toJunction="J4" end="5240" vehsPerHour="102.37554034235548"/>
  <flow id="JF66495" begin="5180" fromJunction="J2" toJunction="J4" end="5240" vehsPerHour="17.71492741954921"/>
  <flow id="JF66496" begin="5180" fromJunction="J4" toJunction="J2" end="5240" vehsPerHour="44.79006051344"/>
  <flow id="JF66497" begin="5180" fromJunction="J2" toJunction="J3" end="5240" vehsPerHour="41.292824683300104"/>
  <flow id="JF66498" begin="5180" fromJunction="J2" toJunction="J0" end="5240" vehsPerHour="21.59314756502234"/>
  <flow id="JF66499" begin="5180" fromJunction="J4" toJunction="J3" end="5240" vehsPerHour="29.490429620871623"/>
  <flow id="JF66500" begin="5180" fromJunction="J4" toJunction="J0" end="5240" vehsPerHour="82.52670322743256"/>
  <flow id="JF66501" begin="5240" fromJunction="J3" toJunction="J0" end="5300" vehsPerHour="273.99409635774856"/>
  <flow id="JF66502" begin="5240" fromJunction="J0" toJunction="J3" end="5300" vehsPerHour="458.99114317054904"/>
  <flow id="JF66503" begin="5240" fromJunction="J3" toJunction="J2" end="5300" vehsPerHour="74.31827759073965"/>
  <flow id="JF66504" begin="5240" fromJunction="J3" toJunction="J4" end="5300" vehsPerHour="95.0086582953594"/>
  <flow id="JF66505" begin="5240" fromJunction="J0" toJunction="J2" end="5300" vehsPerHour="10.946181832713444"/>
  <flow id="JF66506" begin="5240" fromJunction="J0" toJunction="J4" end="5300" vehsPerHour="114.8239400548159"/>
  <flow id="JF66507" begin="5240" fromJunction="J2" toJunction="J4" end="5300" vehsPerHour="96.24088276005847"/>
  <flow id="JF66508" begin="5240" fromJunction="J4" toJunction="J2" end="5300" vehsPerHour="33.57769944740233"/>
  <flow id="JF66509" begin="5240" fromJunction="J2" toJunction="J3" end="5300" vehsPerHour="68.33302013943387"/>
  <flow id="JF66510" begin="5240" fromJunction="J2" toJunction="J0" end="5300" vehsPerHour="91.97644478023076"/>
  <flow id="JF66511" begin="5240" fromJunction="J4" toJunction="J3" end="5300" vehsPerHour="3.3905063969993674"/>
  <flow id="JF66512" begin="5240" fromJunction="J4" toJunction="J0" end="5300" vehsPerHour="72.39618973252662"/>
  <flow id="JF66513" begin="5300" fromJunction="J3" toJunction="J0" end="5360" vehsPerHour="496.37027537485466"/>
  <flow id="JF66514" begin="5300" fromJunction="J0" toJunction="J3" end="5360" vehsPerHour="395.65570992925757"/>
  <flow id="JF66515" begin="5300" fromJunction="J3" toJunction="J2" end="5360" vehsPerHour="135.85290336271945"/>
  <flow id="JF66516" begin="5300" fromJunction="J3" toJunction="J4" end="5360" vehsPerHour="127.57548278963614"/>
  <flow id="JF66517" begin="5300" fromJunction="J0" toJunction="J2" end="5360" vehsPerHour="23.7259419354356"/>
  <flow id="JF66518" begin="5300" fromJunction="J0" toJunction="J4" end="5360" vehsPerHour="117.73186985787807"/>
  <flow id="JF66519" begin="5360" fromJunction="J3" toJunction="J0" end="5420" vehsPerHour="443.4914395368522"/>
  <flow id="JF66520" begin="5360" fromJunction="J0" toJunction="J3" end="5420" vehsPerHour="442.7704442958306"/>
  <flow id="JF66521" begin="5360" fromJunction="J3" toJunction="J2" end="5420" vehsPerHour="86.14013075109038"/>
  <flow id="JF66522" begin="5360" fromJunction="J3" toJunction="J4" end="5420" vehsPerHour="107.53638463527017"/>
  <flow id="JF66523" begin="5360" fromJunction="J0" toJunction="J2" end="5420" vehsPerHour="1.455978716330444"/>
  <flow id="JF66524" begin="5360" fromJunction="J0" toJunction="J4" end="5420" vehsPerHour="96.52018872297614"/>
  <flow id="JF66525" begin="5360" fromJunction="J2" toJunction="J4" end="5420" vehsPerHour="48.07479210269099"/>
  <flow id="JF66526" begin="5360" fromJunction="J4" toJunction="J2" end="5420" vehsPerHour="41.470209709287104"/>
  <flow id="JF66527" begin="5360" fromJunction="J2" toJunction="J3" end="5420" vehsPerHour="55.274958488296775"/>
  <flow id="JF66528" begin="5360" fromJunction="J2" toJunction="J0" end="5420" vehsPerHour="87.58061656967169"/>
  <flow id="JF66529" begin="5360" fromJunction="J4" toJunction="J3" end="5420" vehsPerHour="80.65328438498338"/>
  <flow id="JF66530" begin="5360" fromJunction="J4" toJunction="J0" end="5420" vehsPerHour="41.49092986095434"/>
  <flow id="JF66531" begin="5420" fromJunction="J3" toJunction="J0" end="5480" vehsPerHour="129.9419134896893"/>
  <flow id="JF66532" begin="5420" fromJunction="J0" toJunction="J3" end="5480" vehsPerHour="256.3320794384499"/>
  <flow id="JF66533" begin="5420" fromJunction="J3" toJunction="J2" end="5480" vehsPerHour="86.90646517963371"/>
  <flow id="JF66534" begin="5420" fromJunction="J3" toJunction="J4" end="5480" vehsPerHour="59.10392708421486"/>
  <flow id="JF66535" begin="5420" fromJunction="J0" toJunction="J2" end="5480" vehsPerHour="115.6220460921315"/>
  <flow id="JF66536" begin="5420" fromJunction="J0" toJunction="J4" end="5480" vehsPerHour="90.70460224512212"/>
  <flow id="JF66537" begin="5420" fromJunction="J2" toJunction="J4" end="5480" vehsPerHour="133.3873907559777"/>
  <flow id="JF66538" begin="5420" fromJunction="J4" toJunction="J2" end="5480" vehsPerHour="30.818967086648705"/>
  <flow id="JF66539" begin="5420" fromJunction="J2" toJunction="J3" end="5480" vehsPerHour="84.6219908523748"/>
  <flow id="JF66540" begin="5420" fromJunction="J2" toJunction="J0" end="5480" vehsPerHour="133.3696800449994"/>
  <flow id="JF66541" begin="5420" fromJunction="J4" toJunction="J3" end="5480" vehsPerHour="8.913021393153008"/>
  <flow id="JF66542" begin="5420" fromJunction="J4" toJunction="J0" end="5480" vehsPerHour="26.83054026778853"/>
  <flow id="JF66543" begin="5480" fromJunction="J3" toJunction="J0" end="5540" vehsPerHour="433.97482723600604"/>
  <flow id="JF66544" begin="5480" fromJunction="J0" toJunction="J3" end="5540" vehsPerHour="526.2092217505425"/>
  <flow id="JF66545" begin="5480" fromJunction="J3" toJunction="J2" end="5540" vehsPerHour="7.997344394274579"/>
  <flow id="JF66546" begin="5480" fromJunction="J3" toJunction="J4" end="5540" vehsPerHour="123.23528844920949"/>
  <flow id="JF66547" begin="5480" fromJunction="J0" toJunction="J2" end="5540" vehsPerHour="137.27645107381218"/>
  <flow id="JF66548" begin="5480" fromJunction="J0" toJunction="J4" end="5540" vehsPerHour="81.75439623165816"/>
  <flow id="JF66549" begin="5540" fromJunction="J3" toJunction="J0" end="5600" vehsPerHour="120.51563661610965"/>
  <flow id="JF66550" begin="5540" fromJunction="J0" toJunction="J3" end="5600" vehsPerHour="109.128163016688"/>
  <flow id="JF66551" begin="5540" fromJunction="J3" toJunction="J2" end="5600" vehsPerHour="69.58186792876026"/>
  <flow id="JF66552" begin="5540" fromJunction="J3" toJunction="J4" end="5600" vehsPerHour="73.19552651256066"/>
  <flow id="JF66553" begin="5540" fromJunction="J0" toJunction="J2" end="5600" vehsPerHour="42.55174482546764"/>
  <flow id="JF66554" begin="5540" fromJunction="J0" toJunction="J4" end="5600" vehsPerHour="82.43127619479145"/>
  <flow id="JF66555" begin="5540" fromJunction="J2" toJunction="J4" end="5600" vehsPerHour="126.14416543566023"/>
  <flow id="JF66556" begin="5540" fromJunction="J4" toJunction="J2" end="5600" vehsPerHour="23.435736635639742"/>
  <flow id="JF66557" begin="5540" fromJunction="J2" toJunction="J3" end="5600" vehsPerHour="60.21478146790061"/>
  <flow id="JF66558" begin="5540" fromJunction="J2" toJunction="J0" end="5600" vehsPerHour="102.6591827381397"/>
  <flow id="JF66559" begin="5540" fromJunction="J4" toJunction="J3" end="5600" vehsPerHour="125.96546254756144"/>
  <flow id="JF66560" begin="5540" fromJunction="J4" toJunction="J0" end="5600" vehsPerHour="110.93308536536246"/>
  <flow id="JF66561" begin="5600" fromJunction="J3" toJunction="J0" end="5660" vehsPerHour="226.1004407108816"/>
  <flow id="JF66562" begin="5600" fromJunction="J0" toJunction="J3" end="5660" vehsPerHour="55.55680140669303"/>
  <flow id="JF66563" begin="5600" fromJunction="J3" toJunction="J2" end="5660" vehsPerHour="82.27674823542503"/>
  <flow id="JF66564" begin="5600" fromJunction="J3" toJunction="J4" end="5660" vehsPerHour="54.23305607501097"/>
  <flow id="JF66565" begin="5600" fromJunction="J0" toJunction="J2" end="5660" vehsPerHour="63.683386217421784"/>
  <flow id="JF66566" begin="5600" fromJunction="J0" toJunction="J4" end="5660" vehsPerHour="67.90295223787085"/>
  <flow id="JF66567" begin="5600" fromJunction="J2" toJunction="J4" end="5660" vehsPerHour="58.772208054304194"/>
  <flow id="JF66568" begin="5600" fromJunction="J4" toJunction="J2" end="5660" vehsPerHour="108.38825980747353"/>
  <flow id="JF66569" begin="5600" fromJunction="J2" toJunction="J3" end="5660" vehsPerHour="125.58890251595979"/>
  <flow id="JF66570" begin="5600" fromJunction="J2" toJunction="J0" end="5660" vehsPerHour="112.51482131566064"/>
  <flow id="JF66571" begin="5600" fromJunction="J4" toJunction="J3" end="5660" vehsPerHour="41.742614965995955"/>
  <flow id="JF66572" begin="5600" fromJunction="J4" toJunction="J0" end="5660" vehsPerHour="63.285445912080924"/>
  <flow id="JF66573" begin="5660" fromJunction="J3" toJunction="J0" end="5720" vehsPerHour="130.8134787747448"/>
  <flow id="JF66574" begin="5660" fromJunction="J0" toJunction="J3" end="5720" vehsPerHour="355.0606731108763"/>
  <flow id="JF66575" begin="5660" fromJunction="J3" toJunction="J2" end="5720" vehsPerHour="66.95789025443531"/>
  <flow id="JF66576" begin="5660" fromJunction="J3" toJunction="J4" end="5720" vehsPerHour="67.78106939665334"/>
  <flow id="JF66577" begin="5660" fromJunction="J0" toJunction="J2" end="5720" vehsPerHour="30.950452256090767"/>
  <flow id="JF66578" begin="5660" fromJunction="J0" toJunction="J4" end="5720" vehsPerHour="5.58805655829328"/>
  <flow id="JF66579" begin="5660" fromJunction="J2" toJunction="J4" end="5720" vehsPerHour="83.61515460139422"/>
  <flow id="JF66580" begin="5660" fromJunction="J4" toJunction="J2" end="5720" vehsPerHour="37.785767081476465"/>
  <flow id="JF66581" begin="5660" fromJunction="J2" toJunction="J3" end="5720" vehsPerHour="123.42446729372362"/>
  <flow id="JF66582" begin="5660" fromJunction="J2" toJunction="J0" end="5720" vehsPerHour="110.62132696726431"/>
  <flow id="JF66583" begin="5660" fromJunction="J4" toJunction="J3" end="5720" vehsPerHour="63.385601608247846"/>
  <flow id="JF66584" begin="5660" fromJunction="J4" toJunction="J0" end="5720" vehsPerHour="27.74326162977584"/>
  <flow id="JF66585" begin="5720" fromJunction="J3" toJunction="J0" end="5780" vehsPerHour="470.6164594590285"/>
  <flow id="JF66586" begin="5720" fromJunction="J0" toJunction="J3" end="5780" vehsPerHour="158.56476488125273"/>
  <flow id="JF66587" begin="5720" fromJunction="J3" toJunction="J2" end="5780" vehsPerHour="41.05320233190669"/>
  <flow id="JF66588" begin="5720" fromJunction="J3" toJunction="J4" end="5780" vehsPerHour="103.07873021884966"/>
  <flow id="JF66589" begin="5720" fromJunction="J0" toJunction="J2" end="5780" vehsPerHour="23.222786166503642"/>
  <flow id="JF66590" begin="5720" fromJunction="J0" toJunction="J4" end="5780" vehsPerHour="58.967487327023896"/>
  <flow id="JF66591" begin="5720" fromJunction="J2" toJunction="J4" end="5780" vehsPerHour="102.28512321575187"/>
  <flow id="JF66592" begin="5720" fromJunction="J4" toJunction="J2" end="5780" vehsPerHour="121.30595293728287"/>
  <flow id="JF66593" begin="5720" fromJunction="J2" toJunction="J3" end="5780" vehsPerHour="87.72646710512322"/>
  <flow id="JF66594" begin="5720" fromJunction="J2" toJunction="J0" end="5780" vehsPerHour="90.35279803575523"/>
  <flow id="JF66595" begin="5720" fromJunction="J4" toJunction="J3" end="5780" vehsPerHour="75.41408051543489"/>
  <flow id="JF66596" begin="5720" fromJunction="J4" toJunction="J0" end="5780" vehsPerHour="133.8461568917301"/>
  <flow id="JF66597" begin="5780" fromJunction="J3" toJunction="J0" end="5840" vehsPerHour="207.5960563856998"/>
  <flow id="JF66598" begin="5780" fromJunction="J0" toJunction="J3" end="5840" vehsPerHour="126.33377388618356"/>
  <flow id="JF66599" begin="5780" fromJunction="J3" toJunction="J2" end="5840" vehsPerHour="50.073655793173195"/>
  <flow id="JF66600" begin="5780" fromJunction="J3" toJunction="J4" end="5840" vehsPerHour="81.60382927917553"/>
  <flow id="JF66601" begin="5780" fromJunction="J0" toJunction="J2" end="5840" vehsPerHour="7.480658548305851"/>
  <flow id="JF66602" begin="5780" fromJunction="J0" toJunction="J4" end="5840" vehsPerHour="61.11237715486585"/>
  <flow id="JF66603" begin="5840" fromJunction="J3" toJunction="J0" end="5900" vehsPerHour="129.74824044976663"/>
  <flow id="JF66604" begin="5840" fromJunction="J0" toJunction="J3" end="5900" vehsPerHour="154.3312465809777"/>
  <flow id="JF66605" begin="5840" fromJunction="J3" toJunction="J2" end="5900" vehsPerHour="48.71788292685114"/>
  <flow id="JF66606" begin="5840" fromJunction="J3" toJunction="J4" end="5900" vehsPerHour="89.05146629278413"/>
  <flow id="JF66607" begin="5840" fromJunction="J0" toJunction="J2" end="5900" vehsPerHour="66.61521586333346"/>
  <flow id="JF66608" begin="5840" fromJunction="J0" toJunction="J4" end="5900" vehsPerHour="0.13837380516227968"/>
  <flow id="JF66609" begin="5900" fromJunction="J3" toJunction="J0" end="5960" vehsPerHour="116.36066192886612"/>
  <flow id="JF66610" begin="5900" fromJunction="J0" toJunction="J3" end="5960" vehsPerHour="56.38358282036994"/>
  <flow id="JF66611" begin="5900" fromJunction="J3" toJunction="J2" end="5960" vehsPerHour="55.39413191558522"/>
  <flow id="JF66612" begin="5900" fromJunction="J3" toJunction="J4" end="5960" vehsPerHour="111.69283794358364"/>
  <flow id="JF66613" begin="5900" fromJunction="J0" toJunction="J2" end="5960" vehsPerHour="48.12029203534728"/>
  <flow id="JF66614" begin="5900" fromJunction="J0" toJunction="J4" end="5960" vehsPerHour="91.05765183070967"/>
  <flow id="JF66615" begin="5900" fromJunction="J2" toJunction="J4" end="5960" vehsPerHour="118.2701671953725"/>
  <flow id="JF66616" begin="5900" fromJunction="J4" toJunction="J2" end="5960" vehsPerHour="88.9041568156871"/>
  <flow id="JF66617" begin="5900" fromJunction="J2" toJunction="J3" end="5960" vehsPerHour="42.57452742490368"/>
  <flow id="JF66618" begin="5900" fromJunction="J2" toJunction="J0" end="5960" vehsPerHour="73.36268976814046"/>
  <flow id="JF66619" begin="5900" fromJunction="J4" toJunction="J3" end="5960" vehsPerHour="41.14394799670333"/>
  <flow id="JF66620" begin="5900" fromJunction="J4" toJunction="J0" end="5960" vehsPerHour="18.502503787872865"/>
  <flow id="JF66621" begin="5960" fromJunction="J3" toJunction="J0" end="6020" vehsPerHour="276.77803770497366"/>
  <flow id="JF66622" begin="5960" fromJunction="J0" toJunction="J3" end="6020" vehsPerHour="226.2471813033952"/>
  <flow id="JF66623" begin="5960" fromJunction="J3" toJunction="J2" end="6020" vehsPerHour="77.06468153800482"/>
  <flow id="JF66624" begin="5960" fromJunction="J3" toJunction="J4" end="6020" vehsPerHour="88.8715113614238"/>
  <flow id="JF66625" begin="5960" fromJunction="J0" toJunction="J2" end="6020" vehsPerHour="31.816290139184485"/>
  <flow id="JF66626" begin="5960" fromJunction="J0" toJunction="J4" end="6020" vehsPerHour="80.18182794477647"/>
  <flow id="JF66627" begin="5960" fromJunction="J2" toJunction="J4" end="6020" vehsPerHour="111.06299067065771"/>
  <flow id="JF66628" begin="5960" fromJunction="J4" toJunction="J2" end="6020" vehsPerHour="5.43620081867138"/>
  <flow id="JF66629" begin="5960" fromJunction="J2" toJunction="J3" end="6020" vehsPerHour="80.42600321215362"/>
  <flow id="JF66630" begin="5960" fromJunction="J2" toJunction="J0" end="6020" vehsPerHour="46.95404420243345"/>
  <flow id="JF66631" begin="5960" fromJunction="J4" toJunction="J3" end="6020" vehsPerHour="59.537965789289956"/>
  <flow id="JF66632" begin="5960" fromJunction="J4" toJunction="J0" end="6020" vehsPerHour="105.028944622663"/>
  <flow id="JF66633" begin="6020" fromJunction="J3" toJunction="J0" end="6080" vehsPerHour="98.68055920006296"/>
  <flow id="JF66634" begin="6020" fromJunction="J0" toJunction="J3" end="6080" vehsPerHour="94.11309176599882"/>
  <flow id="JF66635" begin="6020" fromJunction="J3" toJunction="J2" end="6080" vehsPerHour="98.28523363298788"/>
  <flow id="JF66636" begin="6020" fromJunction="J3" toJunction="J4" end="6080" vehsPerHour="99.55232372942643"/>
  <flow id="JF66637" begin="6020" fromJunction="J0" toJunction="J2" end="6080" vehsPerHour="134.80906395818536"/>
  <flow id="JF66638" begin="6020" fromJunction="J0" toJunction="J4" end="6080" vehsPerHour="58.20206586960591"/>
  <flow id="JF66639" begin="6020" fromJunction="J2" toJunction="J4" end="6080" vehsPerHour="63.807060577682485"/>
  <flow id="JF66640" begin="6020" fromJunction="J4" toJunction="J2" end="6080" vehsPerHour="42.65232999021835"/>
  <flow id="JF66641" begin="6020" fromJunction="J2" toJunction="J3" end="6080" vehsPerHour="35.25597204042775"/>
  <flow id="JF66642" begin="6020" fromJunction="J2" toJunction="J0" end="6080" vehsPerHour="77.58776181252207"/>
  <flow id="JF66643" begin="6020" fromJunction="J4" toJunction="J3" end="6080" vehsPerHour="12.851342364768563"/>
  <flow id="JF66644" begin="6020" fromJunction="J4" toJunction="J0" end="6080" vehsPerHour="61.92970653852676"/>
  <flow id="JF66645" begin="6080" fromJunction="J3" toJunction="J0" end="6140" vehsPerHour="98.45618587970804"/>
  <flow id="JF66646" begin="6080" fromJunction="J0" toJunction="J3" end="6140" vehsPerHour="175.46808574258637"/>
  <flow id="JF66647" begin="6080" fromJunction="J3" toJunction="J2" end="6140" vehsPerHour="110.33758016162601"/>
  <flow id="JF66648" begin="6080" fromJunction="J3" toJunction="J4" end="6140" vehsPerHour="59.10041368334137"/>
  <flow id="JF66649" begin="6080" fromJunction="J0" toJunction="J2" end="6140" vehsPerHour="30.584014085011678"/>
  <flow id="JF66650" begin="6080" fromJunction="J0" toJunction="J4" end="6140" vehsPerHour="86.65754300604277"/>
  <flow id="JF66651" begin="6140" fromJunction="J3" toJunction="J0" end="6200" vehsPerHour="58.01564874846275"/>
  <flow id="JF66652" begin="6140" fromJunction="J0" toJunction="J3" end="6200" vehsPerHour="201.09600250880854"/>
  <flow id="JF66653" begin="6140" fromJunction="J3" toJunction="J2" end="6200" vehsPerHour="23.751381313216765"/>
  <flow id="JF66654" begin="6140" fromJunction="J3" toJunction="J4" end="6200" vehsPerHour="125.34375370347401"/>
  <flow id="JF66655" begin="6140" fromJunction="J0" toJunction="J2" end="6200" vehsPerHour="0.9241969666547047"/>
  <flow id="JF66656" begin="6140" fromJunction="J0" toJunction="J4" end="6200" vehsPerHour="72.03260670418742"/>
  <flow id="JF66657" begin="6200" fromJunction="J3" toJunction="J0" end="6260" vehsPerHour="518.4236844238249"/>
  <flow id="JF66658" begin="6200" fromJunction="J0" toJunction="J3" end="6260" vehsPerHour="65.42469764294508"/>
  <flow id="JF66659" begin="6200" fromJunction="J3" toJunction="J2" end="6260" vehsPerHour="28.102922559078827"/>
  <flow id="JF66660" begin="6200" fromJunction="J3" toJunction="J4" end="6260" vehsPerHour="118.7123740435807"/>
  <flow id="JF66661" begin="6200" fromJunction="J0" toJunction="J2" end="6260" vehsPerHour="111.55005984285516"/>
  <flow id="JF66662" begin="6200" fromJunction="J0" toJunction="J4" end="6260" vehsPerHour="51.47385474966345"/>
  <flow id="JF66663" begin="6260" fromJunction="J3" toJunction="J0" end="6320" vehsPerHour="547.3584317246281"/>
  <flow id="JF66664" begin="6260" fromJunction="J0" toJunction="J3" end="6320" vehsPerHour="171.5201796960153"/>
  <flow id="JF66665" begin="6260" fromJunction="J3" toJunction="J2" end="6320" vehsPerHour="89.72612177823628"/>
  <flow id="JF66666" begin="6260" fromJunction="J3" toJunction="J4" end="6320" vehsPerHour="67.88201864514122"/>
  <flow id="JF66667" begin="6260" fromJunction="J0" toJunction="J2" end="6320" vehsPerHour="105.30445675914517"/>
  <flow id="JF66668" begin="6260" fromJunction="J0" toJunction="J4" end="6320" vehsPerHour="70.64074338753458"/>
  <flow id="JF66669" begin="6320" fromJunction="J3" toJunction="J0" end="6380" vehsPerHour="346.13499315150347"/>
  <flow id="JF66670" begin="6320" fromJunction="J0" toJunction="J3" end="6380" vehsPerHour="213.98227885174438"/>
  <flow id="JF66671" begin="6320" fromJunction="J3" toJunction="J2" end="6380" vehsPerHour="12.623644565196447"/>
  <flow id="JF66672" begin="6320" fromJunction="J3" toJunction="J4" end="6380" vehsPerHour="2.5028954285692278"/>
  <flow id="JF66673" begin="6320" fromJunction="J0" toJunction="J2" end="6380" vehsPerHour="134.17226975041848"/>
  <flow id="JF66674" begin="6320" fromJunction="J0" toJunction="J4" end="6380" vehsPerHour="6.50698294424825"/>
  <flow id="JF66675" begin="6380" fromJunction="J3" toJunction="J0" end="6440" vehsPerHour="165.66738621032903"/>
  <flow id="JF66676" begin="6380" fromJunction="J0" toJunction="J3" end="6440" vehsPerHour="220.51631303116753"/>
  <flow id="JF66677" begin="6380" fromJunction="J3" toJunction="J2" end="6440" vehsPerHour="115.09734578219675"/>
  <flow id="JF66678" begin="6380" fromJunction="J3" toJunction="J4" end="6440" vehsPerHour="128.60453914134612"/>
  <flow id="JF66679" begin="6380" fromJunction="J0" toJunction="J2" end="6440" vehsPerHour="71.37776643872425"/>
  <flow id="JF66680" begin="6380" fromJunction="J0" toJunction="J4" end="6440" vehsPerHour="66.12654053114605"/>
  <flow id="JF66681" begin="6380" fromJunction="J2" toJunction="J4" end="6440" vehsPerHour="13.72941892179281"/>
  <flow id="JF66682" begin="6380" fromJunction="J4" toJunction="J2" end="6440" vehsPerHour="100.05285946693193"/>
  <flow id="JF66683" begin="6380" fromJunction="J2" toJunction="J3" end="6440" vehsPerHour="31.29719609059731"/>
  <flow id="JF66684" begin="6380" fromJunction="J2" toJunction="J0" end="6440" vehsPerHour="29.206220438457343"/>
  <flow id="JF66685" begin="6380" fromJunction="J4" toJunction="J3" end="6440" vehsPerHour="129.3843619723163"/>
  <flow id="JF66686" begin="6380" fromJunction="J4" toJunction="J0" end="6440" vehsPerHour="10.32407548971688"/>
  <flow id="JF66687" begin="6440" fromJunction="J3" toJunction="J0" end="6500" vehsPerHour="78.76038890491121"/>
  <flow id="JF66688" begin="6440" fromJunction="J0" toJunction="J3" end="6500" vehsPerHour="76.8878731088447"/>
  <flow id="JF66689" begin="6440" fromJunction="J3" toJunction="J2" end="6500" vehsPerHour="73.9072142581319"/>
  <flow id="JF66690" begin="6440" fromJunction="J3" toJunction="J4" end="6500" vehsPerHour="58.907256645634966"/>
  <flow id="JF66691" begin="6440" fromJunction="J0" toJunction="J2" end="6500" vehsPerHour="88.65930948405433"/>
  <flow id="JF66692" begin="6440" fromJunction="J0" toJunction="J4" end="6500" vehsPerHour="40.172235521329725"/>
  <flow id="JF66693" begin="6500" fromJunction="J3" toJunction="J0" end="6560" vehsPerHour="514.6201577360323"/>
  <flow id="JF66694" begin="6500" fromJunction="J0" toJunction="J3" end="6560" vehsPerHour="447.91448692579047"/>
  <flow id="JF66695" begin="6500" fromJunction="J3" toJunction="J2" end="6560" vehsPerHour="34.07333904337196"/>
  <flow id="JF66696" begin="6500" fromJunction="J3" toJunction="J4" end="6560" vehsPerHour="130.52556332640262"/>
  <flow id="JF66697" begin="6500" fromJunction="J0" toJunction="J2" end="6560" vehsPerHour="25.252937629438815"/>
  <flow id="JF66698" begin="6500" fromJunction="J0" toJunction="J4" end="6560" vehsPerHour="110.57898060853513"/>
  <flow id="JF66699" begin="6560" fromJunction="J3" toJunction="J0" end="6620" vehsPerHour="232.14970597864374"/>
  <flow id="JF66700" begin="6560" fromJunction="J0" toJunction="J3" end="6620" vehsPerHour="36.17461887462425"/>
  <flow id="JF66701" begin="6560" fromJunction="J3" toJunction="J2" end="6620" vehsPerHour="115.01288987255296"/>
  <flow id="JF66702" begin="6560" fromJunction="J3" toJunction="J4" end="6620" vehsPerHour="52.83792566205581"/>
  <flow id="JF66703" begin="6560" fromJunction="J0" toJunction="J2" end="6620" vehsPerHour="56.49944045236083"/>
  <flow id="JF66704" begin="6560" fromJunction="J0" toJunction="J4" end="6620" vehsPerHour="122.8902993258183"/>
  <flow id="JF66705" begin="6560" fromJunction="J2" toJunction="J4" end="6620" vehsPerHour="132.475887999918"/>
  <flow id="JF66706" begin="6560" fromJunction="J4" toJunction="J2" end="6620" vehsPerHour="105.8502509296174"/>
  <flow id="JF66707" begin="6560" fromJunction="J2" toJunction="J3" end="6620" vehsPerHour="42.057969594189714"/>
  <flow id="JF66708" begin="6560" fromJunction="J2" toJunction="J0" end="6620" vehsPerHour="118.1882866564555"/>
  <flow id="JF66709" begin="6560" fromJunction="J4" toJunction="J3" end="6620" vehsPerHour="24.59158211024827"/>