<?xml version="1.0" encoding="UTF-8"?>
<routes xmlns:xsi="http://www.w3.org/2001/XMLSchema-instance" xsi:noNamespaceSchemaLocation="http://sumo.dlr.de/xsd/routes_file.xsd">
  <flow id="JF62229" begin="0" fromJunction="J3" toJunction="J0" end="5000" vehsPerHour="476.31065220434937"/>
  <flow id="JF62230" begin="0" fromJunction="J0" toJunction="J3" end="5000" vehsPerHour="706.7048000418985"/>
  <flow id="JF62231" begin="0" fromJunction="J3" toJunction="J2" end="5000" vehsPerHour="25.437693410807324"/>
  <flow id="JF62232" begin="0" fromJunction="J3" toJunction="J4" end="5000" vehsPerHour="91.58310423455934"/>
  <flow id="JF62233" begin="0" fromJunction="J0" toJunction="J2" end="5000" vehsPerHour="11.740471063800774"/>
  <flow id="JF62234" begin="0" fromJunction="J0" toJunction="J4" end="5000" vehsPerHour="98.61221111132394"/>
  <flow id="JF62235" begin="0" fromJunction="J2" toJunction="J4" end="5000" vehsPerHour="315.2417309585556"/>
  <flow id="JF62236" begin="0" fromJunction="J4" toJunction="J2" end="5000" vehsPerHour="374.6678331745047"/>
  <flow id="JF62237" begin="0" fromJunction="J2" toJunction="J3" end="5000" vehsPerHour="66.02978178725898"/>
  <flow id="JF62238" begin="0" fromJunction="J2" toJunction="J0" end="5000" vehsPerHour="69.21220900665215"/>
  <flow id="JF62239" begin="0" fromJunction="J4" toJunction="J3" end="5000" vehsPerHour="136.14210506131388"/>
  <flow id="JF62240" begin="0" fromJunction="J4" toJunction="J0" end="5000" vehsPerHour="118.21593575305877"/>
  <flow id="JF62241" begin="5000" fromJunction="J3" toJunction="J0" end="5060" vehsPerHour="509.83682364112684"/>
  <flow id="JF62242" begin="5000" fromJunction="J0" toJunction="J3" end="5060" vehsPerHour="107.74014413851242"/>
  <flow id="JF62243" begin="5000" fromJunction="J3" toJunction="J2" end="5060" vehsPerHour="22.43057221802518"/>
  <flow id="JF62244" begin="5000" fromJunction="J3" toJunction="J4" end="5060" vehsPerHour="90.73885893623293"/>
  <flow id="JF62245" begin="5000" fromJunction="J0" toJunction="J2" end="5060" vehsPerHour="82.41734482302397"/>
  <flow id="JF62246" begin="5000" fromJunction="J0" toJunction="J4" end="5060" vehsPerHour="111.1260114780933"/>
  <flow id="JF62247" begin="5060" fromJunction="J3" toJunction="J0" end="5120" vehsPerHour="514.1271179749325"/>
  <flow id="JF62248" begin="5060" fromJunction="J0" toJunction="J3" end="5120" vehsPerHour="301.3022179045526"/>
  <flow id="JF62249" begin="5060" fromJunction="J3" toJunction="J2" end="5120" vehsPerHour="12.918637829666235"/>
  <flow id="JF62250" begin="5060" fromJunction="J3" toJunction="J4" end="5120" vehsPerHour="89.64505990333859"/>
  <flow id="JF62251" begin="5060" fromJunction="J0" toJunction="J2" end="5120" vehsPerHour="27.91208629814073"/>
  <flow id="JF62252" begin="5060" fromJunction="J0" toJunction="J4" end="5120" vehsPerHour="116.91020499385279"/>
  <flow id="JF62253" begin="5120" fromJunction="J3" toJunction="J0" end="5180" vehsPerHour="390.84570952153206"/>
  <flow id="JF62254" begin="5120" fromJunction="J0" toJunction="J3" end="5180" vehsPerHour="162.70291896151213"/>
  <flow id="JF62255" begin="5120" fromJunction="J3" toJunction="J2" end="5180" vehsPerHour="56.03544666037432"/>
  <flow id="JF62256" begin="5120" fromJunction="J3" toJunction="J4" end="5180" vehsPerHour="57.00216558552814"/>
  <flow id="JF62257" begin="5120" fromJunction="J0" toJunction="J2" end="5180" vehsPerHour="100.6067110918778"/>
  <flow id="JF62258" begin="5120" fromJunction="J0" toJunction="J4" end="5180" vehsPerHour="111.2284488947454"/>
  <flow id="JF62259" begin="5180" fromJunction="J3" toJunction="J0" end="5240" vehsPerHour="236.70126680189566"/>
  <flow id="JF62260" begin="5180" fromJunction="J0" toJunction="J3" end="5240" vehsPerHour="281.3108110259073"/>
  <flow id="JF62261" begin="5180" fromJunction="J3" toJunction="J2" end="5240" vehsPerHour="81.80705678498329"/>
  <flow id="JF62262" begin="5180" fromJunction="J3" toJunction="J4" end="5240" vehsPerHour="85.08680886116538"/>
  <flow id="JF62263" begin="5180" fromJunction="J0" toJunction="J2" end="5240" vehsPerHour="8.100986437338387"/>
  <flow id="JF62264" begin="5180" fromJunction="J0" toJunction="J4" end="5240" vehsPerHour="119.558500993281"/>
  <flow id="JF62265" begin="5180" fromJunction="J2" toJunction="J4" end="5240" vehsPerHour="60.63625457743068"/>
  <flow id="JF62266" begin="5180" fromJunction="J4" toJunction="J2" end="5240" vehsPerHour="1.5560792650446826"/>
  <flow id="JF62267" begin="5180" fromJunction="J2" toJunction="J3" end="5240" vehsPerHour="100.61975703285874"/>
  <flow id="JF62268" begin="5180" fromJunction="J2" toJunction="J0" end="5240" vehsPerHour="119.75054397173884"/>
  <flow id="JF62269" begin="5180" fromJunction="J4" toJunction="J3" end="5240" vehsPerHour="113.78750441253251"/>
  <flow id="JF62270" begin="5180" fromJunction="J4" toJunction="J0" end="5240" vehsPerHour="89.80054762193463"/>
  <flow id="JF62271" begin="5240" fromJunction="J3" toJunction="J0" end="5300" vehsPerHour="127.96495366512097"/>
  <flow id="JF62272" begin="5240" fromJunction="J0" toJunction="J3" end="5300" vehsPerHour="419.0324181050668"/>
  <flow id="JF62273" begin="5240" fromJunction="J3" toJunction="J2" end="5300" vehsPerHour="99.96295037762094"/>
  <flow id="JF62274" begin="5240" fromJunction="J3" toJunction="J4" end="5300" vehsPerHour="116.55582087408865"/>
  <flow id="JF62275" begin="5240" fromJunction="J0" toJunction="J2" end="5300" vehsPerHour="85.03514584091941"/>
  <flow id="JF62276" begin="5240" fromJunction="J0" toJunction="J4" end="5300" vehsPerHour="95.25971806927535"/>
  <flow id="JF62277" begin="5240" fromJunction="J2" toJunction="J4" end="5300" vehsPerHour="110.0183908110353"/>
  <flow id="JF62278" begin="5240" fromJunction="J4" toJunction="J2" end="5300" vehsPerHour="100.47356469415948"/>
  <flow id="JF62279" begin="5240" fromJunction="J2" toJunction="J3" end="5300" vehsPerHour="23.30848125589912"/>
  <flow id="JF62280" begin="5240" fromJunction="J2" toJunction="J0" end="5300" vehsPerHour="55.592440001729294"/>
  <flow id="JF62281" begin="5240" fromJunction="J4" toJunction="J3" end="5300" vehsPerHour="92.78922435777471"/>
  <flow id="JF62282" begin="5240" fromJunction="J4" toJunction="J0" end="5300" vehsPerHour="6.471462068564441"/>
  <flow id="JF62283" begin="5300" fromJunction="J3" toJunction="J0" end="5360" vehsPerHour="23.024362892426776"/>
  <flow id="JF62284" begin="5300" fromJunction="J0" toJunction="J3" end="5360" vehsPerHour="274.4798420461654"/>
  <flow id="JF62285" begin="5300" fromJunction="J3" toJunction="J2" end="5360" vehsPerHour="10.21161005524851"/>
  <flow id="JF62286" begin="5300" fromJunction="J3" toJunction="J4" end="5360" vehsPerHour="78.06056850941827"/>
  <flow id="JF62287" begin="5300" fromJunction="J0" toJunction="J2" end="5360" vehsPerHour="116.51311065861695"/>
  <flow id="JF62288" begin="5300" fromJunction="J0" toJunction="J4" end="5360" vehsPerHour="55.72000471328373"/>
  <flow id="JF62289" begin="5360" fromJunction="J3" toJunction="J0" end="5420" vehsPerHour="509.70501041955066"/>
  <flow id="JF62290" begin="5360" fromJunction="J0" toJunction="J3" end="5420" vehsPerHour="150.7687042786616"/>
  <flow id="JF62291" begin="5360" fromJunction="J3" toJunction="J2" end="5420" vehsPerHour="39.17362162978564"/>
  <flow id="JF62292" begin="5360" fromJunction="J3" toJunction="J4" end="5420" vehsPerHour="31.398960177139436"/>
  <flow id="JF62293" begin="5360" fromJunction="J0" toJunction="J2" end="5420" vehsPerHour="33.5006998023227"/>
  <flow id="JF62294" begin="5360" fromJunction="J0" toJunction="J4" end="5420" vehsPerHour="48.304670791079154"/>
  <flow id="JF62295" begin="5420" fromJunction="J3" toJunction="J0" end="5480" vehsPerHour="187.5414029509895"/>
  <flow id="JF62296" begin="5420" fromJunction="J0" toJunction="J3" end="5480" vehsPerHour="22.68040806986947"/>
  <flow id="JF62297" begin="5420" fromJunction="J3" toJunction="J2" end="5480" vehsPerHour="30.87629067865371"/>
  <flow id="JF62298" begin="5420" fromJunction="J3" toJunction="J4" end="5480" vehsPerHour="87.44570533312637"/>
  <flow id="JF62299" begin="5420" fromJunction="J0" toJunction="J2" end="5480" vehsPerHour="63.94861824617384"/>
  <flow id="JF62300" begin="5420" fromJunction="J0" toJunction="J4" end="5480" vehsPerHour="116.29976289085519"/>
  <flow id="JF62301" begin="5420" fromJunction="J2" toJunction="J4" end="5480" vehsPerHour="124.87271776724666"/>
  <flow id="JF62302" begin="5420" fromJunction="J4" toJunction="J2" end="5480" vehsPerHour="113.7985274940274"/>
  <flow id="JF62303" begin="5420" fromJunction="J2" toJunction="J3" end="5480" vehsPerHour="30.447681551153167"/>
  <flow id="JF62304" begin="5420" fromJunction="J2" toJunction="J0" end="5480" vehsPerHour="71.9471693643659"/>
  <flow id="JF62305" begin="5420" fromJunction="J4" toJunction="J3" end="5480" vehsPerHour="14.998606173686085"/>
  <flow id="JF62306" begin="5420" fromJunction="J4" toJunction="J0" end="5480" vehsPerHour="4.245593638633752"/>
  <flow id="JF62307" begin="5480" fromJunction="J3" toJunction="J0" end="5540" vehsPerHour="48.62112082827821"/>
  <flow id="JF62308" begin="5480" fromJunction="J0" toJunction="J3" end="5540" vehsPerHour="345.697300807958"/>
  <flow id="JF62309" begin="5480" fromJunction="J3" toJunction="J2" end="5540" vehsPerHour="28.576789534507157"/>
  <flow id="JF62310" begin="5480" fromJunction="J3" toJunction="J4" end="5540" vehsPerHour="60.60126792096421"/>
  <flow id="JF62311" begin="5480" fromJunction="J0" toJunction="J2" end="5540" vehsPerHour="119.79319223762984"/>
  <flow id="JF62312" begin="5480" fromJunction="J0" toJunction="J4" end="5540" vehsPerHour="60.67389626811583"/>
  <flow id="JF62313" begin="5540" fromJunction="J3" toJunction="J0" end="5600" vehsPerHour="205.24758472752558"/>
  <flow id="JF62314" begin="5540" fromJunction="J0" toJunction="J3" end="5600" vehsPerHour="433.63988183738104"/>
  <flow id="JF62315" begin="5540" fromJunction="J3" toJunction="J2" end="5600" vehsPerHour="35.2867891623374"/>
  <flow id="JF62316" begin="5540" fromJunction="J3" toJunction="J4" end="5600" vehsPerHour="99.56019091302903"/>
  <flow id="JF62317" begin="5540" fromJunction="J0" toJunction="J2" end="5600" vehsPerHour="121.61010741072357"/>
  <flow id="JF62318" begin="5540" fromJunction="J0" toJunction="J4" end="5600" vehsPerHour="105.09729514051014"/>
  <flow id="JF62319" begin="5540" fromJunction="J2" toJunction="J4" end="5600" vehsPerHour="78.41567458185594"/>
  <flow id="JF62320" begin="5540" fromJunction="J4" toJunction="J2" end="5600" vehsPerHour="75.65412091344034"/>
  <flow id="JF62321" begin="5540" fromJunction="J2" toJunction="J3" end="5600" vehsPerHour="8.070143858714458"/>
  <flow id="JF62322" begin="5540" fromJunction="J2" toJunction="J0" end="5600" vehsPerHour="23.75432561452507"/>
  <flow id="JF62323" begin="5540" fromJunction="J4" toJunction="J3" end="5600" vehsPerHour="39.601451730356445"/>
  <flow id="JF62324" begin="5540" fromJunction="J4" toJunction="J0" end="5600" vehsPerHour="91.97988190314533"/>
  <flow id="JF62325" begin="5600" fromJunction="J3" toJunction="J0" end="5660" vehsPerHour="161.16158805933378"/>
  <flow id="JF62326" begin="5600" fromJunction="J0" toJunction="J3" end="5660" vehsPerHour="486.86752221891413"/>
  <flow id="JF62327" begin="5600" fromJunction="J3" toJunction="J2" end="5660" vehsPerHour="121.86216012988643"/>
  <flow id="JF62328" begin="5600" fromJunction="J3" toJunction="J4" end="5660" vehsPerHour="36.00627003562982"/>
  <flow id="JF62329" begin="5600" fromJunction="J0" toJunction="J2" end="5660" vehsPerHour="69.54308022702142"/>
  <flow id="JF62330" begin="5600" fromJunction="J0" toJunction="J4" end="5660" vehsPerHour="21.915396650322435"/>
  <flow id="JF62331" begin="5660" fromJunction="J3" toJunction="J0" end="5720" vehsPerHour="380.8113369681486"/>
  <flow id="JF62332" begin="5660" fromJunction="J0" toJunction="J3" end="5720" vehsPerHour="48.383097390464506"/>
  <flow id="JF62333" begin="5660" fromJunction="J3" toJunction="J2" end="5720" vehsPerHour="78.93646074660755"/>
  <flow id="JF62334" begin="5660" fromJunction="J3" toJunction="J4" end="5720" vehsPerHour="63.64207169195587"/>
  <flow id="JF62335" begin="5660" fromJunction="J0" toJunction="J2" end="5720" vehsPerHour="136.9320314063237"/>
  <flow id="JF62336" begin="5660" fromJunction="J0" toJunction="J4" end="5720" vehsPerHour="43.92069031752608"/>
  <flow id="JF62337" begin="5660" fromJunction="J2" toJunction="J4" end="5720" vehsPerHour="1.4535372942258094"/>
  <flow id="JF62338" begin="5660" fromJunction="J4" toJunction="J2" end="5720" vehsPerHour="134.63618233725052"/>
  <flow id="JF62339" begin="5660" fromJunction="J2" toJunction="J3" end="5720" vehsPerHour="1.8892281959137174"/>
  <flow id="JF62340" begin="5660" fromJunction="J2" toJunction="J0" end="5720" vehsPerHour="100.80395136962191"/>
  <flow id="JF62341" begin="5660" fromJunction="J4" toJunction="J3" end="5720" vehsPerHour="31.42606951148444"/>
  <flow id="JF62342" begin="5660" fromJunction="J4" toJunction="J0" end="5720" vehsPerHour="19.8158197719264"/>
  <flow id="JF62343" begin="5720" fromJunction="J3" toJunction="J0" end="5780" vehsPerHour="340.4585742433696"/>
  <flow id="JF62344" begin="5720" fromJunction="J0" toJunction="J3" end="5780" vehsPerHour="448.54459265519716"/>
  <flow id="JF62345" begin="5720" fromJunction="J3" toJunction="J2" end="5780" vehsPerHour="31.038576503713383"/>
  <flow id="JF62346" begin="5720" fromJunction="J3" toJunction="J4" end="5780" vehsPerHour="49.23085742339277"/>
  <flow id="JF62347" begin="5720" fromJunction="J0" toJunction="J2" end="5780" vehsPerHour="134.1959218721066"/>
  <flow id="JF62348" begin="5720" fromJunction="J0" toJunction="J4" end="5780" vehsPerHour="81.85971091364806"/>
  <flow id="JF62349" begin="5780" fromJunction="J3" toJunction="J0" end="5840" vehsPerHour="435.02941126829234"/>
  <flow id="JF62350" begin="5780" fromJunction="J0" toJunction="J3" end="5840" vehsPerHour="493.72611222896853"/>
  <flow id="JF62351" begin="5780" fromJunction="J3" toJunction="J2" end="5840" vehsPerHour="107.95396372706932"/>
  <flow id="JF62352" begin="5780" fromJunction="J3" toJunction="J4" end="5840" vehsPerHour="91.68787604105631"/>
  <flow id="JF62353" begin="5780" fromJunction="J0" toJunction="J2" end="5840" vehsPerHour="64.95094731895975"/>
  <flow id="JF62354" begin="5780" fromJunction="J0" toJunction="J4" end="5840" vehsPerHour="36.95418452818792"/>
  <flow id="JF62355" begin="5780" fromJunction="J2" toJunction="J4" end="5840" vehsPerHour="111.9559609839824"/>
  <flow id="JF62356" begin="5780" fromJunction="J4" toJunction="J2" end="5840" vehsPerHour="64.68343952547555"/>
  <flow id="JF62357" begin="5780" fromJunction="J2" toJunction="J3" end="5840" vehsPerHour="101.91742830214767"/>
  <flow id="JF62358" begin="5780" fromJunction="J2" toJunction="J0" end="5840" vehsPerHour="66.12313760518846"/>
  <flow id="JF62359" begin="5780" fromJunction="J4" toJunction="J3" end="5840" vehsPerHour="94.08013078762855"/>
  <flow id="JF62360" begin="5780" fromJunction="J4" toJunction="J0" end="5840" vehsPerHour="98.99803376568434"/>
  <flow id="JF62361" begin="5840" fromJunction="J3" toJunction="J0" end="5900" vehsPerHour="169.85086144804168"/>
  <flow id="JF62362" begin="5840" fromJunction="J0" toJunction="J3" end="5900" vehsPerHour="548.2565212138967"/>
  <flow id="JF62363" begin="5840" fromJunction="J3" toJunction="J2" end="5900" vehsPerHour="21.59037918673718"/>
  <flow id="JF62364" begin="5840" fromJunction="J3" toJunction="J4" end="5900" vehsPerHour="118.78193582337298"/>
  <flow id="JF62365" begin="5840" fromJunction="J0" toJunction="J2" end="5900" vehsPerHour="87.88389447215744"/>
  <flow id="JF62366" begin="5840" fromJunction="J0" toJunction="J4" end="5900" vehsPerHour="74.93113283732042"/>
  <flow id="JF62367" begin="5900" fromJunction="J3" toJunction="J0" end="5960" vehsPerHour="56.33117381079331"/>
  <flow id="JF62368" begin="5900" fromJunction="J0" toJunction="J3" end="5960" vehsPerHour="87.29381139299316"/>
  <flow id="JF62369" begin="5900" fromJunction="J3" toJunction="J2" end="5960" vehsPerHour="102.29806350355028"/>
  <flow id="JF62370" begin="5900" fromJunction="J3" toJunction="J4" end="5960" vehsPerHour="41.922182186150984"/>
  <flow id="JF62371" begin="5900" fromJunction="J0" toJunction="J2" end="5960" vehsPerHour="133.86766263246903"/>
  <flow id="JF62372" begin="5900" fromJunction="J0" toJunction="J4" end="5960" vehsPerHour="23.35289640321626"/>
  <flow id="JF62373" begin="5900" fromJunction="J2" toJunction="J4" end="5960" vehsPerHour="128.97747514973133"/>
  <flow id="JF62374" begin="5900" fromJunction="J4" toJunction="J2" end="5960" vehsPerHour="108.05073103280768"/>
  <flow id="JF62375" begin="5900" fromJunction="J2" toJunction="J3" end="5960" vehsPerHour="13.356833427389693"/>
  <flow id="JF62376" begin="5900" fromJunction="J2" toJunction="J0" end="5960" vehsPerHour="56.45796969836285"/>
  <flow id="JF62377" begin="5900" fromJunction="J4" toJunction="J3" end="5960" vehsPerHour="127.07764801129417"/>
  <flow id="JF62378" begin="5900" fromJunction="J4" toJunction="J0" end="5960" vehsPerHour="46.34233832364981"/>
  <flow id="JF62379" begin="5960" fromJunction="J3" toJunction="J0" end="6020" vehsPerHour="140.73837487756404"/>
  <flow id="JF62380" begin="5960" fromJunction="J0" toJunction="J3" end="6020" vehsPerHour="348.60163215973"/>
  <flow id="JF62381" begin="5960" fromJunction="J3" toJunction="J2" end="6020" vehsPerHour="75.71278971023295"/>
  <flow id="JF62382" begin="5960" fromJunction="J3" toJunction="J4" end="6020" vehsPerHour="47.02069445126817"/>
  <flow id="JF62383" begin="5960" fromJunction="J0" toJunction="J2" end="6020" vehsPerHour="83.3681840166763"/>
  <flow id="JF62384" begin="5960" fromJunction="J0" toJunction="J4" end="6020" vehsPerHour="17.872689981751098"/>
  <flow id="JF62385" begin="5960" fromJunction="J2" toJunction="J4" end="6020" vehsPerHour="91.80624801687499"/>
  <flow id="JF62386" begin="5960" fromJunction="J4" toJunction="J2" end="6020" vehsPerHour="29.366751106660946"/>
  <flow id="JF62387" begin="5960" fromJunction="J2" toJunction="J3" end="6020" vehsPerHour="116.26286520055412"/>
  <flow id="JF62388" begin="5960" fromJunction="J2" toJunction="J0" end="6020" vehsPerHour="50.114398938413274"/>
  <flow id="JF62389" begin="5960" fromJunction="J4" toJunction="J3" end="6020" vehsPerHour="14.717627945587752"/>
  <flow id="JF62390" begin="5960" fromJunction="J4" toJunction="J0" end="6020" vehsPerHour="111.56700661772174"/>
  <flow id="JF62391" begin="6020" fromJunction="J3" toJunction="J0" end="6080" vehsPerHour="490.81062046388166"/>
  <flow id="JF62392" begin="6020" fromJunction="J0" toJunction="J3" end="6080" vehsPerHour="104.6351451242468"/>
  <flow id="JF62393" begin="6020" fromJunction="J3" toJunction="J2" end="6080" vehsPerHour="46.55073587545679"/>
  <flow id="JF62394" begin="6020" fromJunction="J3" toJunction="J4" end="6080" vehsPerHour="12.76108536652409"/>
  <flow id="JF62395" begin="6020" fromJunction="J0" toJunction="J2" end="6080" vehsPerHour="98.63478613359167"/>
  <flow id="JF62396" begin="6020" fromJunction="J0" toJunction="J4" end="6080" vehsPerHour="36.70061488427258"/>
  <flow id="JF62397" begin="6020" fromJunction="J2" toJunction="J4" end="6080" vehsPerHour="23.078876481984906"/>
  <flow id="JF62398" begin="6020" fromJunction="J4" toJunction="J2" end="6080" vehsPerHour="67.75684612599457"/>
  <flow id="JF62399" begin="6020" fromJunction="J2" toJunction="J3" end="6080" vehsPerHour="127.11556836600802"/>
  <flow id="JF62400" begin="6020" fromJunction="J2" toJunction="J0" end="6080" vehsPerHour="8.424472901699891"/>
  <flow id="JF62401" begin="6020" fromJunction="J4" toJunction="J3" end="6080" vehsPerHour="134.92669671146308"/>
  <flow id="JF62402" begin="6020" fromJunction="J4" toJunction="J0" end="6080" vehsPerHour="122.81366266925687"/>
  <flow id="JF62403" begin="6080" fromJunction="J3" toJunction="J0" end="6140" vehsPerHour="55.50178748619298"/>
  <flow id="JF62404" begin="6080" fromJunction="J0" toJunction="J3" end="6140" vehsPerHour="181.69096014409277"/>
  <flow id="JF62405" begin="6080" fromJunction="J3" toJunction="J2" end="6140" vehsPerHour="94.14494401631049"/>
  <flow id="JF62406" begin="6080" fromJunction="J3" toJunction="J4" end="6140" vehsPerHour="12.014518779411567"/>
  <flow id="JF62407" begin="6080" fromJunction="J0" toJunction="J2" end="6140" vehsPerHour="57.74284798002328"/>
  <flow id="JF62408" begin="6080" fromJunction="J0" toJunction="J4" end="6140" vehsPerHour="29.359073430676734"/>
  <flow id="JF62409" begin="6080" fromJunction="J2" toJunction="J4" end="6140" vehsPerHour="123.05466642861032"/>
  <flow id="JF62410" begin="6080" fromJunction="J4" toJunction="J2" end="6140" vehsPerHour="45.45603181965469"/>
  <flow id="JF62411" begin="6080" fromJunction="J2" toJunction="J3" end="6140" vehsPerHour="27.894040116849773"/>
  <flow id="JF62412" begin="6080" fromJunction="J2" toJunction="J0" end="6140" vehsPerHour="84.27007281876314"/>
  <flow id="JF62413" begin="6080" fromJunction="J4" toJunction="J3" end="6140" vehsPerHour="80.38413554570452"/>
  <flow id="JF62414" begin="6080" fromJunction="J4" toJunction="J0" end="6140" vehsPerHour="119.12365498239917"/>
  <flow id="JF62415" begin="6140" fromJunction="J3" toJunction="J0" end="6200" vehsPerHour="318.40112351373836"/>
  <flow id="JF62416" begin="6140" fromJunction="J0" toJunction="J3" end="6200" vehsPerHour="350.1759291619615"/>
  <flow id="JF62417" begin="6140" fromJunction="J3" toJunction="J2" end="6200" vehsPerHour="112.85889743285072"/>
  <flow id="JF62418" begin="6140" fromJunction="J3" toJunction="J4" end="6200" vehsPerHour="39.26478722856172"/>
  <flow id="JF62419" begin="6140" fromJunction="J0" toJunction="J2" end="6200" vehsPerHour="122.50534117353273"/>
  <flow id="JF62420" begin="6140" fromJunction="J0" toJunction="J4" end="6200" vehsPerHour="89.20200807157097"/>
  <flow id="JF62421" begin="6200" fromJunction="J3" toJunction="J0" end="6260" vehsPerHour="411.4549353151697"/>
  <flow id="JF62422" begin="6200" fromJunction="J0" toJunction="J3" end="6260" vehsPerHour="487.20897969886147"/>
  <flow id="JF62423" begin="6200" fromJunction="J3" toJunction="J2" end="6260" vehsPerHour="75.9704476705918"/>
  <flow id="JF62424" begin="6200" fromJunction="J3" toJunction="J4" end="6260" vehsPerHour="78.68016661593529"/>
  <flow id="JF62425" begin="6200" fromJunction="J0" toJunction="J2" end="6260" vehsPerHour="75.43399916812567"/>
  <flow id="JF62426" begin="6200" fromJunction="J0" toJunction="J4" end="6260" vehsPerHour="45.17996291697204"/>
  <flow id="JF62427" begin="6260" fromJunction="J3" toJunction="J0" end="6320" vehsPerHour="335.87603041999614"/>
  <flow id="JF62428" begin="6260" fromJunction="J0" toJunction="J3" end="6320" vehsPerHour="533.5342374393523"/>
  <flow id="JF62429" begin="6260" fromJunction="J3" toJunction="J2" end="6320" vehsPerHour="57.07617907601157"/>
  <flow id="JF62430" begin="6260" fromJunction="J3" toJunction="J4" end="6320" vehsPerHour="71.27292199571421"/>
  <flow id="JF62431" begin="6260" fromJunction="J0" toJunction="J2" end="6320" vehsPerHour="102.35524349335569"/>
  <flow id="JF62432" begin="6260" fromJunction="J0" toJunction="J4" end="6320" vehsPerHour="109.38632480057687"/>
  <flow id="JF62433" begin="6260" fromJunction="J2" toJunction="J4" end="6320" vehsPerHour="132.7378087259927"/>
  <flow id="JF62434" begin="6260" fromJunction="J4" toJunction="J2" end="6320" vehsPerHour="97.00287282849848"/>
  <flow id="JF62435" begin="6260" fromJunction="J2" toJunction="J3" end="6320" vehsPerHour="4.312754926486259"/>
  <flow id="JF62436" begin="6260" fromJunction="J2" toJunction="J0" end="6320" vehsPerHour="41.295525024211564"/>
  <flow id="JF62437" begin="6260" fromJunction="J4" toJunction="J3" end="6320" vehsPerHour="104.80893274228065"/>
  <flow id="JF62438" begin="6260" fromJunction="J4" toJunction="J0" end="6320" vehsPerHour="6.782070855290287"/>
  <flow id="JF62439" begin="6320" fromJunction="J3" toJunction="J0" end="6380" vehsPerHour="215.76428978781723"/>
  <flow id="JF62440" begin="6320" fromJunction="J0" toJunction="J3" end="6380" vehsPerHour="308.8919178896158"/>
  <flow id="JF62441" begin="6320" fromJunction="J3" toJunction="J2" end="6380" vehsPerHour="100.30566226308106"/>
  <flow id="JF62442" begin="6320" fromJunction="J3" toJunction="J4" end="6380" vehsPerHour="71.23909772882816"/>
  <flow id="JF62443" begin="6320" fromJunction="J0" toJunction="J2" end="6380" vehsPerHour="33.86641961737974"/>
  <flow id="JF62444" begin="6320" fromJunction="J0" toJunction="J4" end="6380" vehsPerHour="85.12856868483324"/>
  <flow id="JF62445" begin="6320" fromJunction="J2" toJunction="J4" end="6380" vehsPerHour="101.99041318604974"/>
  <flow id="JF62446" begin="6320" fromJunction="J4" toJunction="J2" end="6380" vehsPerHour="38.519126217382365"/>
  <flow id="JF62447" begin="6320" fromJunction="J2" toJunction="J3" end="6380" vehsPerHour="85.78035026350437"/>
  <flow id="JF62448" begin="6320" fromJunction="J2" toJunction="J0" end="6380" vehsPerHour="84.79216518634983"/>
  <flow id="JF62449" begin="6320" fromJunction="J4" toJunction="J3" end="6380" vehsPerHour="19.344616900175776"/>
  <flow id="JF62450" begin="6320" fromJunction="J4" toJunction="J0" end="6380" vehsPerHour="57.17655610291769"/>
  <flow id="JF62451" begin="6380" fromJunction="J3" toJunction="J0" end="6440" vehsPerHour="404.4399871290894"/>
  <flow id="JF62452" begin="6380" fromJunction="J0" toJunction="J3" end="6440" vehsPerHour="457.7874346199004"/>
  <flow id="JF62453" begin="6380" fromJunction="J3" toJunction="J2" end="6440" vehsPerHour="7.150456777776113"/>
  <flow id="JF62454" begin="6380" fromJunction="J3" toJunction="J4" end="6440" vehsPerHour="100.13022505413107"/>
  <flow id="JF62455" begin="6380" fromJunction="J0" toJunction="J2" end="6440" vehsPerHour="70.80997704573112"/>
  <flow id="JF62456" begin="6380" fromJunction="J0" toJunction="J4" end="6440" vehsPerHour="56.38549422988728"/>
  <flow id="JF62457" begin="6440" fromJunction="J3" toJunction="J0" end="6500" vehsPerHour="283.17740019675165"/>
  <flow id="JF62458" begin="6440" fromJunction="J0" toJunction="J3" end="6500" vehsPerHour="176.90652803131945"/>
  <flow id="JF62459" begin="6440" fromJunction="J3" toJunction="J2" end="6500" vehsPerHour="72.63790366908955"/>
  <flow id="JF62460" begin="6440" fromJunction="J3" toJunction="J4" end="6500" vehsPerHour="133.04609641551937"/>
  <flow id="JF62461" begin="6440" fromJunction="J0" toJunction="J2" end="6500" vehsPerHour="122.78312317943531"/>
  <flow id="JF62462" begin="6440" fromJunction="J0" toJunction="J4" end="6500" vehsPerHour="94.1125114598293"/>
  <flow id="JF62463" begin="6500" fromJunction="J3" toJunction="J0" end="6560" vehsPerHour="294.2063020080042"/>
  <flow id="JF62464" begin="6500" fromJunction="J0" toJunction="J3" end="6560" vehsPerHour="4.740616813493393"/>
  <flow id="JF62465" begin="6500" fromJunction="J3" toJunction="J2" end="6560" vehsPerHour="125.52290643923759"/>
  <flow id="JF62466" begin="6500" fromJunction="J3" toJunction="J4" end="6560" vehsPerHour="105.21723601674029"/>
  <flow id="JF62467" begin="6500" fromJunction="J0" toJunction="J2" end="6560" vehsPerHour="49.316520079622336"/>
  <flow id="JF62468" begin="6500" fromJunction="J0" toJunction="J4" end="6560" vehsPerHour="45.347164536060596"/>
  <flow id="JF62469" begin="6500" fromJunction="J2" toJunction="J4" end="6560" vehsPerHour="14.083173044904868"/>
  <flow id="JF62470" begin="6500" fromJunction="J4" toJunction="J2" end="6560" vehsPerHour="129.82365982143077"/>
  <flow id="JF62471" begin="6500" fromJunction="J2" toJunction="J3" end="6560" vehsPerHour="35.872786094674666"/>
  <flow id="JF62472" begin="6500" fromJunction="J2" toJunction="J0" end="6560" vehsPerHour="110.7988265924993"/>
  <flow id="JF62473" begin="6500" fromJunction="J4" toJunction="J3" end="6560" vehsPerHour="89.30060221550075"/>
  <flow id="JF62474" begin="6500" fromJunction="J4" toJunction="J0" end="6560" vehsPerHour="124.77884282390474"/>
  <flow id="JF62475" begin="6560" fromJunction="J3" toJunction="J0" end="6620" vehsPerHour="261.07264318006435"/>
  <flow id="JF62476" begin="6560" fromJunction="J0" toJunction="J3" end="6620" vehsPerHour="304.5221446144304"/>
  <flow id="JF62477" begin="6560" fromJunction="J3" toJunction="J2" end="6620" vehsPerHour="36.739052321936114"/>
  <flow id="JF62478" begin="6560" fromJunction="J3" toJunction="J4" end="6620" vehsPerHour="52.791198700066104"/>
  <flow id="JF62479" begin="6560" fromJunction="J0" toJunction="J2" end="6620" vehsPerHour="128.92770289947865"/>
  <flow id="JF62480" begin="6560" fromJunction="J0" toJunction="J4" end="6620" vehsPerHour="50.36708660093006"/>
  <flow id="JF62481" begin="6560" fromJunction="J2" toJunction="J4" end="6620" vehsPerHour="38.878910093559"/>
  <flow id="JF62482" begin="6560" fromJunction="J4" toJunction="J2" end="6620" vehsPerHour="129.92577636396345"/>
  <flow id="JF62483" begin="6560" fromJunction="J2" toJunction="J3" end="6620" vehsPerHour="64.86584537992972"/>
  <flow id="JF62484" begin="6560" fromJunction="J2" toJunction="J0" end="6620" vehsPerHour="110.89237328995722"/>
  <flow id="JF62485" begin="6560" fromJunction="J4" toJunction="J3" end="6620" vehsPerHour="45.198039992769736"/>
  <flow id="JF62486" begin="6560" fromJunction="J4" toJunction="J0" end="6620" vehsPerHour="125.5214933890579"/>
  <flow id="JF62487" begin="6620" fromJunction="J3" toJunction="J0" end="6680" vehsPerHour="356.52933857668916"/>
  <flow id="JF62488" begin="6620" fromJunction="J0" toJunction="J3" end="6680" vehsPerHour="473.5160354507055"/>
  <flow id="JF62489" begin="6620" fromJunction="J3" toJunction="J2" end="6680" vehsPerHour="82.46379162968974"/>
  <flow id="JF62490" begin="6620" fromJunction="J3" toJunction="J4" end="6680" vehsPerHour="107.07658510753015"/>
  <flow id="JF62491" begin="6620" fromJunction="J0" toJunction="J2" end="6680" vehsPerHour="36.01445885299832"/>