<?xml version="1.0" encoding="UTF-8"?>
<routes xmlns:xsi="http://www.w3.org/2001/XMLSchema-instance" xsi:noNamespaceSchemaLocation="http://sumo.dlr.de/xsd/routes_file.xsd">
  <flow id="JF67281" begin="0" fromJunction="J3" toJunction="J0" end="5000" vehsPerHour="1063.7171015333324"/>
  <flow id="JF67282" begin="0" fromJunction="J0" toJunction="J3" end="5000" vehsPerHour="701.9443781782966"/>
  <flow id="JF67283" begin="0" fromJunction="J3" toJunction="J2" end="5000" vehsPerHour="130.81336511064384"/>
  <flow id="JF67284" begin="0" fromJunction="J3" toJunction="J4" end="5000" vehsPerHour="42.340427311345934"/>
  <flow id="JF67285" begin="0" fromJunction="J0" toJunction="J2" end="5000" vehsPerHour="131.4309215293271"/>
  <flow id="JF67286" begin="0" fromJunction="J0" toJunction="J4" end="5000" vehsPerHour="75.38808321419599"/>
  <flow id="JF67287" begin="0" fromJunction="J2" toJunction="J4" end="5000" vehsPerHour="236.28365016883012"/>
  <flow id="JF67288" begin="0" fromJunction="J4" toJunction="J2" end="5000" vehsPerHour="468.82160669500485"/>
  <flow id="JF67289" begin="0" fromJunction="J2" toJunction="J3" end="5000" vehsPerHour="86.41444105695112"/>
  <flow id="JF67290" begin="0" fromJunction="J2" toJunction="J0" end="5000" vehsPerHour="49.22816105994901"/>
  <flow id="JF67291" begin="0" fromJunction="J4" toJunction="J3" end="5000" vehsPerHour="110.42750919379036"/>
  <flow id="JF67292" begin="0" fromJunction="J4" toJunction="J0" end="5000" vehsPerHour="83.73333952950885"/>
  <flow id="JF67293" begin="5000" fromJunction="J3" toJunction="J0" end="5060" vehsPerHour="373.14153987201337"/>
  <flow id="JF67294" begin="5000" fromJunction="J0" toJunction="J3" end="5060" vehsPerHour="300.64905720069055"/>
  <flow id="JF67295" begin="5000" fromJunction="J3" toJunction="J2" end="5060" vehsPerHour="126.78927425290283"/>
  <flow id="JF67296" begin="5000" fromJunction="J3" toJunction="J4" end="5060" vehsPerHour="103.40491144480107"/>
  <flow id="JF67297" begin="5000" fromJunction="J0" toJunction="J2" end="5060" vehsPerHour="132.1572818263143"/>
  <flow id="JF67298" begin="5000" fromJunction="J0" toJunction="J4" end="5060" vehsPerHour="57.41332140832898"/>
  <flow id="JF67299" begin="5060" fromJunction="J3" toJunction="J0" end="5120" vehsPerHour="36.516418640927846"/>
  <flow id="JF67300" begin="5060" fromJunction="J0" toJunction="J3" end="5120" vehsPerHour="356.27998128716393"/>
  <flow id="JF67301" begin="5060" fromJunction="J3" toJunction="J2" end="5120" vehsPerHour="33.61608459848959"/>
  <flow id="JF67302" begin="5060" fromJunction="J3" toJunction="J4" end="5120" vehsPerHour="2.004687992365124"/>
  <flow id="JF67303" begin="5060" fromJunction="J0" toJunction="J2" end="5120" vehsPerHour="41.62018959976935"/>
  <flow id="JF67304" begin="5060" fromJunction="J0" toJunction="J4" end="5120" vehsPerHour="105.18971477712522"/>
  <flow id="JF67305" begin="5120" fromJunction="J3" toJunction="J0" end="5180" vehsPerHour="243.26287152208874"/>
  <flow id="JF67306" begin="5120" fromJunction="J0" toJunction="J3" end="5180" vehsPerHour="77.97463101058725"/>
  <flow id="JF67307" begin="5120" fromJunction="J3" toJunction="J2" end="5180" vehsPerHour="24.539628658414955"/>
  <flow id="JF67308" begin="5120" fromJunction="J3" toJunction="J4" end="5180" vehsPerHour="21.299903624333655"/>
  <flow id="JF67309" begin="5120" fromJunction="J0" toJunction="J2" end="5180" vehsPerHour="68.65641692533421"/>
  <flow id="JF67310" begin="5120" fromJunction="J0" toJunction="J4" end="5180" vehsPerHour="128.63039150176522"/>
  <flow id="JF67311" begin="5180" fromJunction="J3" toJunction="J0" end="5240" vehsPerHour="487.4208699175421"/>
  <flow id="JF67312" begin="5180" fromJunction="J0" toJunction="J3" end="5240" vehsPerHour="97.40141046572114"/>
  <flow id="JF67313" begin="5180" fromJunction="J3" toJunction="J2" end="5240" vehsPerHour="123.24278234194283"/>
  <flow id="JF67314" begin="5180" fromJunction="J3" toJunction="J4" end="5240" vehsPerHour="72.02378224707547"/>
  <flow id="JF67315" begin="5180" fromJunction="J0" toJunction="J2" end="5240" vehsPerHour="48.29857204574661"/>
  <flow id="JF67316" begin="5180" fromJunction="J0" toJunction="J4" end="5240" vehsPerHour="106.34735154263782"/>
  <flow id="JF67317" begin="5240" fromJunction="J3" toJunction="J0" end="5300" vehsPerHour="383.9653595498756"/>
  <flow id="JF67318" begin="5240" fromJunction="J0" toJunction="J3" end="5300" vehsPerHour="455.87221964654066"/>
  <flow id="JF67319" begin="5240" fromJunction="J3" toJunction="J2" end="5300" vehsPerHour="6.820492326649493"/>
  <flow id="JF67320" begin="5240" fromJunction="J3" toJunction="J4" end="5300" vehsPerHour="38.58988436310516"/>
  <flow id="JF67321" begin="5240" fromJunction="J0" toJunction="J2" end="5300" vehsPerHour="120.20726549063252"/>
  <flow id="JF67322" begin="5240" fromJunction="J0" toJunction="J4" end="5300" vehsPerHour="99.30854794649683"/>
  <flow id="JF67323" begin="5240" fromJunction="J2" toJunction="J4" end="5300" vehsPerHour="101.5547485840265"/>
  <flow id="JF67324" begin="5240" fromJunction="J4" toJunction="J2" end="5300" vehsPerHour="79.50443727087737"/>
  <flow id="JF67325" begin="5240" fromJunction="J2" toJunction="J3" end="5300" vehsPerHour="54.030852645255735"/>
  <flow id="JF67326" begin="5240" fromJunction="J2" toJunction="J0" end="5300" vehsPerHour="127.06894772572612"/>
  <flow id="JF67327" begin="5240" fromJunction="J4" toJunction="J3" end="5300" vehsPerHour="56.56332804064617"/>
  <flow id="JF67328" begin="5240" fromJunction="J4" toJunction="J0" end="5300" vehsPerHour="129.2177493326865"/>
  <flow id="JF67329" begin="5300" fromJunction="J3" toJunction="J0" end="5360" vehsPerHour="125.57744413000624"/>
  <flow id="JF67330" begin="5300" fromJunction="J0" toJunction="J3" end="5360" vehsPerHour="287.2664949201601"/>
  <flow id="JF67331" begin="5300" fromJunction="J3" toJunction="J2" end="5360" vehsPerHour="5.569862156125852"/>
  <flow id="JF67332" begin="5300" fromJunction="J3" toJunction="J4" end="5360" vehsPerHour="109.94726818630728"/>
  <flow id="JF67333" begin="5300" fromJunction="J0" toJunction="J2" end="5360" vehsPerHour="44.655510665310345"/>
  <flow id="JF67334" begin="5300" fromJunction="J0" toJunction="J4" end="5360" vehsPerHour="33.07816946144589"/>
  <flow id="JF67335" begin="5360" fromJunction="J3" toJunction="J0" end="5420" vehsPerHour="328.2278411657443"/>
  <flow id="JF67336" begin="5360" fromJunction="J0" toJunction="J3" end="5420" vehsPerHour="322.60155543944336"/>
  <flow id="JF67337" begin="5360" fromJunction="J3" toJunction="J2" end="5420" vehsPerHour="63.38527925100586"/>
  <flow id="JF67338" begin="5360" fromJunction="J3" toJunction="J4" end="5420" vehsPerHour="66.01468170273048"/>
  <flow id="JF67339" begin="5360" fromJunction="J0" toJunction="J2" end="5420" vehsPerHour="135.2668152055634"/>
  <flow id="JF67340" begin="5360" fromJunction="J0" toJunction="J4" end="5420" vehsPerHour="81.45289344196578"/>
  <flow id="JF67341" begin="5360" fromJunction="J2" toJunction="J4" end="5420" vehsPerHour="68.95672707688051"/>
  <flow id="JF67342" begin="5360" fromJunction="J4" toJunction="J2" end="5420" vehsPerHour="48.61302606130397"/>
  <flow id="JF67343" begin="5360" fromJunction="J2" toJunction="J3" end="5420" vehsPerHour="69.56548399529528"/>
  <flow id="JF67344" begin="5360" fromJunction="J2" toJunction="J0" end="5420" vehsPerHour="52.95351462506742"/>
  <flow id="JF67345" begin="5360" fromJunction="J4" toJunction="J3" end="5420" vehsPerHour="107.47611090687774"/>
  <flow id="JF67346" begin="5360" fromJunction="J4" toJunction="J0" end="5420" vehsPerHour="73.18324140940717"/>
  <flow id="JF67347" begin="5420" fromJunction="J3" toJunction="J0" end="5480" vehsPerHour="23.037020422933786"/>
  <flow id="JF67348" begin="5420" fromJunction="J0" toJunction="J3" end="5480" vehsPerHour="482.2449910842241"/>
  <flow id="JF67349" begin="5420" fromJunction="J3" toJunction="J2" end="5480" vehsPerHour="96.07133503093819"/>
  <flow id="JF67350" begin="5420" fromJunction="J3" toJunction="J4" end="5480" vehsPerHour="2.242806108499373"/>
  <flow id="JF67351" begin="5420" fromJunction="J0" toJunction="J2" end="5480" vehsPerHour="127.28083945965025"/>
  <flow id="JF67352" begin="5420" fromJunction="J0" toJunction="J4" end="5480" vehsPerHour="38.210972148141856"/>
  <flow id="JF67353" begin="5420" fromJunction="J2" toJunction="J4" end="5480" vehsPerHour="15.019720911857709"/>
  <flow id="JF67354" begin="5420" fromJunction="J4" toJunction="J2" end="5480" vehsPerHour="21.485382581615067"/>
  <flow id="JF67355" begin="5420" fromJunction="J2" toJunction="J3" end="5480" vehsPerHour="13.651115050855969"/>
  <flow id="JF67356" begin="5420" fromJunction="J2" toJunction="J0" end="5480" vehsPerHour="108.39348591720066"/>
  <flow id="JF67357" begin="5420" fromJunction="J4" toJunction="J3" end="5480" vehsPerHour="45.952584394152595"/>
  <flow id="JF67358" begin="5420" fromJunction="J4" toJunction="J0" end="5480" vehsPerHour="96.09447029153203"/>
  <flow id="JF67359" begin="5480" fromJunction="J3" toJunction="J0" end="5540" vehsPerHour="313.95874211739897"/>
  <flow id="JF67360" begin="5480" fromJunction="J0" toJunction="J3" end="5540" vehsPerHour="144.33784772051723"/>
  <flow id="JF67361" begin="5480" fromJunction="J3" toJunction="J2" end="5540" vehsPerHour="121.04557707902165"/>
  <flow id="JF67362" begin="5480" fromJunction="J3" toJunction="J4" end="5540" vehsPerHour="41.672278130591"/>
  <flow id="JF67363" begin="5480" fromJunction="J0" toJunction="J2" end="5540" vehsPerHour="72.58468246908701"/>
  <flow id="JF67364" begin="5480" fromJunction="J0" toJunction="J4" end="5540" vehsPerHour="136.64214848621873"/>
  <flow id="JF67365" begin="5540" fromJunction="J3" toJunction="J0" end="5600" vehsPerHour="497.87159223466733"/>
  <flow id="JF67366" begin="5540" fromJunction="J0" toJunction="J3" end="5600" vehsPerHour="361.528821822378"/>
  <flow id="JF67367" begin="5540" fromJunction="J3" toJunction="J2" end="5600" vehsPerHour="53.01324587279606"/>
  <flow id="JF67368" begin="5540" fromJunction="J3" toJunction="J4" end="5600" vehsPerHour="116.26282981296379"/>
  <flow id="JF67369" begin="5540" fromJunction="J0" toJunction="J2" end="5600" vehsPerHour="36.587282646281906"/>
  <flow id="JF67370" begin="5540" fromJunction="J0" toJunction="J4" end="5600" vehsPerHour="103.73588753139182"/>
  <flow id="JF67371" begin="5540" fromJunction="J2" toJunction="J4" end="5600" vehsPerHour="35.944541764617576"/>
  <flow id="JF67372" begin="5540" fromJunction="J4" toJunction="J2" end="5600" vehsPerHour="6.246432715262405"/>
  <flow id="JF67373" begin="5540" fromJunction="J2" toJunction="J3" end="5600" vehsPerHour="134.188876509364"/>
  <flow id="JF67374" begin="5540" fromJunction="J2" toJunction="J0" end="5600" vehsPerHour="1.8096998675633131"/>
  <flow id="JF67375" begin="5540" fromJunction="J4" toJunction="J3" end="5600" vehsPerHour="77.99797713367585"/>
  <flow id="JF67376" begin="5540" fromJunction="J4" toJunction="J0" end="5600" vehsPerHour="2.5069950948823627"/>
  <flow id="JF67377" begin="5600" fromJunction="J3" toJunction="J0" end="5660" vehsPerHour="368.9981173390497"/>
  <flow id="JF67378" begin="5600" fromJunction="J0" toJunction="J3" end="5660" vehsPerHour="450.04648049833395"/>
  <flow id="JF67379" begin="5600" fromJunction="J3" toJunction="J2" end="5660" vehsPerHour="73.46205294347145"/>
  <flow id="JF67380" begin="5600" fromJunction="J3" toJunction="J4" end="5660" vehsPerHour="70.87474430088642"/>
  <flow id="JF67381" begin="5600" fromJunction="J0" toJunction="J2" end="5660" vehsPerHour="24.09813207100165"/>
  <flow id="JF67382" begin="5600" fromJunction="J0" toJunction="J4" end="5660" vehsPerHour="27.21027678616564"/>
  <flow id="JF67383" begin="5660" fromJunction="J3" toJunction="J0" end="5720" vehsPerHour="433.00850857600943"/>
  <flow id="JF67384" begin="5660" fromJunction="J0" toJunction="J3" end="5720" vehsPerHour="360.2233409165678"/>
  <flow id="JF67385" begin="5660" fromJunction="J3" toJunction="J2" end="5720" vehsPerHour="135.8507559619308"/>
  <flow id="JF67386" begin="5660" fromJunction="J3" toJunction="J4" end="5720" vehsPerHour="118.02969311275676"/>
  <flow id="JF67387" begin="5660" fromJunction="J0" toJunction="J2" end="5720" vehsPerHour="88.0284509118915"/>
  <flow id="JF67388" begin="5660" fromJunction="J0" toJunction="J4" end="5720" vehsPerHour="39.26873607171175"/>
  <flow id="JF67389" begin="5720" fromJunction="J3" toJunction="J0" end="5780" vehsPerHour="511.63157408848264"/>
  <flow id="JF67390" begin="5720" fromJunction="J0" toJunction="J3" end="5780" vehsPerHour="261.2963582066133"/>
  <flow id="JF67391" begin="5720" fromJunction="J3" toJunction="J2" end="5780" vehsPerHour="126.99120236987142"/>
  <flow id="JF67392" begin="5720" fromJunction="J3" toJunction="J4" end="5780" vehsPerHour="53.64093574287747"/>
  <flow id="JF67393" begin="5720" fromJunction="J0" toJunction="J2" end="5780" vehsPerHour="77.94956807836715"/>
  <flow id="JF67394" begin="5720" fromJunction="J0" toJunction="J4" end="5780" vehsPerHour="101.61473182457839"/>
  <flow id="JF67395" begin="5720" fromJunction="J2" toJunction="J4" end="5780" vehsPerHour="110.07334279484817"/>
  <flow id="JF67396" begin="5720" fromJunction="J4" toJunction="J2" end="5780" vehsPerHour="110.75651414989854"/>
  <flow id="JF67397" begin="5720" fromJunction="J2" toJunction="J3" end="5780" vehsPerHour="66.4306565618052"/>
  <flow id="JF67398" begin="5720" fromJunction="J2" toJunction="J0" end="5780" vehsPerHour="12.275819325717567"/>
  <flow id="JF67399" begin="5720" fromJunction="J4" toJunction="J3" end="5780" vehsPerHour="49.31044794266138"/>
  <flow id="JF67400" begin="5720" fromJunction="J4" toJunction="J0" end="5780" vehsPerHour="101.25719120000917"/>
  <flow id="JF67401" begin="5780" fromJunction="J3" toJunction="J0" end="5840" vehsPerHour="74.39085184755528"/>
  <flow id="JF67402" begin="5780" fromJunction="J0" toJunction="J3" end="5840" vehsPerHour="74.08380071774242"/>
  <flow id="JF67403" begin="5780" fromJunction="J3" toJunction="J2" end="5840" vehsPerHour="37.94817482191043"/>
  <flow id="JF67404" begin="5780" fromJunction="J3" toJunction="J4" end="5840" vehsPerHour="32.98750510033186"/>
  <flow id="JF67405" begin="5780" fromJunction="J0" toJunction="J2" end="5840" vehsPerHour="119.83366985429998"/>
  <flow id="JF67406" begin="5780" fromJunction="J0" toJunction="J4" end="5840" vehsPerHour="69.74792757124509"/>
  <flow id="JF67407" begin="5780" fromJunction="J2" toJunction="J4" end="5840" vehsPerHour="20.134278697640013"/>
  <flow id="JF67408" begin="5780" fromJunction="J4" toJunction="J2" end="5840" vehsPerHour="1.28803754753272"/>
  <flow id="JF67409" begin="5780" fromJunction="J2" toJunction="J3" end="5840" vehsPerHour="125.47510355956997"/>
  <flow id="JF67410" begin="5780" fromJunction="J2" toJunction="J0" end="5840" vehsPerHour="57.40981529857688"/>
  <flow id="JF67411" begin="5780" fromJunction="J4" toJunction="J3" end="5840" vehsPerHour="88.42781345821781"/>
  <flow id="JF67412" begin="5780" fromJunction="J4" toJunction="J0" end="5840" vehsPerHour="1.0965871616612988"/>
  <flow id="JF67413" begin="5840" fromJunction="J3" toJunction="J0" end="5900" vehsPerHour="419.89199048639597"/>
  <flow id="JF67414" begin="5840" fromJunction="J0" toJunction="J3" end="5900" vehsPerHour="363.58395794708184"/>
  <flow id="JF67415" begin="5840" fromJunction="J3" toJunction="J2" end="5900" vehsPerHour="54.1646328575781"/>
  <flow id="JF67416" begin="5840" fromJunction="J3" toJunction="J4" end="5900" vehsPerHour="117.67027536749762"/>
  <flow id="JF67417" begin="5840" fromJunction="J0" toJunction="J2" end="5900" vehsPerHour="53.21224689578232"/>
  <flow id="JF67418" begin="5840" fromJunction="J0" toJunction="J4" end="5900" vehsPerHour="29.47293411593935"/>
  <flow id="JF67419" begin="5840" fromJunction="J2" toJunction="J4" end="5900" vehsPerHour="68.20726651687822"/>
  <flow id="JF67420" begin="5840" fromJunction="J4" toJunction="J2" end="5900" vehsPerHour="32.98672998877216"/>
  <flow id="JF67421" begin="5840" fromJunction="J2" toJunction="J3" end="5900" vehsPerHour="27.57301195661122"/>
  <flow id="JF67422" begin="5840" fromJunction="J2" toJunction="J0" end="5900" vehsPerHour="39.070761424526104"/>
  <flow id="JF67423" begin="5840" fromJunction="J4" toJunction="J3" end="5900" vehsPerHour="108.14873184323338"/>
  <flow id="JF67424" begin="5840" fromJunction="J4" toJunction="J0" end="5900" vehsPerHour="38.511828400624225"/>
  <flow id="JF67425" begin="5900" fromJunction="J3" toJunction="J0" end="5960" vehsPerHour="365.93960714921525"/>
  <flow id="JF67426" begin="5900" fromJunction="J0" toJunction="J3" end="5960" vehsPerHour="254.3140687616228"/>
  <flow id="JF67427" begin="5900" fromJunction="J3" toJunction="J2" end="5960" vehsPerHour="78.74545507289366"/>
  <flow id="JF67428" begin="5900" fromJunction="J3" toJunction="J4" end="5960" vehsPerHour="28.72376399048557"/>
  <flow id="JF67429" begin="5900" fromJunction="J0" toJunction="J2" end="5960" vehsPerHour="113.6173785142887"/>
  <flow id="JF67430" begin="5900" fromJunction="J0" toJunction="J4" end="5960" vehsPerHour="26.768828833574954"/>
  <flow id="JF67431" begin="5960" fromJunction="J3" toJunction="J0" end="6020" vehsPerHour="70.16256389897545"/>
  <flow id="JF67432" begin="5960" fromJunction="J0" toJunction="J3" end="6020" vehsPerHour="427.8648369509297"/>
  <flow id="JF67433" begin="5960" fromJunction="J3" toJunction="J2" end="6020" vehsPerHour="63.14336300975117"/>
  <flow id="JF67434" begin="5960" fromJunction="J3" toJunction="J4" end="6020" vehsPerHour="57.02459880407772"/>
  <flow id="JF67435" begin="5960" fromJunction="J0" toJunction="J2" end="6020" vehsPerHour="132.84674676182456"/>
  <flow id="JF67436" begin="5960" fromJunction="J0" toJunction="J4" end="6020" vehsPerHour="67.67438702859711"/>
  <flow id="JF67437" begin="5960" fromJunction="J2" toJunction="J4" end="6020" vehsPerHour="31.798150782056137"/>
  <flow id="JF67438" begin="5960" fromJunction="J4" toJunction="J2" end="6020" vehsPerHour="84.96680790467083"/>
  <flow id="JF67439" begin="5960" fromJunction="J2" toJunction="J3" end="6020" vehsPerHour="100.02354371825118"/>
  <flow id="JF67440" begin="5960" fromJunction="J2" toJunction="J0" end="6020" vehsPerHour="90.58508164712798"/>
  <flow id="JF67441" begin="5960" fromJunction="J4" toJunction="J3" end="6020" vehsPerHour="72.64915622279358"/>
  <flow id="JF67442" begin="5960" fromJunction="J4" toJunction="J0" end="6020" vehsPerHour="67.54907932105444"/>
  <flow id="JF67443" begin="6020" fromJunction="J3" toJunction="J0" end="6080" vehsPerHour="295.64739374392656"/>
  <flow id="JF67444" begin="6020" fromJunction="J0" toJunction="J3" end="6080" vehsPerHour="89.48471598860525"/>
  <flow id="JF67445" begin="6020" fromJunction="J3" toJunction="J2" end="6080" vehsPerHour="56.621364696851366"/>
  <flow id="JF67446" begin="6020" fromJunction="J3" toJunction="J4" end="6080" vehsPerHour="44.43085835831631"/>
  <flow id="JF67447" begin="6020" fromJunction="J0" toJunction="J2" end="6080" vehsPerHour="29.947106141467742"/>
  <flow id="JF67448" begin="6020" fromJunction="J0" toJunction="J4" end="6080" vehsPerHour="3.487691469729829"/>
  <flow id="JF67449" begin="6020" fromJunction="J2" toJunction="J4" end="6080" vehsPerHour="73.46747458996886"/>
  <flow id="JF67450" begin="6020" fromJunction="J4" toJunction="J2" end="6080" vehsPerHour="13.29346274388881"/>
  <flow id="JF67451" begin="6020" fromJunction="J2" toJunction="J3" end="6080" vehsPerHour="117.89416144569755"/>
  <flow id="JF67452" begin="6020" fromJunction="J2" toJunction="J0" end="6080" vehsPerHour="93.81849195252211"/>
  <flow id="JF67453" begin="6020" fromJunction="J4" toJunction="J3" end="6080" vehsPerHour="106.29889512311193"/>
  <flow id="JF67454" begin="6020" fromJunction="J4" toJunction="J0" end="6080" vehsPerHour="40.86928338429526"/>
  <flow id="JF67455" begin="6080" fromJunction="J3" toJunction="J0" end="6140" vehsPerHour="38.30530982768851"/>
  <flow id="JF67456" begin="6080" fromJunction="J0" toJunction="J3" end="6140" vehsPerHour="415.62773091403534"/>
  <flow id="JF67457" begin="6080" fromJunction="J3" toJunction="J2" end="6140" vehsPerHour="117.99843457731467"/>
  <flow id="JF67458" begin="6080" fromJunction="J3" toJunction="J4" end="6140" vehsPerHour="24.11114718947423"/>
  <flow id="JF67459" begin="6080" fromJunction="J0" toJunction="J2" end="6140" vehsPerHour="134.99907558823915"/>
  <flow id="JF67460" begin="6080" fromJunction="J0" toJunction="J4" end="6140" vehsPerHour="72.1280480713726"/>
  <flow id="JF67461" begin="6080" fromJunction="J2" toJunction="J4" end="6140" vehsPerHour="8.077748005012443"/>
  <flow id="JF67462" begin="6080" fromJunction="J4" toJunction="J2" end="6140" vehsPerHour="110.6462063174879"/>
  <flow id="JF67463" begin="6080" fromJunction="J2" toJunction="J3" end="6140" vehsPerHour="23.450323650677923"/>
  <flow id="JF67464" begin="6080" fromJunction="J2" toJunction="J0" end="6140" vehsPerHour="1.234079860162977"/>
  <flow id="JF67465" begin="6080" fromJunction="J4" toJunction="J3" end="6140" vehsPerHour="59.04589920212321"/>
  <flow id="JF67466" begin="6080" fromJunction="J4" toJunction="J0" end="6140" vehsPerHour="109.45432988031102"/>
  <flow id="JF67467" begin="6140" fromJunction="J3" toJunction="J0" end="6200" vehsPerHour="416.1825882102014"/>
  <flow id="JF67468" begin="6140" fromJunction="J0" toJunction="J3" end="6200" vehsPerHour="147.6041015577964"/>
  <flow id="JF67469" begin="6140" fromJunction="J3" toJunction="J2" end="6200" vehsPerHour="71.55050763165377"/>
  <flow id="JF67470" begin="6140" fromJunction="J3" toJunction="J4" end="6200" vehsPerHour="107.92527011075842"/>
  <flow id="JF67471" begin="6140" fromJunction="J0" toJunction="J2" end="6200" vehsPerHour="84.83498023078208"/>
  <flow id="JF67472" begin="6140" fromJunction="J0" toJunction="J4" end="6200" vehsPerHour="104.97662004199474"/>
  <flow id="JF67473" begin="6200" fromJunction="J3" toJunction="J0" end="6260" vehsPerHour="210.89463235243258"/>
  <flow id="JF67474" begin="6200" fromJunction="J0" toJunction="J3" end="6260" vehsPerHour="209.75741613007648"/>
  <flow id="JF67475" begin="6200" fromJunction="J3" toJunction="J2" end="6260" vehsPerHour="133.35196532761879"/>
  <flow id="JF67476" begin="6200" fromJunction="J3" toJunction="J4" end="6260" vehsPerHour="119.7058999348124"/>
  <flow id="JF67477" begin="6200" fromJunction="J0" toJunction="J2" end="6260" vehsPerHour="102.40102529125609"/>
  <flow id="JF67478" begin="6200" fromJunction="J0" toJunction="J4" end="6260" vehsPerHour="80.29610308617833"/>
  <flow id="JF67479" begin="6260" fromJunction="J3" toJunction="J0" end="6320" vehsPerHour="409.45905331817244"/>
  <flow id="JF67480" begin="6260" fromJunction="J0" toJunction="J3" end="6320" vehsPerHour="393.11365302947104"/>
  <flow id="JF67481" begin="6260" fromJunction="J3" toJunction="J2" end="6320" vehsPerHour="55.972878644051654"/>
  <flow id="JF67482" begin="6260" fromJunction="J3" toJunction="J4" end="6320" vehsPerHour="57.607607235684384"/>
  <flow id="JF67483" begin="6260" fromJunction="J0" toJunction="J2" end="6320" vehsPerHour="118.72962367873247"/>
  <flow id="JF67484" begin="6260" fromJunction="J0" toJunction="J4" end="6320" vehsPerHour="72.96208202831711"/>
  <flow id="JF67485" begin="6260" fromJunction="J2" toJunction="J4" end="6320" vehsPerHour="55.009867976904225"/>
  <flow id="JF67486" begin="6260" fromJunction="J4" toJunction="J2" end="6320" vehsPerHour="95.92915149376849"/>
  <flow id="JF67487" begin="6260" fromJunction="J2" toJunction="J3" end="6320" vehsPerHour="30.181567093595085"/>
  <flow id="JF67488" begin="6260" fromJunction="J2" toJunction="J0" end="6320" vehsPerHour="68.94931800580548"/>
  <flow id="JF67489" begin="6260" fromJunction="J4" toJunction="J3" end="6320" vehsPerHour="28.92003830116011"/>
  <flow id="JF67490" begin="6260" fromJunction="J4" toJunction="J0" end="6320" vehsPerHour="95.82996748159162"/>
  <flow id="JF67491" begin="6320" fromJunction="J3" toJunction="J0" end="6380" vehsPerHour="85.80692274987071"/>
  <flow id="JF67492" begin="6320" fromJunction="J0" toJunction="J3" end="6380" vehsPerHour="22.467480705736374"/>
  <flow id="JF67493" begin="6320" fromJunction="J3" toJunction="J2" end="6380" vehsPerHour="63.23741807480684"/>
  <flow id="JF67494" begin="6320" fromJunction="J3" toJunction="J4" end="6380" vehsPerHour="20.29748107195804"/>
  <flow id="JF67495" begin="6320" fromJunction="J0" toJunction="J2" end="6380" vehsPerHour="42.68277393476405"/>
  <flow id="JF67496" begin="6320" fromJunction="J0" toJunction="J4" end="6380" vehsPerHour="24.719016143188938"/>
  <flow id="JF67497" begin="6320" fromJunction="J2" toJunction="J4" end="6380" vehsPerHour="110.04588043364946"/>
  <flow id="JF67498" begin="6320" fromJunction="J4" toJunction="J2" end="6380" vehsPerHour="19.99392997503376"/>
  <flow id="JF67499" begin="6320" fromJunction="J2" toJunction="J3" end="6380" vehsPerHour="97.98888406519026"/>
  <flow id="JF67500" begin="6320" fromJunction="J2" toJunction="J0" end="6380" vehsPerHour="126.22718282935713"/>
  <flow id="JF67501" begin="6320" fromJunction="J4" toJunction="J3" end="6380" vehsPerHour="68.23324980066496"/>
  <flow id="JF67502" begin="6320" fromJunction="J4" toJunction="J0" end="6380" vehsPerHour="135.3321661068286"/>
  <flow id="JF67503" begin="6380" fromJunction="J3" toJunction="J0" end="6440" vehsPerHour="407.98057857367104"/>
  <flow id="JF67504" begin="6380" fromJunction="J0" toJunction="J3" end="6440" vehsPerHour="16.719917868008956"/>
  <flow id="JF67505" begin="6380" fromJunction="J3" toJunction="J2" end="6440" vehsPerHour="88.09746071951824"/>
  <flow id="JF67506" begin="6380" fromJunction="J3" toJunction="J4" end="6440" vehsPerHour="60.40921376482787"/>
  <flow id="JF67507" begin="6380" fromJunction="J0" toJunction="J2" end="6440" vehsPerHour="96.2136508397673"/>
  <flow id="JF67508" begin="6380" fromJunction="J0" toJunction="J4" end="6440" vehsPerHour="126.64433080690361"/>
  <flow id="JF67509" begin="6380" fromJunction="J2" toJunction="J4" end="6440" vehsPerHour="25.108415948791084"/>
  <flow id="JF67510" begin="6380" fromJunction="J4" toJunction="J2" end="6440" vehsPerHour="64.0257984095484"/>
  <flow id="JF67511" begin="6380" fromJunction="J2" toJunction="J3" end="6440" vehsPerHour="73.6106515229452"/>
  <flow id="JF67512" begin="6380" fromJunction="J2" toJunction="J0" end="6440" vehsPerHour="63.43408151412503"/>
  <flow id="JF67513" begin="6380" fromJunction="J4" toJunction="J3" end="6440" vehsPerHour="41.12303465477305"/>
  <flow id="JF67514" begin="6380" fromJunction="J4" toJunction="J0" end="6440" vehsPerHour="22.72272253935144"/>
  <flow id="JF67515" begin="6440" fromJunction="J3" toJunction="J0" end="6500" vehsPerHour="95.68864292787646"/>
  <flow id="JF67516" begin="6440" fromJunction="J0" toJunction="J3" end="6500" vehsPerHour="393.35658375071523"/>
  <flow id="JF67517" begin="6440" fromJunction="J3" toJunction="J2" end="6500" vehsPerHour="14.792332890163859"/>
  <flow id="JF67518" begin="6440" fromJunction="J3" toJunction="J4" end="6500" vehsPerHour="119.38893240090906"/>
  <flow id="JF67519" begin="6440" fromJunction="J0" toJunction="J2" end="6500" vehsPerHour="105.03723318856527"/>
  <flow id="JF67520" begin="6440" fromJunction="J0" toJunction="J4" end="6500" vehsPerHour="118.6290974827914"/>
  <flow id="JF67521" begin="6500" fromJunction="J3" toJunction="J0" end="6560" vehsPerHour="221.91981864611904"/>
  <flow id="JF67522" begin="6500" fromJunction="J0" toJunction="J3" end="6560" vehsPerHour="355.30830647856965"/>
  <flow id="JF67523" begin="6500" fromJunction="J3" toJunction="J2" end="6560" vehsPerHour="90.84890133881976"/>
  <flow id="JF67524" begin="6500" fromJunction="J3" toJunction="J4" end="6560" vehsPerHour="134.9484004367928"/>
  <flow id="JF67525" begin="6500" fromJunction="J0" toJunction="J2" end="6560" vehsPerHour="131.04057783677263"/>
  <flow id="JF67526" begin="6500" fromJunction="J0" toJunction="J4" end="6560" vehsPerHour="69.31940549421441"/>
  <flow id="JF67527" begin="6500" fromJunction="J2" toJunction="J4" end="6560" vehsPerHour="84.32166535764837"/>
  <flow id="JF67528" begin="6500" fromJunction="J4" toJunction="J2" end="6560" vehsPerHour="108.42326414381765"/>
  <flow id="JF67529" begin="6500" fromJunction="J2" toJunction="J3" end="6560" vehsPerHour="79.83503646388854"/>
  <flow id="JF67530" begin="6500" fromJunction="J2" toJunction="J0" end="6560" vehsPerHour="83.35998601255339"/>
  <flow id="JF67531" begin="6500" fromJunction="J4" toJunction="J3" end="6560" vehsPerHour="17.757331079919737"/>
  <flow id="JF67532" begin="6500" fromJunction="J4" toJunction="J0" end="6560" vehsPerHour="29.455791128811345"/>
  <flow id="JF67533" begin="6560" fromJunction="J3" toJunction="J0" end="6620" vehsPerHour="437.6551515375896"/>
  <flow id="JF67534" begin="6560" fromJunction="J0" toJunction="J3" end="6620" vehsPerHour="107.13850905003099"/>
  <flow id="JF67535" begin="6560" fromJunction="J3" toJunction="J2" end="6620" vehsPerHour="114.00255919609718"/>
  <flow id="JF67536" begin="6560" fromJunction="J3" toJunction="J4" end="6620" vehsPerHour="109.68319302784887"/>
  <flow id="JF67537" begin="6560" fromJunction="J0" toJunction="J2" end="6620" vehsPerHour="78.92242617980273"/>
  <flow id="JF67538" begin="6560" fromJunction="J0" toJunction="J4" end="6620" vehsPerHour="73.1960872765096"/>
  <flow id="JF67539" begin="6560" fromJunction="J2" toJunction="J4" end="6620" vehsPerHour="56.2559764063336"/>
  <flow id="JF67540" begin="6560" fromJunction="J4" toJunction="J2" end="6620" vehsPerHour="21.39533859257399"/>
  <flow id="JF67541" begin="6560" fromJunction="J2" toJunction="J3" end="6620" vehsPerHour="77.59058999565701"/>
  <flow id="JF67542" begin="6560" fromJunction="J2" toJunction="J0" end="6620" vehsPerHour="35.293044980846986"/>
  <flow id="JF67543" begin="6560" fromJunction="J4" toJunction="J3" end="6620" vehsPerHour="58.536795678876175"/>