<?xml version="1.0" encoding="UTF-8"?>
<routes xmlns:xsi="http://www.w3.org/2001/XMLSchema-instance" xsi:noNamespaceSchemaLocation="http://sumo.dlr.de/xsd/routes_file.xsd">
  <flow id="JF41571" begin="0" fromJunction="J0" toJunction="J3" end="60" vehsPerHour="34.31292911923894" departLane="free"/>
  <flow id="JF41572" begin="0" fromJunction="J0" toJunction="J5" end="60" vehsPerHour="89.53756503587924" departLane="free"/>
  <flow id="JF41573" begin="0" fromJunction="J3" toJunction="J5" end="60" vehsPerHour="42.886605991344894" departLane="free"/>
  <flow id="JF41574" begin="0" fromJunction="J3" toJunction="J7" end="60" vehsPerHour="34.4896695922528" departLane="free"/>
  <flow id="JF41575" begin="0" fromJunction="J4" toJunction="J0" end="60" vehsPerHour="68.10242015799068" departLane="free"/>
  <flow id="JF41576" begin="0" fromJunction="J4" toJunction="J3" end="60" vehsPerHour="9.083643814274605" departLane="free"/>
  <flow id="JF41577" begin="0" fromJunction="J4" toJunction="J6" end="60" vehsPerHour="18.006157111533234" departLane="free"/>
  <flow id="JF41578" begin="0" fromJunction="J5" toJunction="J0" end="60" vehsPerHour="55.212269080356236" departLane="free"/>
  <flow id="JF41579" begin="0" fromJunction="J5" toJunction="J3" end="60" vehsPerHour="42.99755390684376" departLane="free"/>
  <flow id="JF41580" begin="0" fromJunction="J5" toJunction="J4" end="60" vehsPerHour="50.52713836152314" departLane="free"/>
  <flow id="JF41581" begin="0" fromJunction="J5" toJunction="J6" end="60" vehsPerHour="9.9423301491539" departLane="free"/>
  <flow id="JF41582" begin="0" fromJunction="J6" toJunction="J3" end="60" vehsPerHour="46.80503646154938" departLane="free"/>
  <flow id="JF41583" begin="0" fromJunction="J6" toJunction="J4" end="60" vehsPerHour="48.55325154671593" departLane="free"/>
  <flow id="JF41584" begin="0" fromJunction="J6" toJunction="J5" end="60" vehsPerHour="49.202440836760154" departLane="free"/>
  <flow id="JF41585" begin="0" fromJunction="J6" toJunction="J7" end="60" vehsPerHour="53.09536437567391" departLane="free"/>
  <flow id="JF41586" begin="0" fromJunction="J7" toJunction="J3" end="60" vehsPerHour="11.559185505486854" departLane="free"/>
  <flow id="JF41587" begin="0" fromJunction="J7" toJunction="J4" end="60" vehsPerHour="56.40928893478544" departLane="free"/>
  <flow id="JF41588" begin="0" fromJunction="J7" toJunction="J5" end="60" vehsPerHour="33.28602080496956" departLane="free"/>
  <flow id="JF41589" begin="60" fromJunction="J0" toJunction="J3" end="120" vehsPerHour="113.02081222601895" departLane="free"/>
  <flow id="JF41590" begin="60" fromJunction="J0" toJunction="J4" end="120" vehsPerHour="122.10921989340778" departLane="free"/>
  <flow id="JF41591" begin="60" fromJunction="J0" toJunction="J5" end="120" vehsPerHour="82.43966242101685" departLane="free"/>
  <flow id="JF41592" begin="60" fromJunction="J0" toJunction="J6" end="120" vehsPerHour="51.46950368385622" departLane="free"/>
  <flow id="JF41593" begin="60" fromJunction="J3" toJunction="J0" end="120" vehsPerHour="74.68767342036156" departLane="free"/>
  <flow id="JF41594" begin="60" fromJunction="J3" toJunction="J5" end="120" vehsPerHour="106.90197010152113" departLane="free"/>
  <flow id="JF41595" begin="60" fromJunction="J3" toJunction="J6" end="120" vehsPerHour="75.28312465479752" departLane="free"/>
  <flow id="JF41596" begin="60" fromJunction="J3" toJunction="J7" end="120" vehsPerHour="74.29344992208519" departLane="free"/>
  <flow id="JF41597" begin="60" fromJunction="J4" toJunction="J3" end="120" vehsPerHour="38.39050065978393" departLane="free"/>
  <flow id="JF41598" begin="60" fromJunction="J5" toJunction="J0" end="120" vehsPerHour="41.43110254930732" departLane="free"/>
  <flow id="JF41599" begin="60" fromJunction="J5" toJunction="J3" end="120" vehsPerHour="30.714656438178938" departLane="free"/>
  <flow id="JF41600" begin="60" fromJunction="J5" toJunction="J4" end="120" vehsPerHour="13.277230145146742" departLane="free"/>
  <flow id="JF41601" begin="60" fromJunction="J6" toJunction="J3" end="120" vehsPerHour="67.11368444114484" departLane="free"/>
  <flow id="JF41602" begin="60" fromJunction="J6" toJunction="J4" end="120" vehsPerHour="62.31914354598342" departLane="free"/>
  <flow id="JF41603" begin="60" fromJunction="J6" toJunction="J7" end="120" vehsPerHour="25.67322999769181" departLane="free"/>
  <flow id="JF41604" begin="60" fromJunction="J7" toJunction="J0" end="120" vehsPerHour="6.388203313086229" departLane="free"/>
  <flow id="JF41605" begin="60" fromJunction="J7" toJunction="J3" end="120" vehsPerHour="45.1446922396238" departLane="free"/>
  <flow id="JF41606" begin="60" fromJunction="J7" toJunction="J4" end="120" vehsPerHour="34.60730383907367" departLane="free"/>
  <flow id="JF41607" begin="60" fromJunction="J7" toJunction="J5" end="120" vehsPerHour="4.887649443711131" departLane="free"/>
  <flow id="JF41608" begin="60" fromJunction="J7" toJunction="J6" end="120" vehsPerHour="20.41930368281139" departLane="free"/>
  <flow id="JF41609" begin="120" fromJunction="J0" toJunction="J4" end="180" vehsPerHour="25.968769428264334" departLane="free"/>
  <flow id="JF41610" begin="120" fromJunction="J0" toJunction="J5" end="180" vehsPerHour="100.62213919838945" departLane="free"/>
  <flow id="JF41611" begin="120" fromJunction="J0" toJunction="J6" end="180" vehsPerHour="86.19099522164713" departLane="free"/>
  <flow id="JF41612" begin="120" fromJunction="J0" toJunction="J7" end="180" vehsPerHour="33.323744483398755" departLane="free"/>
  <flow id="JF41613" begin="120" fromJunction="J3" toJunction="J0" end="180" vehsPerHour="111.38353476543885" departLane="free"/>
  <flow id="JF41614" begin="120" fromJunction="J3" toJunction="J4" end="180" vehsPerHour="108.63545454026776" departLane="free"/>
  <flow id="JF41615" begin="120" fromJunction="J3" toJunction="J5" end="180" vehsPerHour="30.659705387201722" departLane="free"/>
  <flow id="JF41616" begin="120" fromJunction="J4" toJunction="J3" end="180" vehsPerHour="19.694501869067143" departLane="free"/>
  <flow id="JF41617" begin="120" fromJunction="J4" toJunction="J5" end="180" vehsPerHour="27.666612026966952" departLane="free"/>
  <flow id="JF41618" begin="120" fromJunction="J4" toJunction="J7" end="180" vehsPerHour="21.456724009707703" departLane="free"/>
  <flow id="JF41619" begin="120" fromJunction="J5" toJunction="J0" end="180" vehsPerHour="43.590949110428454" departLane="free"/>
  <flow id="JF41620" begin="120" fromJunction="J5" toJunction="J3" end="180" vehsPerHour="4.265185054503339" departLane="free"/>
  <flow id="JF41621" begin="120" fromJunction="J5" toJunction="J6" end="180" vehsPerHour="66.77929477155578" departLane="free"/>
  <flow id="JF41622" begin="120" fromJunction="J5" toJunction="J7" end="180" vehsPerHour="3.4568570806510124" departLane="free"/>
  <flow id="JF41623" begin="120" fromJunction="J6" toJunction="J0" end="180" vehsPerHour="49.05680136055066" departLane="free"/>
  <flow id="JF41624" begin="120" fromJunction="J6" toJunction="J5" end="180" vehsPerHour="2.3618777318855706" departLane="free"/>
  <flow id="JF41625" begin="120" fromJunction="J6" toJunction="J7" end="180" vehsPerHour="44.72989520309501" departLane="free"/>
  <flow id="JF41626" begin="120" fromJunction="J7" toJunction="J0" end="180" vehsPerHour="21.413044556444504" departLane="free"/>
  <flow id="JF41627" begin="120" fromJunction="J7" toJunction="J4" end="180" vehsPerHour="2.387452724531397" departLane="free"/>
  <flow id="JF41628" begin="120" fromJunction="J7" toJunction="J5" end="180" vehsPerHour="1.6878843763448592" departLane="free"/>
  <flow id="JF41629" begin="120" fromJunction="J7" toJunction="J6" end="180" vehsPerHour="49.5337187354525" departLane="free"/>
  <flow id="JF41630" begin="180" fromJunction="J0" toJunction="J3" end="240" vehsPerHour="48.88714156325344" departLane="free"/>
  <flow id="JF41631" begin="180" fromJunction="J0" toJunction="J5" end="240" vehsPerHour="82.92273165761942" departLane="free"/>
  <flow id="JF41632" begin="180" fromJunction="J0" toJunction="J6" end="240" vehsPerHour="49.23295471352342" departLane="free"/>
  <flow id="JF41633" begin="180" fromJunction="J0" toJunction="J7" end="240" vehsPerHour="52.90114656417721" departLane="free"/>
  <flow id="JF41634" begin="180" fromJunction="J3" toJunction="J0" end="240" vehsPerHour="45.12204032864589" departLane="free"/>
  <flow id="JF41635" begin="180" fromJunction="J3" toJunction="J5" end="240" vehsPerHour="69.32177945289264" departLane="free"/>
  <flow id="JF41636" begin="180" fromJunction="J3" toJunction="J6" end="240" vehsPerHour="72.86168407637543" departLane="free"/>
  <flow id="JF41637" begin="180" fromJunction="J3" toJunction="J7" end="240" vehsPerHour="115.97992765465972" departLane="free"/>
  <flow id="JF41638" begin="180" fromJunction="J4" toJunction="J3" end="240" vehsPerHour="34.037385125851586" departLane="free"/>
  <flow id="JF41639" begin="180" fromJunction="J4" toJunction="J6" end="240" vehsPerHour="21.21200393796077" departLane="free"/>
  <flow id="JF41640" begin="180" fromJunction="J5" toJunction="J0" end="240" vehsPerHour="66.02820895674367" departLane="free"/>
  <flow id="JF41641" begin="180" fromJunction="J5" toJunction="J3" end="240" vehsPerHour="22.643304116386055" departLane="free"/>
  <flow id="JF41642" begin="180" fromJunction="J5" toJunction="J6" end="240" vehsPerHour="60.634806069827626" departLane="free"/>
  <flow id="JF41643" begin="180" fromJunction="J5" toJunction="J7" end="240" vehsPerHour="39.42946444582141" departLane="free"/>
  <flow id="JF41644" begin="180" fromJunction="J6" toJunction="J3" end="240" vehsPerHour="63.18200777922696" departLane="free"/>
  <flow id="JF41645" begin="180" fromJunction="J6" toJunction="J4" end="240" vehsPerHour="9.360170131094783" departLane="free"/>
  <flow id="JF41646" begin="180" fromJunction="J6" toJunction="J7" end="240" vehsPerHour="1.5246762013889605" departLane="free"/>
  <flow id="JF41647" begin="180" fromJunction="J7" toJunction="J3" end="240" vehsPerHour="63.29250309024656" departLane="free"/>
  <flow id="JF41648" begin="180" fromJunction="J7" toJunction="J4" end="240" vehsPerHour="48.14906579748237" departLane="free"/>
  <flow id="JF41649" begin="180" fromJunction="J7" toJunction="J5" end="240" vehsPerHour="0.5037624341977582" departLane="free"/>
  <flow id="JF41650" begin="180" fromJunction="J7" toJunction="J6" end="240" vehsPerHour="65.73010445452103" departLane="free"/>
  <flow id="JF41651" begin="240" fromJunction="J0" toJunction="J3" end="300" vehsPerHour="90.22413128125946" departLane="free"/>
  <flow id="JF41652" begin="240" fromJunction="J0" toJunction="J4" end="300" vehsPerHour="101.77099866151781" departLane="free"/>
  <flow id="JF41653" begin="240" fromJunction="J0" toJunction="J5" end="300" vehsPerHour="97.5283579185553" departLane="free"/>
  <flow id="JF41654" begin="240" fromJunction="J0" toJunction="J7" end="300" vehsPerHour="124.63452082713479" departLane="free"/>
  <flow id="JF41655" begin="240" fromJunction="J3" toJunction="J0" end="300" vehsPerHour="104.86772476071579" departLane="free"/>
  <flow id="JF41656" begin="240" fromJunction="J3" toJunction="J4" end="300" vehsPerHour="119.74540734765095" departLane="free"/>
  <flow id="JF41657" begin="240" fromJunction="J3" toJunction="J5" end="300" vehsPerHour="100.66876350094822" departLane="free"/>
  <flow id="JF41658" begin="240" fromJunction="J3" toJunction="J6" end="300" vehsPerHour="93.848705745178" departLane="free"/>
  <flow id="JF41659" begin="240" fromJunction="J4" toJunction="J0" end="300" vehsPerHour="50.15446830315343" departLane="free"/>
  <flow id="JF41660" begin="240" fromJunction="J4" toJunction="J3" end="300" vehsPerHour="57.95665872456573" departLane="free"/>
  <flow id="JF41661" begin="240" fromJunction="J4" toJunction="J5" end="300" vehsPerHour="4.605862269062452" departLane="free"/>
  <flow id="JF41662" begin="240" fromJunction="J4" toJunction="J6" end="300" vehsPerHour="44.45127059838428" departLane="free"/>
  <flow id="JF41663" begin="240" fromJunction="J4" toJunction="J7" end="300" vehsPerHour="59.761035638542175" departLane="free"/>
  <flow id="JF41664" begin="240" fromJunction="J5" toJunction="J6" end="300" vehsPerHour="68.45483087107661" departLane="free"/>
  <flow id="JF41665" begin="240" fromJunction="J6" toJunction="J0" end="300" vehsPerHour="46.08334369741415" departLane="free"/>
  <flow id="JF41666" begin="240" fromJunction="J6" toJunction="J4" end="300" vehsPerHour="61.289886899069366" departLane="free"/>
  <flow id="JF41667" begin="240" fromJunction="J6" toJunction="J5" end="300" vehsPerHour="62.37789501353466" departLane="free"/>
  <flow id="JF41668" begin="240" fromJunction="J7" toJunction="J0" end="300" vehsPerHour="20.022815791781916" departLane="free"/>
  <flow id="JF41669" begin="240" fromJunction="J7" toJunction="J3" end="300" vehsPerHour="24.21480059930841" departLane="free"/>
  <flow id="JF41670" begin="240" fromJunction="J7" toJunction="J4" end="300" vehsPerHour="18.522636386220064" departLane="free"/>
  <flow id="JF41671" begin="240" fromJunction="J7" toJunction="J5" end="300" vehsPerHour="24.386371407827976" departLane="free"/>
  <flow id="JF41672" begin="240" fromJunction="J7" toJunction="J6" end="300" vehsPerHour="4.2924260000982075" departLane="free"/>
  <flow id="JF41673" begin="300" fromJunction="J0" toJunction="J3" end="360" vehsPerHour="85.40458901253577" departLane="free"/>
  <flow id="JF41674" begin="300" fromJunction="J0" toJunction="J4" end="360" vehsPerHour="57.134617578335586" departLane="free"/>
  <flow id="JF41675" begin="300" fromJunction="J0" toJunction="J5" end="360" vehsPerHour="92.56361409329894" departLane="free"/>
  <flow id="JF41676" begin="300" fromJunction="J0" toJunction="J6" end="360" vehsPerHour="94.48655699493203" departLane="free"/>
  <flow id="JF41677" begin="300" fromJunction="J3" toJunction="J0" end="360" vehsPerHour="55.24954675606619" departLane="free"/>
  <flow id="JF41678" begin="300" fromJunction="J3" toJunction="J5" end="360" vehsPerHour="23.688429226000938" departLane="free"/>
  <flow id="JF41679" begin="300" fromJunction="J3" toJunction="J6" end="360" vehsPerHour="9.713005117561371" departLane="free"/>
  <flow id="JF41680" begin="300" fromJunction="J3" toJunction="J7" end="360" vehsPerHour="56.79984742368567" departLane="free"/>
  <flow id="JF41681" begin="300" fromJunction="J4" toJunction="J0" end="360" vehsPerHour="61.85891682677977" departLane="free"/>
  <flow id="JF41682" begin="300" fromJunction="J4" toJunction="J3" end="360" vehsPerHour="45.628836502942804" departLane="free"/>
  <flow id="JF41683" begin="300" fromJunction="J4" toJunction="J5" end="360" vehsPerHour="16.48651827147767" departLane="free"/>
  <flow id="JF41684" begin="300" fromJunction="J4" toJunction="J6" end="360" vehsPerHour="27.613335235496788" departLane="free"/>
  <flow id="JF41685" begin="300" fromJunction="J4" toJunction="J7" end="360" vehsPerHour="13.746496543848751" departLane="free"/>
  <flow id="JF41686" begin="300" fromJunction="J5" toJunction="J0" end="360" vehsPerHour="53.63210376332348" departLane="free"/>
  <flow id="JF41687" begin="300" fromJunction="J5" toJunction="J3" end="360" vehsPerHour="55.200607810710885" departLane="free"/>
  <flow id="JF41688" begin="300" fromJunction="J5" toJunction="J4" end="360" vehsPerHour="2.666714655634974" departLane="free"/>
  <flow id="JF41689" begin="300" fromJunction="J5" toJunction="J6" end="360" vehsPerHour="64.87725183542116" departLane="free"/>
  <flow id="JF41690" begin="300" fromJunction="J5" toJunction="J7" end="360" vehsPerHour="4.383174428591029" departLane="free"/>
  <flow id="JF41691" begin="300" fromJunction="J6" toJunction="J0" end="360" vehsPerHour="20.213983123654764" departLane="free"/>
  <flow id="JF41692" begin="300" fromJunction="J6" toJunction="J3" end="360" vehsPerHour="2.4172811537313494" departLane="free"/>
  <flow id="JF41693" begin="300" fromJunction="J6" toJunction="J5" end="360" vehsPerHour="68.17944632185863" departLane="free"/>
  <flow id="JF41694" begin="300" fromJunction="J6" toJunction="J7" end="360" vehsPerHour="13.612151048933603" departLane="free"/>
  <flow id="JF41695" begin="300" fromJunction="J7" toJunction="J4" end="360" vehsPerHour="26.791777966816632" departLane="free"/>
  <flow id="JF41696" begin="300" fromJunction="J7" toJunction="J6" end="360" vehsPerHour="65.65100468561378" departLane="free"/>
  <flow id="JF41697" begin="360" fromJunction="J0" toJunction="J3" end="420" vehsPerHour="5.977249282796253" departLane="free"/>
  <flow id="JF41698" begin="360" fromJunction="J0" toJunction="J4" end="420" vehsPerHour="73.20328520973203" departLane="free"/>
  <flow id="JF41699" begin="360" fromJunction="J0" toJunction="J5" end="420" vehsPerHour="75.90394266326707" departLane="free"/>
  <flow id="JF41700" begin="360" fromJunction="J0" toJunction="J6" end="420" vehsPerHour="22.655707172499227" departLane="free"/>
  <flow id="JF41701" begin="360" fromJunction="J3" toJunction="J0" end="420" vehsPerHour="1.863077590327665" departLane="free"/>
  <flow id="JF41702" begin="360" fromJunction="J3" toJunction="J4" end="420" vehsPerHour="46.758022647285195" departLane="free"/>
  <flow id="JF41703" begin="360" fromJunction="J3" toJunction="J5" end="420" vehsPerHour="45.560068928807326" departLane="free"/>
  <flow id="JF41704" begin="360" fromJunction="J3" toJunction="J6" end="420" vehsPerHour="7.428480739013989" departLane="free"/>
  <flow id="JF41705" begin="360" fromJunction="J3" toJunction="J7" end="420" vehsPerHour="133.4804020857226" departLane="free"/>
  <flow id="JF41706" begin="360" fromJunction="J4" toJunction="J3" end="420" vehsPerHour="43.92637317212342" departLane="free"/>
  <flow id="JF41707" begin="360" fromJunction="J4" toJunction="J5" end="420" vehsPerHour="12.65012520499965" departLane="free"/>
  <flow id="JF41708" begin="360" fromJunction="J4" toJunction="J6" end="420" vehsPerHour="62.957662298812835" departLane="free"/>
  <flow id="JF41709" begin="360" fromJunction="J5" toJunction="J3" end="420" vehsPerHour="3.7929407792295313" departLane="free"/>
  <flow id="JF41710" begin="360" fromJunction="J5" toJunction="J6" end="420" vehsPerHour="5.677535760857376" departLane="free"/>
  <flow id="JF41711" begin="360" fromJunction="J6" toJunction="J0" end="420" vehsPerHour="1.3710634676613485" departLane="free"/>
  <flow id="JF41712" begin="360" fromJunction="J6" toJunction="J3" end="420" vehsPerHour="34.55561120608734" departLane="free"/>
  <flow id="JF41713" begin="360" fromJunction="J6" toJunction="J4" end="420" vehsPerHour="53.64217448158549" departLane="free"/>
  <flow id="JF41714" begin="360" fromJunction="J6" toJunction="J5" end="420" vehsPerHour="48.00929824438871" departLane="free"/>
  <flow id="JF41715" begin="360" fromJunction="J6" toJunction="J7" end="420" vehsPerHour="4.443822521187199" departLane="free"/>
  <flow id="JF41716" begin="360" fromJunction="J7" toJunction="J0" end="420" vehsPerHour="17.12963787657045" departLane="free"/>
  <flow id="JF41717" begin="360" fromJunction="J7" toJunction="J3" end="420" vehsPerHour="67.64395992073787" departLane="free"/>
  <flow id="JF41718" begin="360" fromJunction="J7" toJunction="J4" end="420" vehsPerHour="61.31770360392585" departLane="free"/>
  <flow id="JF41719" begin="360" fromJunction="J7" toJunction="J6" end="420" vehsPerHour="57.29414996213697" departLane="free"/>
  <flow id="JF41720" begin="420" fromJunction="J0" toJunction="J3" end="480" vehsPerHour="96.36880199470876" departLane="free"/>
  <flow id="JF41721" begin="420" fromJunction="J0" toJunction="J4" end="480" vehsPerHour="76.14421290387871" departLane="free"/>
  <flow id="JF41722" begin="420" fromJunction="J0" toJunction="J5" end="480" vehsPerHour="23.96796553551613" departLane="free"/>
  <flow id="JF41723" begin="420" fromJunction="J0" toJunction="J6" end="480" vehsPerHour="38.05234045735046" departLane="free"/>
  <flow id="JF41724" begin="420" fromJunction="J0" toJunction="J7" end="480" vehsPerHour="114.99694595278999" departLane="free"/>
  <flow id="JF41725" begin="420" fromJunction="J3" toJunction="J0" end="480" vehsPerHour="86.62434506130799" departLane="free"/>
  <flow id="JF41726" begin="420" fromJunction="J4" toJunction="J0" end="480" vehsPerHour="34.889756616653045" departLane="free"/>
  <flow id="JF41727" begin="420" fromJunction="J4" toJunction="J3" end="480" vehsPerHour="61.60850173675819" departLane="free"/>
  <flow id="JF41728" begin="420" fromJunction="J5" toJunction="J0" end="480" vehsPerHour="49.68029967985144" departLane="free"/>
  <flow id="JF41729" begin="420" fromJunction="J5" toJunction="J3" end="480" vehsPerHour="59.73230535338925" departLane="free"/>
  <flow id="JF41730" begin="420" fromJunction="J5" toJunction="J6" end="480" vehsPerHour="31.123864019809453" departLane="free"/>
  <flow id="JF41731" begin="420" fromJunction="J5" toJunction="J7" end="480" vehsPerHour="42.25253483224511" departLane="free"/>
  <flow id="JF41732" begin="420" fromJunction="J6" toJunction="J0" end="480" vehsPerHour="32.41629834615309" departLane="free"/>
  <flow id="JF41733" begin="420" fromJunction="J6" toJunction="J3" end="480" vehsPerHour="67.90453024923231" departLane="free"/>
  <flow id="JF41734" begin="420" fromJunction="J6" toJunction="J4" end="480" vehsPerHour="56.8231109900601" departLane="free"/>
  <flow id="JF41735" begin="420" fromJunction="J6" toJunction="J5" end="480" vehsPerHour="11.513287323996517" departLane="free"/>
  <flow id="JF41736" begin="420" fromJunction="J7" toJunction="J0" end="480" vehsPerHour="36.78356204774717" departLane="free"/>
  <flow id="JF41737" begin="420" fromJunction="J7" toJunction="J3" end="480" vehsPerHour="52.78219319672833" departLane="free"/>
  <flow id="JF41738" begin="420" fromJunction="J7" toJunction="J4" end="480" vehsPerHour="58.11559980792269" departLane="free"/>
  <flow id="JF41739" begin="420" fromJunction="J7" toJunction="J6" end="480" vehsPerHour="25.073291237586393" departLane="free"/>
  <flow id="JF41740" begin="480" fromJunction="J0" toJunction="J3" end="540" vehsPerHour="13.157432182174196" departLane="free"/>
  <flow id="JF41741" begin="480" fromJunction="J0" toJunction="J4" end="540" vehsPerHour="42.26935035047352" departLane="free"/>
  <flow id="JF41742" begin="480" fromJunction="J0" toJunction="J5" end="540" vehsPerHour="79.9568910122368" departLane="free"/>
  <flow id="JF41743" begin="480" fromJunction="J0" toJunction="J6" end="540" vehsPerHour="24.951135430509108" departLane="free"/>
  <flow id="JF41744" begin="480" fromJunction="J0" toJunction="J7" end="540" vehsPerHour="108.70512468905159" departLane="free"/>
  <flow id="JF41745" begin="480" fromJunction="J3" toJunction="J0" end="540" vehsPerHour="85.43172563312092" departLane="free"/>
  <flow id="JF41746" begin="480" fromJunction="J3" toJunction="J4" end="540" vehsPerHour="71.35654100464596" departLane="free"/>
  <flow id="JF41747" begin="480" fromJunction="J3" toJunction="J6" end="540" vehsPerHour="41.648059032248625" departLane="free"/>
  <flow id="JF41748" begin="480" fromJunction="J3" toJunction="J7" end="540" vehsPerHour="4.6754711229584265" departLane="free"/>
  <flow id="JF41749" begin="480" fromJunction="J4" toJunction="J0" end="540" vehsPerHour="36.018179468216935" departLane="free"/>
  <flow id="JF41750" begin="480" fromJunction="J4" toJunction="J3" end="540" vehsPerHour="52.22117055044047" departLane="free"/>
  <flow id="JF41751" begin="480" fromJunction="J4" toJunction="J6" end="540" vehsPerHour="66.20153625757578" departLane="free"/>
  <flow id="JF41752" begin="480" fromJunction="J4" toJunction="J7" end="540" vehsPerHour="22.715155854900072" departLane="free"/>
  <flow id="JF41753" begin="480" fromJunction="J5" toJunction="J0" end="540" vehsPerHour="37.812296110306406" departLane="free"/>
  <flow id="JF41754" begin="480" fromJunction="J5" toJunction="J3" end="540" vehsPerHour="48.11816202438061" departLane="free"/>
  <flow id="JF41755" begin="480" fromJunction="J5" toJunction="J4" end="540" vehsPerHour="67.89189974194085" departLane="free"/>
  <flow id="JF41756" begin="480" fromJunction="J5" toJunction="J6" end="540" vehsPerHour="46.134051046521805" departLane="free"/>
  <flow id="JF41757" begin="480" fromJunction="J5" toJunction="J7" end="540" vehsPerHour="56.166085170354" departLane="free"/>
  <flow id="JF41758" begin="480" fromJunction="J6" toJunction="J3" end="540" vehsPerHour="7.247245542408109" departLane="free"/>
  <flow id="JF41759" begin="480" fromJunction="J6" toJunction="J4" end="540" vehsPerHour="48.87137678642799" departLane="free"/>
  <flow id="JF41760" begin="480" fromJunction="J6" toJunction="J5" end="540" vehsPerHour="64.9418957418759" departLane="free"/>
  <flow id="JF41761" begin="480" fromJunction="J6" toJunction="J7" end="540" vehsPerHour="11.711920815526092" departLane="free"/>
  <flow id="JF41762" begin="480" fromJunction="J7" toJunction="J0" end="540" vehsPerHour="3.7953649521203787" departLane="free"/>
  <flow id="JF41763" begin="480" fromJunction="J7" toJunction="J3" end="540" vehsPerHour="15.712639468073856" departLane="free"/>
  <flow id="JF41764" begin="480" fromJunction="J7" toJunction="J4" end="540" vehsPerHour="24.117101638776923" departLane="free"/>
  <flow id="JF41765" begin="480" fromJunction="J7" toJunction="J5" end="540" vehsPerHour="66.36209506130947" departLane="free"/>
  <flow id="JF41766" begin="480" fromJunction="J7" toJunction="J6" end="540" vehsPerHour="21.80239808153477" departLane="free"/>
  <flow id="JF41767" begin="540" fromJunction="J0" toJunction="J3" end="600" vehsPerHour="132.73067251910678" departLane="free"/>
  <flow id="JF41768" begin="540" fromJunction="J0" toJunction="J4" end="600" vehsPerHour="51.47158466071093" departLane="free"/>
  <flow id="JF41769" begin="540" fromJunction="J0" toJunction="J5" end="600" vehsPerHour="110.49387949684233" departLane="free"/>
  <flow id="JF41770" begin="540" fromJunction="J0" toJunction="J6" end="600" vehsPerHour="122.9608485797662" departLane="free"/>
  <flow id="JF41771" begin="540" fromJunction="J3" toJunction="J0" end="600" vehsPerHour="59.2128468779999" departLane="free"/>
  <flow id="JF41772" begin="540" fromJunction="J3" toJunction="J4" end="600" vehsPerHour="104.52480347581137" departLane="free"/>
  <flow id="JF41773" begin="540" fromJunction="J3" toJunction="J6" end="600" vehsPerHour="35.50781108937192" departLane="free"/>
  <flow id="JF41774" begin="540" fromJunction="J3" toJunction="J7" end="600" vehsPerHour="49.03370200620888" departLane="free"/>
  <flow id="JF41775" begin="540" fromJunction="J4" toJunction="J0" end="600" vehsPerHour="7.2841958560642315" departLane="free"/>
  <flow id="JF41776" begin="540" fromJunction="J4" toJunction="J3" end="600" vehsPerHour="3.1058892086208796" departLane="free"/>
  <flow id="JF41777" begin="540" fromJunction="J4" toJunction="J5" end="600" vehsPerHour="44.5717513088168" departLane="free"/>
  <flow id="JF41778" begin="540" fromJunction="J4" toJunction="J6" end="600" vehsPerHour="39.844627934321025" departLane="free"/>
  <flow id="JF41779" begin="540" fromJunction="J5" toJunction="J0" end="600" vehsPerHour="65.40979585316175" departLane="free"/>
  <flow id="JF41780" begin="540" fromJunction="J5" toJunction="J3" end="600" vehsPerHour="54.446832353636815" departLane="free"/>
  <flow id="JF41781" begin="540" fromJunction="J5" toJunction="J6" end="600" vehsPerHour="2.54684963478682" departLane="free"/>
  <flow id="JF41782" begin="540" fromJunction="J5" toJunction="J7" end="600" vehsPerHour="54.024736814178695" departLane="free"/>
  <flow id="JF41783" begin="540" fromJunction="J6" toJunction="J0" end="600" vehsPerHour="38.383236857110084" departLane="free"/>
  <flow id="JF41784" begin="540" fromJunction="J6" toJunction="J3" end="600" vehsPerHour="54.84031557724551" departLane="free"/>
  <flow id="JF41785" begin="540" fromJunction="J6" toJunction="J4" end="600" vehsPerHour="4.5599521831777965" departLane="free"/>
  <flow id="JF41786" begin="540" fromJunction="J6" toJunction="J5" end="600" vehsPerHour="17.40067496831397" departLane="free"/>
  <flow id="JF41787" begin="540" fromJunction="J6" toJunction="J7" end="600" vehsPerHour="45.05642417588644" departLane="free"/>
  <flow id="JF41788" begin="540" fromJunction="J7" toJunction="J0" end="600" vehsPerHour="60.93191025222612" departLane="free"/>
  <flow id="JF41789" begin="540" fromJunction="J7" toJunction="J3" end="600" vehsPerHour="19.95243398213468" departLane="free"/>
  <flow id="JF41790" begin="540" fromJunction="J7" toJunction="J4" end="600" vehsPerHour="52.3762714569167" departLane="free"/>
  <flow id="JF41791" begin="540" fromJunction="J7" toJunction="J5" end="600" vehsPerHour="2.266786331550596" departLane="free"/>
  <flow id="JF41792" begin="600" fromJunction="J0" toJunction="J3" end="660" vehsPerHour="56.01908609506426" departLane="free"/>
  <flow id="JF41793" begin="600" fromJunction="J0" toJunction="J5" end="660" vehsPerHour="45.13035968707791" departLane="free"/>
  <flow id="JF41794" begin="600" fromJunction="J0" toJunction="J7" end="660" vehsPerHour="69.90490557277896" departLane="free"/>
  <flow id="JF41795" begin="600" fromJunction="J3" toJunction="J4" end="660" vehsPerHour="125.02709103552601" departLane="free"/>
  <flow id="JF41796" begin="600" fromJunction="J3" toJunction="J6" end="660" vehsPerHour="30.74783970967276" departLane="free"/>
  <flow id="JF41797" begin="600" fromJunction="J3" toJunction="J7" end="660" vehsPerHour="92.33547461814297" departLane="free"/>
  <flow id="JF41798" begin="600" fromJunction="J4" toJunction="J0" end="660" vehsPerHour="39.091915951433144" departLane="free"/>
  <flow id="JF41799" begin="600" fromJunction="J4" toJunction="J3" end="660" vehsPerHour="36.996611683683" departLane="free"/>
  <flow id="JF41800" begin="600" fromJunction="J4" toJunction="J5" end="660" vehsPerHour="17.189858958173723" departLane="free"/>
  <flow id="JF41801" begin="600" fromJunction="J4" toJunction="J6" end="660" vehsPerHour="58.34633601700197" departLane="free"/>