<?xml version="1.0" encoding="UTF-8"?>
<routes xmlns:xsi="http://www.w3.org/2001/XMLSchema-instance" xsi:noNamespaceSchemaLocation="http://sumo.dlr.de/xsd/routes_file.xsd">
  <flow id="JF343511" begin="0" fromJunction="J0" toJunction="J3" end="60" vehsPerHour="375.06262608388016" departLane="free"/>
  <flow id="JF343512" begin="0" fromJunction="J3" toJunction="J0" end="60" vehsPerHour="307.55850345333994" departLane="free"/>
  <flow id="JF343513" begin="0" fromJunction="J0" toJunction="J4" end="60" vehsPerHour="82.46019405446417" departLane="free"/>
  <flow id="JF343514" begin="0" fromJunction="J0" toJunction="J6" end="60" vehsPerHour="28.49026981232293" departLane="free"/>
  <flow id="JF343515" begin="0" fromJunction="J0" toJunction="J7" end="60" vehsPerHour="50.20977101584693" departLane="free"/>
  <flow id="JF343516" begin="0" fromJunction="J0" toJunction="J5" end="60" vehsPerHour="38.03427560486233" departLane="free"/>
  <flow id="JF343517" begin="0" fromJunction="J3" toJunction="J4" end="60" vehsPerHour="83.16768305111333" departLane="free"/>
  <flow id="JF343518" begin="0" fromJunction="J3" toJunction="J6" end="60" vehsPerHour="117.4531704333896" departLane="free"/>
  <flow id="JF343519" begin="0" fromJunction="J3" toJunction="J7" end="60" vehsPerHour="9.617780526466069" departLane="free"/>
  <flow id="JF343520" begin="0" fromJunction="J3" toJunction="J5" end="60" vehsPerHour="42.69426752599482" departLane="free"/>
  <flow id="JF343521" begin="60" fromJunction="J0" toJunction="J3" end="120" vehsPerHour="402.5556213354617" departLane="free"/>
  <flow id="JF343522" begin="60" fromJunction="J3" toJunction="J0" end="120" vehsPerHour="39.437771176810415" departLane="free"/>
  <flow id="JF343523" begin="60" fromJunction="J0" toJunction="J4" end="120" vehsPerHour="42.48560225283149" departLane="free"/>
  <flow id="JF343524" begin="60" fromJunction="J0" toJunction="J6" end="120" vehsPerHour="99.55477703790375" departLane="free"/>
  <flow id="JF343525" begin="60" fromJunction="J0" toJunction="J7" end="120" vehsPerHour="111.92320554344663" departLane="free"/>
  <flow id="JF343526" begin="60" fromJunction="J0" toJunction="J5" end="120" vehsPerHour="66.23247647000271" departLane="free"/>
  <flow id="JF343527" begin="60" fromJunction="J3" toJunction="J4" end="120" vehsPerHour="18.56915862763007" departLane="free"/>
  <flow id="JF343528" begin="60" fromJunction="J3" toJunction="J6" end="120" vehsPerHour="123.31346535003047" departLane="free"/>
  <flow id="JF343529" begin="60" fromJunction="J3" toJunction="J7" end="120" vehsPerHour="15.666047833769017" departLane="free"/>
  <flow id="JF343530" begin="60" fromJunction="J3" toJunction="J5" end="120" vehsPerHour="59.138395712426906" departLane="free"/>
  <flow id="JF343531" begin="60" fromJunction="J4" toJunction="J6" end="120" vehsPerHour="23.544128713042326" departLane="free"/>
  <flow id="JF343532" begin="60" fromJunction="J4" toJunction="J7" end="120" vehsPerHour="52.481878090866424" departLane="free"/>
  <flow id="JF343533" begin="60" fromJunction="J4" toJunction="J5" end="120" vehsPerHour="21.075850762824594" departLane="free"/>
  <flow id="JF343534" begin="60" fromJunction="J6" toJunction="J4" end="120" vehsPerHour="46.34581770697552" departLane="free"/>
  <flow id="JF343535" begin="60" fromJunction="J6" toJunction="J7" end="120" vehsPerHour="37.33222092434038" departLane="free"/>
  <flow id="JF343536" begin="60" fromJunction="J6" toJunction="J5" end="120" vehsPerHour="57.046870713016645" departLane="free"/>
  <flow id="JF343537" begin="60" fromJunction="J7" toJunction="J4" end="120" vehsPerHour="40.69907654232421" departLane="free"/>
  <flow id="JF343538" begin="60" fromJunction="J7" toJunction="J6" end="120" vehsPerHour="5.2588066098480635" departLane="free"/>
  <flow id="JF343539" begin="60" fromJunction="J7" toJunction="J5" end="120" vehsPerHour="1.068590796322373" departLane="free"/>
  <flow id="JF343540" begin="60" fromJunction="J5" toJunction="J4" end="120" vehsPerHour="0.17984316695181937" departLane="free"/>
  <flow id="JF343541" begin="60" fromJunction="J5" toJunction="J6" end="120" vehsPerHour="19.598342103100617" departLane="free"/>
  <flow id="JF343542" begin="60" fromJunction="J5" toJunction="J7" end="120" vehsPerHour="0.9751878830860709" departLane="free"/>
  <flow id="JF343543" begin="60" fromJunction="J4" toJunction="J0" end="120" vehsPerHour="62.32525043519426" departLane="free"/>
  <flow id="JF343544" begin="60" fromJunction="J4" toJunction="J3" end="120" vehsPerHour="18.468137698834354" departLane="free"/>
  <flow id="JF343545" begin="60" fromJunction="J6" toJunction="J0" end="120" vehsPerHour="39.245054831892716" departLane="free"/>
  <flow id="JF343546" begin="60" fromJunction="J6" toJunction="J3" end="120" vehsPerHour="44.134147426692145" departLane="free"/>
  <flow id="JF343547" begin="60" fromJunction="J7" toJunction="J0" end="120" vehsPerHour="30.648052246272766" departLane="free"/>
  <flow id="JF343548" begin="60" fromJunction="J7" toJunction="J3" end="120" vehsPerHour="60.622857333168724" departLane="free"/>
  <flow id="JF343549" begin="60" fromJunction="J5" toJunction="J0" end="120" vehsPerHour="31.276588204612498" departLane="free"/>
  <flow id="JF343550" begin="60" fromJunction="J5" toJunction="J3" end="120" vehsPerHour="0.0903488107806663" departLane="free"/>
  <flow id="JF343551" begin="120" fromJunction="J0" toJunction="J3" end="180" vehsPerHour="293.92575877480215" departLane="free"/>
  <flow id="JF343552" begin="120" fromJunction="J3" toJunction="J0" end="180" vehsPerHour="51.75357023844592" departLane="free"/>
  <flow id="JF343553" begin="120" fromJunction="J0" toJunction="J4" end="180" vehsPerHour="65.59584096376257" departLane="free"/>
  <flow id="JF343554" begin="120" fromJunction="J0" toJunction="J6" end="180" vehsPerHour="9.312826940159914" departLane="free"/>
  <flow id="JF343555" begin="120" fromJunction="J0" toJunction="J7" end="180" vehsPerHour="16.980338540725626" departLane="free"/>
  <flow id="JF343556" begin="120" fromJunction="J0" toJunction="J5" end="180" vehsPerHour="62.395013829233356" departLane="free"/>
  <flow id="JF343557" begin="120" fromJunction="J3" toJunction="J4" end="180" vehsPerHour="73.93981023059023" departLane="free"/>
  <flow id="JF343558" begin="120" fromJunction="J3" toJunction="J6" end="180" vehsPerHour="68.53594574222593" departLane="free"/>
  <flow id="JF343559" begin="120" fromJunction="J3" toJunction="J7" end="180" vehsPerHour="129.4710427559621" departLane="free"/>
  <flow id="JF343560" begin="120" fromJunction="J3" toJunction="J5" end="180" vehsPerHour="15.948200267639919" departLane="free"/>
  <flow id="JF343561" begin="120" fromJunction="J4" toJunction="J6" end="180" vehsPerHour="25.31684214194078" departLane="free"/>
  <flow id="JF343562" begin="120" fromJunction="J4" toJunction="J7" end="180" vehsPerHour="43.91973787363106" departLane="free"/>
  <flow id="JF343563" begin="120" fromJunction="J4" toJunction="J5" end="180" vehsPerHour="67.57363765567484" departLane="free"/>
  <flow id="JF343564" begin="120" fromJunction="J6" toJunction="J4" end="180" vehsPerHour="52.17233447900909" departLane="free"/>
  <flow id="JF343565" begin="120" fromJunction="J6" toJunction="J7" end="180" vehsPerHour="47.44408861631603" departLane="free"/>
  <flow id="JF343566" begin="120" fromJunction="J6" toJunction="J5" end="180" vehsPerHour="39.62438435453353" departLane="free"/>
  <flow id="JF343567" begin="120" fromJunction="J7" toJunction="J4" end="180" vehsPerHour="65.39851654839096" departLane="free"/>
  <flow id="JF343568" begin="120" fromJunction="J7" toJunction="J6" end="180" vehsPerHour="14.678085755684275" departLane="free"/>
  <flow id="JF343569" begin="120" fromJunction="J7" toJunction="J5" end="180" vehsPerHour="47.421461399553756" departLane="free"/>
  <flow id="JF343570" begin="120" fromJunction="J5" toJunction="J4" end="180" vehsPerHour="48.061780425243256" departLane="free"/>
  <flow id="JF343571" begin="120" fromJunction="J5" toJunction="J6" end="180" vehsPerHour="16.440604467984116" departLane="free"/>
  <flow id="JF343572" begin="120" fromJunction="J5" toJunction="J7" end="180" vehsPerHour="5.352002441881822" departLane="free"/>
  <flow id="JF343573" begin="120" fromJunction="J4" toJunction="J0" end="180" vehsPerHour="6.38249672855238" departLane="free"/>
  <flow id="JF343574" begin="120" fromJunction="J4" toJunction="J3" end="180" vehsPerHour="35.55507001953007" departLane="free"/>
  <flow id="JF343575" begin="120" fromJunction="J6" toJunction="J0" end="180" vehsPerHour="40.13128962406979" departLane="free"/>
  <flow id="JF343576" begin="120" fromJunction="J6" toJunction="J3" end="180" vehsPerHour="60.53525817277008" departLane="free"/>
  <flow id="JF343577" begin="120" fromJunction="J7" toJunction="J0" end="180" vehsPerHour="34.84472236727105" departLane="free"/>
  <flow id="JF343578" begin="120" fromJunction="J7" toJunction="J3" end="180" vehsPerHour="9.22720676089013" departLane="free"/>
  <flow id="JF343579" begin="120" fromJunction="J5" toJunction="J0" end="180" vehsPerHour="53.030489450394825" departLane="free"/>
  <flow id="JF343580" begin="120" fromJunction="J5" toJunction="J3" end="180" vehsPerHour="2.1338251211900334" departLane="free"/>
  <flow id="JF343581" begin="180" fromJunction="J0" toJunction="J3" end="240" vehsPerHour="290.197822245486" departLane="free"/>
  <flow id="JF343582" begin="180" fromJunction="J3" toJunction="J0" end="240" vehsPerHour="440.8428387715472" departLane="free"/>
  <flow id="JF343583" begin="180" fromJunction="J0" toJunction="J4" end="240" vehsPerHour="65.0791869458077" departLane="free"/>
  <flow id="JF343584" begin="180" fromJunction="J0" toJunction="J6" end="240" vehsPerHour="17.723159103964075" departLane="free"/>
  <flow id="JF343585" begin="180" fromJunction="J0" toJunction="J7" end="240" vehsPerHour="11.051459720268339" departLane="free"/>
  <flow id="JF343586" begin="180" fromJunction="J0" toJunction="J5" end="240" vehsPerHour="79.74308729524589" departLane="free"/>
  <flow id="JF343587" begin="180" fromJunction="J3" toJunction="J4" end="240" vehsPerHour="122.7466798016093" departLane="free"/>
  <flow id="JF343588" begin="180" fromJunction="J3" toJunction="J6" end="240" vehsPerHour="69.74797353864803" departLane="free"/>
  <flow id="JF343589" begin="180" fromJunction="J3" toJunction="J7" end="240" vehsPerHour="128.63490189358848" departLane="free"/>
  <flow id="JF343590" begin="180" fromJunction="J3" toJunction="J5" end="240" vehsPerHour="1.4193764663185533" departLane="free"/>
  <flow id="JF343591" begin="180" fromJunction="J4" toJunction="J6" end="240" vehsPerHour="40.298791732438914" departLane="free"/>
  <flow id="JF343592" begin="180" fromJunction="J4" toJunction="J7" end="240" vehsPerHour="67.30457339111925" departLane="free"/>
  <flow id="JF343593" begin="180" fromJunction="J4" toJunction="J5" end="240" vehsPerHour="7.72389465402345" departLane="free"/>
  <flow id="JF343594" begin="180" fromJunction="J6" toJunction="J4" end="240" vehsPerHour="5.833754747695537" departLane="free"/>
  <flow id="JF343595" begin="180" fromJunction="J6" toJunction="J7" end="240" vehsPerHour="23.860881382342832" departLane="free"/>
  <flow id="JF343596" begin="180" fromJunction="J6" toJunction="J5" end="240" vehsPerHour="52.541220471365" departLane="free"/>
  <flow id="JF343597" begin="180" fromJunction="J7" toJunction="J4" end="240" vehsPerHour="30.43055147396057" departLane="free"/>
  <flow id="JF343598" begin="180" fromJunction="J7" toJunction="J6" end="240" vehsPerHour="4.348619789842375" departLane="free"/>
  <flow id="JF343599" begin="180" fromJunction="J7" toJunction="J5" end="240" vehsPerHour="44.99882746674779" departLane="free"/>
  <flow id="JF343600" begin="180" fromJunction="J5" toJunction="J4" end="240" vehsPerHour="38.083389179329856" departLane="free"/>
  <flow id="JF343601" begin="180" fromJunction="J5" toJunction="J6" end="240" vehsPerHour="2.5710416172193926" departLane="free"/>
  <flow id="JF343602" begin="180" fromJunction="J5" toJunction="J7" end="240" vehsPerHour="68.21485925256113" departLane="free"/>
  <flow id="JF343603" begin="180" fromJunction="J4" toJunction="J0" end="240" vehsPerHour="15.042000191530914" departLane="free"/>
  <flow id="JF343604" begin="180" fromJunction="J4" toJunction="J3" end="240" vehsPerHour="59.74868111624607" departLane="free"/>
  <flow id="JF343605" begin="180" fromJunction="J6" toJunction="J0" end="240" vehsPerHour="64.21342340994781" departLane="free"/>
  <flow id="JF343606" begin="180" fromJunction="J6" toJunction="J3" end="240" vehsPerHour="66.92756646099373" departLane="free"/>
  <flow id="JF343607" begin="180" fromJunction="J7" toJunction="J0" end="240" vehsPerHour="44.152634594027965" departLane="free"/>
  <flow id="JF343608" begin="180" fromJunction="J7" toJunction="J3" end="240" vehsPerHour="48.97771487974293" departLane="free"/>
  <flow id="JF343609" begin="180" fromJunction="J5" toJunction="J0" end="240" vehsPerHour="2.8859199846935892" departLane="free"/>
  <flow id="JF343610" begin="180" fromJunction="J5" toJunction="J3" end="240" vehsPerHour="48.420112685400646" departLane="free"/>
  <flow id="JF343611" begin="240" fromJunction="J0" toJunction="J3" end="300" vehsPerHour="422.73890998773953" departLane="free"/>
  <flow id="JF343612" begin="240" fromJunction="J3" toJunction="J0" end="300" vehsPerHour="263.2171038871931" departLane="free"/>
  <flow id="JF343613" begin="240" fromJunction="J0" toJunction="J4" end="300" vehsPerHour="123.94600701442234" departLane="free"/>
  <flow id="JF343614" begin="240" fromJunction="J0" toJunction="J6" end="300" vehsPerHour="103.7418416599874" departLane="free"/>
  <flow id="JF343615" begin="240" fromJunction="J0" toJunction="J7" end="300" vehsPerHour="25.594981454841307" departLane="free"/>
  <flow id="JF343616" begin="240" fromJunction="J0" toJunction="J5" end="300" vehsPerHour="51.73487182725827" departLane="free"/>
  <flow id="JF343617" begin="240" fromJunction="J3" toJunction="J4" end="300" vehsPerHour="79.99176753327524" departLane="free"/>
  <flow id="JF343618" begin="240" fromJunction="J3" toJunction="J6" end="300" vehsPerHour="104.6093752522727" departLane="free"/>
  <flow id="JF343619" begin="240" fromJunction="J3" toJunction="J7" end="300" vehsPerHour="40.622416653610195" departLane="free"/>
  <flow id="JF343620" begin="240" fromJunction="J3" toJunction="J5" end="300" vehsPerHour="114.1986307065122" departLane="free"/>
  <flow id="JF343621" begin="300" fromJunction="J0" toJunction="J3" end="360" vehsPerHour="227.82639707619268" departLane="free"/>
  <flow id="JF343622" begin="300" fromJunction="J3" toJunction="J0" end="360" vehsPerHour="400.5286009079348" departLane="free"/>
  <flow id="JF343623" begin="300" fromJunction="J0" toJunction="J4" end="360" vehsPerHour="121.44438816432066" departLane="free"/>
  <flow id="JF343624" begin="300" fromJunction="J0" toJunction="J6" end="360" vehsPerHour="133.32457906511542" departLane="free"/>
  <flow id="JF343625" begin="300" fromJunction="J0" toJunction="J7" end="360" vehsPerHour="72.65291409288206" departLane="free"/>
  <flow id="JF343626" begin="300" fromJunction="J0" toJunction="J5" end="360" vehsPerHour="15.785962294835908" departLane="free"/>
  <flow id="JF343627" begin="300" fromJunction="J3" toJunction="J4" end="360" vehsPerHour="126.04645659423889" departLane="free"/>
  <flow id="JF343628" begin="300" fromJunction="J3" toJunction="J6" end="360" vehsPerHour="110.7450499692667" departLane="free"/>
  <flow id="JF343629" begin="300" fromJunction="J3" toJunction="J7" end="360" vehsPerHour="68.00629056534294" departLane="free"/>
  <flow id="JF343630" begin="300" fromJunction="J3" toJunction="J5" end="360" vehsPerHour="42.28702279567434" departLane="free"/>
  <flow id="JF343631" begin="300" fromJunction="J4" toJunction="J6" end="360" vehsPerHour="48.391718681907314" departLane="free"/>
  <flow id="JF343632" begin="300" fromJunction="J4" toJunction="J7" end="360" vehsPerHour="29.39361838794462" departLane="free"/>
  <flow id="JF343633" begin="300" fromJunction="J4" toJunction="J5" end="360" vehsPerHour="48.924315391054414" departLane="free"/>
  <flow id="JF343634" begin="300" fromJunction="J6" toJunction="J4" end="360" vehsPerHour="22.72615450339886" departLane="free"/>
  <flow id="JF343635" begin="300" fromJunction="J6" toJunction="J7" end="360" vehsPerHour="30.255212834778284" departLane="free"/>
  <flow id="JF343636" begin="300" fromJunction="J6" toJunction="J5" end="360" vehsPerHour="6.425452294859026" departLane="free"/>
  <flow id="JF343637" begin="300" fromJunction="J7" toJunction="J4" end="360" vehsPerHour="45.370536899185865" departLane="free"/>
  <flow id="JF343638" begin="300" fromJunction="J7" toJunction="J6" end="360" vehsPerHour="47.79200800001747" departLane="free"/>
  <flow id="JF343639" begin="300" fromJunction="J7" toJunction="J5" end="360" vehsPerHour="57.51528130194317" departLane="free"/>
  <flow id="JF343640" begin="300" fromJunction="J5" toJunction="J4" end="360" vehsPerHour="58.76811203972342" departLane="free"/>
  <flow id="JF343641" begin="300" fromJunction="J5" toJunction="J6" end="360" vehsPerHour="34.452991100688806" departLane="free"/>
  <flow id="JF343642" begin="300" fromJunction="J5" toJunction="J7" end="360" vehsPerHour="54.17310166335518" departLane="free"/>
  <flow id="JF343643" begin="300" fromJunction="J4" toJunction="J0" end="360" vehsPerHour="41.053416383615456" departLane="free"/>
  <flow id="JF343644" begin="300" fromJunction="J4" toJunction="J3" end="360" vehsPerHour="33.30797712224355" departLane="free"/>
  <flow id="JF343645" begin="300" fromJunction="J6" toJunction="J0" end="360" vehsPerHour="41.209583052654835" departLane="free"/>
  <flow id="JF343646" begin="300" fromJunction="J6" toJunction="J3" end="360" vehsPerHour="5.307939791337054" departLane="free"/>
  <flow id="JF343647" begin="300" fromJunction="J7" toJunction="J0" end="360" vehsPerHour="64.15072561422575" departLane="free"/>
  <flow id="JF343648" begin="300" fromJunction="J7" toJunction="J3" end="360" vehsPerHour="14.929923449026454" departLane="free"/>
  <flow id="JF343649" begin="300" fromJunction="J5" toJunction="J0" end="360" vehsPerHour="29.429585352201034" departLane="free"/>
  <flow id="JF343650" begin="300" fromJunction="J5" toJunction="J3" end="360" vehsPerHour="28.550815850175248" departLane="free"/>
  <flow id="JF343651" begin="360" fromJunction="J0" toJunction="J3" end="420" vehsPerHour="14.065267913561133" departLane="free"/>
  <flow id="JF343652" begin="360" fromJunction="J3" toJunction="J0" end="420" vehsPerHour="108.95977981237397" departLane="free"/>
  <flow id="JF343653" begin="360" fromJunction="J0" toJunction="J4" end="420" vehsPerHour="110.48896063000714" departLane="free"/>
  <flow id="JF343654" begin="360" fromJunction="J0" toJunction="J6" end="420" vehsPerHour="64.74582892997698" departLane="free"/>
  <flow id="JF343655" begin="360" fromJunction="J0" toJunction="J7" end="420" vehsPerHour="76.53234762820554" departLane="free"/>
  <flow id="JF343656" begin="360" fromJunction="J0" toJunction="J5" end="420" vehsPerHour="96.01742292367643" departLane="free"/>
  <flow id="JF343657" begin="360" fromJunction="J3" toJunction="J4" end="420" vehsPerHour="124.73868373494581" departLane="free"/>
  <flow id="JF343658" begin="360" fromJunction="J3" toJunction="J6" end="420" vehsPerHour="18.089454698844314" departLane="free"/>
  <flow id="JF343659" begin="360" fromJunction="J3" toJunction="J7" end="420" vehsPerHour="9.092551443835896" departLane="free"/>
  <flow id="JF343660" begin="360" fromJunction="J3" toJunction="J5" end="420" vehsPerHour="100.54275407049292" departLane="free"/>
  <flow id="JF343661" begin="360" fromJunction="J4" toJunction="J6" end="420" vehsPerHour="67.69228802555551" departLane="free"/>
  <flow id="JF343662" begin="360" fromJunction="J4" toJunction="J7" end="420" vehsPerHour="63.71302496523932" departLane="free"/>
  <flow id="JF343663" begin="360" fromJunction="J4" toJunction="J5" end="420" vehsPerHour="64.49360801591791" departLane="free"/>
  <flow id="JF343664" begin="360" fromJunction="J6" toJunction="J4" end="420" vehsPerHour="50.50588359213207" departLane="free"/>
  <flow id="JF343665" begin="360" fromJunction="J6" toJunction="J7" end="420" vehsPerHour="14.303533841391355" departLane="free"/>
  <flow id="JF343666" begin="360" fromJunction="J6" toJunction="J5" end="420" vehsPerHour="17.135684189907735" departLane="free"/>
  <flow id="JF343667" begin="360" fromJunction="J7" toJunction="J4" end="420" vehsPerHour="16.23263750104541" departLane="free"/>
  <flow id="JF343668" begin="360" fromJunction="J7" toJunction="J6" end="420" vehsPerHour="66.18288324072631" departLane="free"/>
  <flow id="JF343669" begin="360" fromJunction="J7" toJunction="J5" end="420" vehsPerHour="35.17888311443905" departLane="free"/>
  <flow id="JF343670" begin="360" fromJunction="J5" toJunction="J4" end="420" vehsPerHour="47.10402741137401" departLane="free"/>
  <flow id="JF343671" begin="360" fromJunction="J5" toJunction="J6" end="420" vehsPerHour="38.068139576853724" departLane="free"/>
  <flow id="JF343672" begin="360" fromJunction="J5" toJunction="J7" end="420" vehsPerHour="30.2406297230464" departLane="free"/>
  <flow id="JF343673" begin="360" fromJunction="J4" toJunction="J0" end="420" vehsPerHour="42.55390255782856" departLane="free"/>
  <flow id="JF343674" begin="360" fromJunction="J4" toJunction="J3" end="420" vehsPerHour="68.04454402034418" departLane="free"/>
  <flow id="JF343675" begin="360" fromJunction="J6" toJunction="J0" end="420" vehsPerHour="21.87060128676064" departLane="free"/>
  <flow id="JF343676" begin="360" fromJunction="J6" toJunction="J3" end="420" vehsPerHour="60.59168350180356" departLane="free"/>
  <flow id="JF343677" begin="360" fromJunction="J7" toJunction="J0" end="420" vehsPerHour="28.714450267786482" departLane="free"/>
  <flow id="JF343678" begin="360" fromJunction="J7" toJunction="J3" end="420" vehsPerHour="28.532959844610954" departLane="free"/>
  <flow id="JF343679" begin="360" fromJunction="J5" toJunction="J0" end="420" vehsPerHour="62.006935837528694" departLane="free"/>
  <flow id="JF343680" begin="360" fromJunction="J5" toJunction="J3" end="420" vehsPerHour="13.250910650959133" departLane="free"/>
  <flow id="JF343681" begin="420" fromJunction="J0" toJunction="J3" end="480" vehsPerHour="204.2068500382311" departLane="free"/>
  <flow id="JF343682" begin="420" fromJunction="J3" toJunction="J0" end="480" vehsPerHour="61.07821974239866" departLane="free"/>
  <flow id="JF343683" begin="420" fromJunction="J0" toJunction="J4" end="480" vehsPerHour="82.32905032670364" departLane="free"/>
  <flow id="JF343684" begin="420" fromJunction="J0" toJunction="J6" end="480" vehsPerHour="77.85839541332138" departLane="free"/>
  <flow id="JF343685" begin="420" fromJunction="J0" toJunction="J7" end="480" vehsPerHour="57.569972177916206" departLane="free"/>
  <flow id="JF343686" begin="420" fromJunction="J0" toJunction="J5" end="480" vehsPerHour="107.0903991530229" departLane="free"/>
  <flow id="JF343687" begin="420" fromJunction="J3" toJunction="J4" end="480" vehsPerHour="45.5378541196864" departLane="free"/>
  <flow id="JF343688" begin="420" fromJunction="J3" toJunction="J6" end="480" vehsPerHour="97.81344932067644" departLane="free"/>
  <flow id="JF343689" begin="420" fromJunction="J3" toJunction="J7" end="480" vehsPerHour="133.7754485183499" departLane="free"/>
  <flow id="JF343690" begin="420" fromJunction="J3" toJunction="J5" end="480" vehsPerHour="122.71039668022253" departLane="free"/>
  <flow id="JF343691" begin="420" fromJunction="J4" toJunction="J6" end="480" vehsPerHour="59.6435783407048" departLane="free"/>
  <flow id="JF343692" begin="420" fromJunction="J4" toJunction="J7" end="480" vehsPerHour="24.83181843580723" departLane="free"/>
  <flow id="JF343693" begin="420" fromJunction="J4" toJunction="J5" end="480" vehsPerHour="9.026591147405325" departLane="free"/>
  <flow id="JF343694" begin="420" fromJunction="J6" toJunction="J4" end="480" vehsPerHour="48.63674243661618" departLane="free"/>
  <flow id="JF343695" begin="420" fromJunction="J6" toJunction="J7" end="480" vehsPerHour="28.31055955814079" departLane="free"/>
  <flow id="JF343696" begin="420" fromJunction="J6" toJunction="J5" end="480" vehsPerHour="41.935980406584996" departLane="free"/>
  <flow id="JF343697" begin="420" fromJunction="J7" toJunction="J4" end="480" vehsPerHour="32.9837261301411" departLane="free"/>
  <flow id="JF343698" begin="420" fromJunction="J7" toJunction="J6" end="480" vehsPerHour="57.07004535731373" departLane="free"/>
  <flow id="JF343699" begin="420" fromJunction="J7" toJunction="J5" end="480" vehsPerHour="53.08989659019154" departLane="free"/>
  <flow id="JF343700" begin="420" fromJunction="J5" toJunction="J4" end="480" vehsPerHour="48.978510335711704" departLane="free"/>
  <flow id="JF343701" begin="420" fromJunction="J5" toJunction="J6" end="480" vehsPerHour="19.14980266875055" departLane="free"/>
  <flow id="JF343702" begin="420" fromJunction="J5" toJunction="J7" end="480" vehsPerHour="4.76601182039593" departLane="free"/>
  <flow id="JF343703" begin="420" fromJunction="J4" toJunction="J0" end="480" vehsPerHour="3.082804443568858" departLane="free"/>
  <flow id="JF343704" begin="420" fromJunction="J4" toJunction="J3" end="480" vehsPerHour="37.27882714514495" departLane="free"/>
  <flow id="JF343705" begin="420" fromJunction="J6" toJunction="J0" end="480" vehsPerHour="9.508464814341465" departLane="free"/>
  <flow id="JF343706" begin="420" fromJunction="J6" toJunction="J3" end="480" vehsPerHour="52.50617351504347" departLane="free"/>
  <flow id="JF343707" begin="420" fromJunction="J7" toJunction="J0" end="480" vehsPerHour="65.12628362420716" departLane="free"/>
  <flow id="JF343708" begin="420" fromJunction="J7" toJunction="J3" end="480" vehsPerHour="3.8618453865926097" departLane="free"/>
  <flow id="JF343709" begin="420" fromJunction="J5" toJunction="J0" end="480" vehsPerHour="43.40016213530244" departLane="free"/>
  <flow id="JF343710" begin="420" fromJunction="J5" toJunction="J3" end="480" vehsPerHour="44.80343503225997" departLane="free"/>
  <flow id="JF343711" begin="480" fromJunction="J0" toJunction="J3" end="540" vehsPerHour="200.4140397410946" departLane="free"/>
  <flow id="JF343712" begin="480" fromJunction="J3" toJunction="J0" end="540" vehsPerHour="295.25042991204185" departLane="free"/>
  <flow id="JF343713" begin="480" fromJunction="J0" toJunction="J4" end="540" vehsPerHour="113.1424620625051" departLane="free"/>
  <flow id="JF343714" begin="480" fromJunction="J0" toJunction="J6" end="540" vehsPerHour="5.396844176301688" departLane="free"/>
  <flow id="JF343715" begin="480" fromJunction="J0" toJunction="J7" end="540" vehsPerHour="11.38711091423026" departLane="free"/>
  <flow id="JF343716" begin="480" fromJunction="J0" toJunction="J5" end="540" vehsPerHour="1.0746812727657058" departLane="free"/>
  <flow id="JF343717" begin="480" fromJunction="J3" toJunction="J4" end="540" vehsPerHour="131.8524876236048" departLane="free"/>
  <flow id="JF343718" begin="480" fromJunction="J3" toJunction="J6" end="540" vehsPerHour="83.13316750790835" departLane="free"/>
  <flow id="JF343719" begin="480" fromJunction="J3" toJunction="J7" end="540" vehsPerHour="12.084468350208976" departLane="free"/>
  <flow id="JF343720" begin="480" fromJunction="J3" toJunction="J5" end="540" vehsPerHour="78.8284857652169" departLane="free"/>
  <flow id="JF343721" begin="480" fromJunction="J4" toJunction="J6" end="540" vehsPerHour="38.17111872617862" departLane="free"/>
  <flow id="JF343722" begin="480" fromJunction="J4" toJunction="J7" end="540" vehsPerHour="39.47559497310484" departLane="free"/>
  <flow id="JF343723" begin="480" fromJunction="J4" toJunction="J5" end="540" vehsPerHour="61.0188692977302" departLane="free"/>
  <flow id="JF343724" begin="480" fromJunction="J6" toJunction="J4" end="540" vehsPerHour="2.231477269809947" departLane="free"/>
  <flow id="JF343725" begin="480" fromJunction="J6" toJunction="J7" end="540" vehsPerHour="43.13059649656601" departLane="free"/>
  <flow id="JF343726" begin="480" fromJunction="J6" toJunction="J5" end="540" vehsPerHour="60.55342869866333" departLane="free"/>
  <flow id="JF343727" begin="480" fromJunction="J7" toJunction="J4" end="540" vehsPerHour="53.74557594783079" departLane="free"/>
  <flow id="JF343728" begin="480" fromJunction="J7" toJunction="J6" end="540" vehsPerHour="33.734816528599715" departLane="free"/>
  <flow id="JF343729" begin="480" fromJunction="J7" toJunction="J5" end="540" vehsPerHour="42.57460603375132" departLane="free"/>
  <flow id="JF343730" begin="480" fromJunction="J5" toJunction="J4" end="540" vehsPerHour="65.2390695004576" departLane="free"/>
  <flow id="JF343731" begin="480" fromJunction="J5" toJunction="J6" end="540" vehsPerHour="51.440458635700764" departLane="free"/>
  <flow id="JF343732" begin="480" fromJunction="J5" toJunction="J7" end="540" vehsPerHour="51.33409709555442" departLane="free"/>
  <flow id="JF343733" begin="480" fromJunction="J4" toJunction="J0" end="540" vehsPerHour="30.04611770736233" departLane="free"/>
  <flow id="JF343734" begin="480" fromJunction="J4" toJunction="J3" end="540" vehsPerHour="37.00250182435465" departLane="free"/>
  <flow id="JF343735" begin="480" fromJunction="J6" toJunction="J0" end="540" vehsPerHour="3.1023446104926986" departLane="free"/>
  <flow id="JF343736" begin="480" fromJunction="J6" toJunction="J3" end="540" vehsPerHour="36.98479103171122" departLane="free"/>
  <flow id="JF343737" begin="480" fromJunction="J7" toJunction="J0" end="540" vehsPerHour="18.06441282266758" departLane="free"/>
  <flow id="JF343738" begin="480" fromJunction="J7" toJunction="J3" end="540" vehsPerHour="30.42750229267369" departLane="free"/>
  <flow id="JF343739" begin="480" fromJunction="J5" toJunction="J0" end="540" vehsPerHour="0.8935588794393007" departLane="free"/>