<?xml version="1.0" encoding="UTF-8"?>
<routes xmlns:xsi="http://www.w3.org/2001/XMLSchema-instance" xsi:noNamespaceSchemaLocation="http://sumo.dlr.de/xsd/routes_file.xsd">
  <flow id="JF332494" begin="0" fromJunction="J0" toJunction="J3" end="60" vehsPerHour="363.5182169799951" departLane="free"/>
  <flow id="JF332495" begin="0" fromJunction="J3" toJunction="J0" end="60" vehsPerHour="402.6605150149529" departLane="free"/>
  <flow id="JF332496" begin="0" fromJunction="J0" toJunction="J4" end="60" vehsPerHour="20.717374313200406" departLane="free"/>
  <flow id="JF332497" begin="0" fromJunction="J0" toJunction="J6" end="60" vehsPerHour="124.6597189155928" departLane="free"/>
  <flow id="JF332498" begin="0" fromJunction="J0" toJunction="J7" end="60" vehsPerHour="110.22393537852037" departLane="free"/>
  <flow id="JF332499" begin="0" fromJunction="J0" toJunction="J5" end="60" vehsPerHour="101.89655422698377" departLane="free"/>
  <flow id="JF332500" begin="0" fromJunction="J3" toJunction="J4" end="60" vehsPerHour="42.94551610454972" departLane="free"/>
  <flow id="JF332501" begin="0" fromJunction="J3" toJunction="J6" end="60" vehsPerHour="37.911693413052454" departLane="free"/>
  <flow id="JF332502" begin="0" fromJunction="J3" toJunction="J7" end="60" vehsPerHour="42.35017345554289" departLane="free"/>
  <flow id="JF332503" begin="0" fromJunction="J3" toJunction="J5" end="60" vehsPerHour="136.29121821976477" departLane="free"/>
  <flow id="JF332504" begin="0" fromJunction="J4" toJunction="J6" end="60" vehsPerHour="32.29280953653968" departLane="free"/>
  <flow id="JF332505" begin="0" fromJunction="J4" toJunction="J7" end="60" vehsPerHour="12.955415058034031" departLane="free"/>
  <flow id="JF332506" begin="0" fromJunction="J4" toJunction="J5" end="60" vehsPerHour="19.454598073723176" departLane="free"/>
  <flow id="JF332507" begin="0" fromJunction="J6" toJunction="J4" end="60" vehsPerHour="8.080436593830893" departLane="free"/>
  <flow id="JF332508" begin="0" fromJunction="J6" toJunction="J7" end="60" vehsPerHour="27.829629878145006" departLane="free"/>
  <flow id="JF332509" begin="0" fromJunction="J6" toJunction="J5" end="60" vehsPerHour="9.301910834802573" departLane="free"/>
  <flow id="JF332510" begin="0" fromJunction="J7" toJunction="J4" end="60" vehsPerHour="11.916993534323618" departLane="free"/>
  <flow id="JF332511" begin="0" fromJunction="J7" toJunction="J6" end="60" vehsPerHour="28.157608232711762" departLane="free"/>
  <flow id="JF332512" begin="0" fromJunction="J7" toJunction="J5" end="60" vehsPerHour="19.000728118471756" departLane="free"/>
  <flow id="JF332513" begin="0" fromJunction="J5" toJunction="J4" end="60" vehsPerHour="29.856547163738053" departLane="free"/>
  <flow id="JF332514" begin="0" fromJunction="J5" toJunction="J6" end="60" vehsPerHour="11.01741064583781" departLane="free"/>
  <flow id="JF332515" begin="0" fromJunction="J5" toJunction="J7" end="60" vehsPerHour="1.037478731721651" departLane="free"/>
  <flow id="JF332516" begin="0" fromJunction="J4" toJunction="J0" end="60" vehsPerHour="42.49902582359084" departLane="free"/>
  <flow id="JF332517" begin="0" fromJunction="J4" toJunction="J3" end="60" vehsPerHour="37.08640154764473" departLane="free"/>
  <flow id="JF332518" begin="0" fromJunction="J6" toJunction="J0" end="60" vehsPerHour="54.348363717485704" departLane="free"/>
  <flow id="JF332519" begin="0" fromJunction="J6" toJunction="J3" end="60" vehsPerHour="11.118009120631278" departLane="free"/>
  <flow id="JF332520" begin="0" fromJunction="J7" toJunction="J0" end="60" vehsPerHour="33.315370122372414" departLane="free"/>
  <flow id="JF332521" begin="0" fromJunction="J7" toJunction="J3" end="60" vehsPerHour="29.893565919245706" departLane="free"/>
  <flow id="JF332522" begin="0" fromJunction="J5" toJunction="J0" end="60" vehsPerHour="61.04952814135096" departLane="free"/>
  <flow id="JF332523" begin="0" fromJunction="J5" toJunction="J3" end="60" vehsPerHour="49.39613455405375" departLane="free"/>
  <flow id="JF332524" begin="60" fromJunction="J0" toJunction="J3" end="120" vehsPerHour="352.19399443001885" departLane="free"/>
  <flow id="JF332525" begin="60" fromJunction="J3" toJunction="J0" end="120" vehsPerHour="82.10918302794418" departLane="free"/>
  <flow id="JF332526" begin="60" fromJunction="J0" toJunction="J4" end="120" vehsPerHour="95.22974550251193" departLane="free"/>
  <flow id="JF332527" begin="60" fromJunction="J0" toJunction="J6" end="120" vehsPerHour="49.47916191483909" departLane="free"/>
  <flow id="JF332528" begin="60" fromJunction="J0" toJunction="J7" end="120" vehsPerHour="137.3113056564127" departLane="free"/>
  <flow id="JF332529" begin="60" fromJunction="J0" toJunction="J5" end="120" vehsPerHour="98.6321456263199" departLane="free"/>
  <flow id="JF332530" begin="60" fromJunction="J3" toJunction="J4" end="120" vehsPerHour="37.133009287699636" departLane="free"/>
  <flow id="JF332531" begin="60" fromJunction="J3" toJunction="J6" end="120" vehsPerHour="96.77892523885036" departLane="free"/>
  <flow id="JF332532" begin="60" fromJunction="J3" toJunction="J7" end="120" vehsPerHour="20.78023069399081" departLane="free"/>
  <flow id="JF332533" begin="60" fromJunction="J3" toJunction="J5" end="120" vehsPerHour="107.99699572774563" departLane="free"/>
  <flow id="JF332534" begin="60" fromJunction="J4" toJunction="J6" end="120" vehsPerHour="62.60651886018678" departLane="free"/>
  <flow id="JF332535" begin="60" fromJunction="J4" toJunction="J7" end="120" vehsPerHour="28.67319356880785" departLane="free"/>
  <flow id="JF332536" begin="60" fromJunction="J4" toJunction="J5" end="120" vehsPerHour="20.885507007502184" departLane="free"/>
  <flow id="JF332537" begin="60" fromJunction="J6" toJunction="J4" end="120" vehsPerHour="56.86292196828936" departLane="free"/>
  <flow id="JF332538" begin="60" fromJunction="J6" toJunction="J7" end="120" vehsPerHour="33.495291949921736" departLane="free"/>
  <flow id="JF332539" begin="60" fromJunction="J6" toJunction="J5" end="120" vehsPerHour="52.68605587320353" departLane="free"/>
  <flow id="JF332540" begin="60" fromJunction="J7" toJunction="J4" end="120" vehsPerHour="63.21767548358495" departLane="free"/>
  <flow id="JF332541" begin="60" fromJunction="J7" toJunction="J6" end="120" vehsPerHour="64.624494401929" departLane="free"/>
  <flow id="JF332542" begin="60" fromJunction="J7" toJunction="J5" end="120" vehsPerHour="53.92615005024989" departLane="free"/>
  <flow id="JF332543" begin="60" fromJunction="J5" toJunction="J4" end="120" vehsPerHour="59.51920500067551" departLane="free"/>
  <flow id="JF332544" begin="60" fromJunction="J5" toJunction="J6" end="120" vehsPerHour="8.851150648117555" departLane="free"/>
  <flow id="JF332545" begin="60" fromJunction="J5" toJunction="J7" end="120" vehsPerHour="42.58458427832986" departLane="free"/>
  <flow id="JF332546" begin="60" fromJunction="J4" toJunction="J0" end="120" vehsPerHour="29.975054043234575" departLane="free"/>
  <flow id="JF332547" begin="60" fromJunction="J4" toJunction="J3" end="120" vehsPerHour="53.93320676685141" departLane="free"/>
  <flow id="JF332548" begin="60" fromJunction="J6" toJunction="J0" end="120" vehsPerHour="13.713555113369283" departLane="free"/>
  <flow id="JF332549" begin="60" fromJunction="J6" toJunction="J3" end="120" vehsPerHour="48.97435122937922" departLane="free"/>
  <flow id="JF332550" begin="60" fromJunction="J7" toJunction="J0" end="120" vehsPerHour="25.91343808584408" departLane="free"/>
  <flow id="JF332551" begin="60" fromJunction="J7" toJunction="J3" end="120" vehsPerHour="8.56420010407229" departLane="free"/>
  <flow id="JF332552" begin="60" fromJunction="J5" toJunction="J0" end="120" vehsPerHour="8.15949135969744" departLane="free"/>
  <flow id="JF332553" begin="60" fromJunction="J5" toJunction="J3" end="120" vehsPerHour="60.46250500864956" departLane="free"/>
  <flow id="JF332554" begin="120" fromJunction="J0" toJunction="J3" end="180" vehsPerHour="506.8933225622998" departLane="free"/>
  <flow id="JF332555" begin="120" fromJunction="J3" toJunction="J0" end="180" vehsPerHour="225.20146513647558" departLane="free"/>
  <flow id="JF332556" begin="120" fromJunction="J0" toJunction="J4" end="180" vehsPerHour="75.48322460862155" departLane="free"/>
  <flow id="JF332557" begin="120" fromJunction="J0" toJunction="J6" end="180" vehsPerHour="12.058701218598074" departLane="free"/>
  <flow id="JF332558" begin="120" fromJunction="J0" toJunction="J7" end="180" vehsPerHour="74.26737903578653" departLane="free"/>
  <flow id="JF332559" begin="120" fromJunction="J0" toJunction="J5" end="180" vehsPerHour="47.61724123967378" departLane="free"/>
  <flow id="JF332560" begin="120" fromJunction="J3" toJunction="J4" end="180" vehsPerHour="122.39047006137848" departLane="free"/>
  <flow id="JF332561" begin="120" fromJunction="J3" toJunction="J6" end="180" vehsPerHour="68.14775376909031" departLane="free"/>
  <flow id="JF332562" begin="120" fromJunction="J3" toJunction="J7" end="180" vehsPerHour="56.63451630072851" departLane="free"/>
  <flow id="JF332563" begin="120" fromJunction="J3" toJunction="J5" end="180" vehsPerHour="20.574257928810756" departLane="free"/>
  <flow id="JF332564" begin="120" fromJunction="J4" toJunction="J6" end="180" vehsPerHour="49.01138338773043" departLane="free"/>
  <flow id="JF332565" begin="120" fromJunction="J4" toJunction="J7" end="180" vehsPerHour="60.960528170129336" departLane="free"/>
  <flow id="JF332566" begin="120" fromJunction="J4" toJunction="J5" end="180" vehsPerHour="58.16959255418173" departLane="free"/>
  <flow id="JF332567" begin="120" fromJunction="J6" toJunction="J4" end="180" vehsPerHour="36.18154726380794" departLane="free"/>
  <flow id="JF332568" begin="120" fromJunction="J6" toJunction="J7" end="180" vehsPerHour="46.30692100003583" departLane="free"/>
  <flow id="JF332569" begin="120" fromJunction="J6" toJunction="J5" end="180" vehsPerHour="37.56419277071969" departLane="free"/>
  <flow id="JF332570" begin="120" fromJunction="J7" toJunction="J4" end="180" vehsPerHour="1.3104792597804844" departLane="free"/>
  <flow id="JF332571" begin="120" fromJunction="J7" toJunction="J6" end="180" vehsPerHour="18.17144009360137" departLane="free"/>
  <flow id="JF332572" begin="120" fromJunction="J7" toJunction="J5" end="180" vehsPerHour="1.2099475711577847" departLane="free"/>
  <flow id="JF332573" begin="120" fromJunction="J5" toJunction="J4" end="180" vehsPerHour="34.29789654995342" departLane="free"/>
  <flow id="JF332574" begin="120" fromJunction="J5" toJunction="J6" end="180" vehsPerHour="57.98132994936814" departLane="free"/>
  <flow id="JF332575" begin="120" fromJunction="J5" toJunction="J7" end="180" vehsPerHour="21.785533201443602" departLane="free"/>
  <flow id="JF332576" begin="120" fromJunction="J4" toJunction="J0" end="180" vehsPerHour="38.47958363219895" departLane="free"/>
  <flow id="JF332577" begin="120" fromJunction="J4" toJunction="J3" end="180" vehsPerHour="29.14159712569558" departLane="free"/>
  <flow id="JF332578" begin="120" fromJunction="J6" toJunction="J0" end="180" vehsPerHour="0.4525184434581955" departLane="free"/>
  <flow id="JF332579" begin="120" fromJunction="J6" toJunction="J3" end="180" vehsPerHour="23.6193111895654" departLane="free"/>
  <flow id="JF332580" begin="120" fromJunction="J7" toJunction="J0" end="180" vehsPerHour="19.40652221865935" departLane="free"/>
  <flow id="JF332581" begin="120" fromJunction="J7" toJunction="J3" end="180" vehsPerHour="44.107520013345194" departLane="free"/>
  <flow id="JF332582" begin="120" fromJunction="J5" toJunction="J0" end="180" vehsPerHour="0.8922620781796762" departLane="free"/>
  <flow id="JF332583" begin="120" fromJunction="J5" toJunction="J3" end="180" vehsPerHour="55.81603331375817" departLane="free"/>
  <flow id="JF332584" begin="180" fromJunction="J0" toJunction="J3" end="240" vehsPerHour="527.1015023327724" departLane="free"/>
  <flow id="JF332585" begin="180" fromJunction="J3" toJunction="J0" end="240" vehsPerHour="0.34544165314859837" departLane="free"/>
  <flow id="JF332586" begin="180" fromJunction="J0" toJunction="J4" end="240" vehsPerHour="3.093202257854162" departLane="free"/>
  <flow id="JF332587" begin="180" fromJunction="J0" toJunction="J6" end="240" vehsPerHour="66.04230999545669" departLane="free"/>
  <flow id="JF332588" begin="180" fromJunction="J0" toJunction="J7" end="240" vehsPerHour="109.16972309468399" departLane="free"/>
  <flow id="JF332589" begin="180" fromJunction="J0" toJunction="J5" end="240" vehsPerHour="118.79213659203232" departLane="free"/>
  <flow id="JF332590" begin="180" fromJunction="J3" toJunction="J4" end="240" vehsPerHour="88.69787605330026" departLane="free"/>
  <flow id="JF332591" begin="180" fromJunction="J3" toJunction="J6" end="240" vehsPerHour="52.90776227416434" departLane="free"/>
  <flow id="JF332592" begin="180" fromJunction="J3" toJunction="J7" end="240" vehsPerHour="17.706024927493473" departLane="free"/>
  <flow id="JF332593" begin="180" fromJunction="J3" toJunction="J5" end="240" vehsPerHour="129.00568828585617" departLane="free"/>
  <flow id="JF332594" begin="180" fromJunction="J4" toJunction="J6" end="240" vehsPerHour="59.124940994644646" departLane="free"/>
  <flow id="JF332595" begin="180" fromJunction="J4" toJunction="J7" end="240" vehsPerHour="38.45197161511258" departLane="free"/>
  <flow id="JF332596" begin="180" fromJunction="J4" toJunction="J5" end="240" vehsPerHour="11.73536637440401" departLane="free"/>
  <flow id="JF332597" begin="180" fromJunction="J6" toJunction="J4" end="240" vehsPerHour="10.873043298848822" departLane="free"/>
  <flow id="JF332598" begin="180" fromJunction="J6" toJunction="J7" end="240" vehsPerHour="24.612188627914854" departLane="free"/>
  <flow id="JF332599" begin="180" fromJunction="J6" toJunction="J5" end="240" vehsPerHour="8.892858518468262" departLane="free"/>
  <flow id="JF332600" begin="180" fromJunction="J7" toJunction="J4" end="240" vehsPerHour="35.73569831788296" departLane="free"/>
  <flow id="JF332601" begin="180" fromJunction="J7" toJunction="J6" end="240" vehsPerHour="63.50974396947055" departLane="free"/>
  <flow id="JF332602" begin="180" fromJunction="J7" toJunction="J5" end="240" vehsPerHour="37.423691144904595" departLane="free"/>
  <flow id="JF332603" begin="180" fromJunction="J5" toJunction="J4" end="240" vehsPerHour="26.85320794942695" departLane="free"/>
  <flow id="JF332604" begin="180" fromJunction="J5" toJunction="J6" end="240" vehsPerHour="50.89447247302993" departLane="free"/>
  <flow id="JF332605" begin="180" fromJunction="J5" toJunction="J7" end="240" vehsPerHour="36.67582315386293" departLane="free"/>
  <flow id="JF332606" begin="180" fromJunction="J4" toJunction="J0" end="240" vehsPerHour="36.22808756021603" departLane="free"/>
  <flow id="JF332607" begin="180" fromJunction="J4" toJunction="J3" end="240" vehsPerHour="10.552738458518998" departLane="free"/>
  <flow id="JF332608" begin="180" fromJunction="J6" toJunction="J0" end="240" vehsPerHour="47.72911619755331" departLane="free"/>
  <flow id="JF332609" begin="180" fromJunction="J6" toJunction="J3" end="240" vehsPerHour="34.63805485863555" departLane="free"/>
  <flow id="JF332610" begin="180" fromJunction="J7" toJunction="J0" end="240" vehsPerHour="8.199347623093535" departLane="free"/>
  <flow id="JF332611" begin="180" fromJunction="J7" toJunction="J3" end="240" vehsPerHour="60.19386156051019" departLane="free"/>
  <flow id="JF332612" begin="180" fromJunction="J5" toJunction="J0" end="240" vehsPerHour="8.191553441197533" departLane="free"/>
  <flow id="JF332613" begin="180" fromJunction="J5" toJunction="J3" end="240" vehsPerHour="4.3038394605058405" departLane="free"/>
  <flow id="JF332614" begin="240" fromJunction="J0" toJunction="J3" end="300" vehsPerHour="194.59736309194753" departLane="free"/>
  <flow id="JF332615" begin="240" fromJunction="J3" toJunction="J0" end="300" vehsPerHour="432.72081208274915" departLane="free"/>
  <flow id="JF332616" begin="240" fromJunction="J0" toJunction="J4" end="300" vehsPerHour="6.61446102316928" departLane="free"/>
  <flow id="JF332617" begin="240" fromJunction="J0" toJunction="J6" end="300" vehsPerHour="3.367044997964059" departLane="free"/>
  <flow id="JF332618" begin="240" fromJunction="J0" toJunction="J7" end="300" vehsPerHour="69.28967940651448" departLane="free"/>
  <flow id="JF332619" begin="240" fromJunction="J0" toJunction="J5" end="300" vehsPerHour="108.8387147496252" departLane="free"/>
  <flow id="JF332620" begin="240" fromJunction="J3" toJunction="J4" end="300" vehsPerHour="83.86141661272467" departLane="free"/>
  <flow id="JF332621" begin="240" fromJunction="J3" toJunction="J6" end="300" vehsPerHour="27.016962592605168" departLane="free"/>
  <flow id="JF332622" begin="240" fromJunction="J3" toJunction="J7" end="300" vehsPerHour="48.97804370629712" departLane="free"/>
  <flow id="JF332623" begin="240" fromJunction="J3" toJunction="J5" end="300" vehsPerHour="92.02035679729319" departLane="free"/>
  <flow id="JF332624" begin="240" fromJunction="J4" toJunction="J6" end="300" vehsPerHour="23.89987275109572" departLane="free"/>
  <flow id="JF332625" begin="240" fromJunction="J4" toJunction="J7" end="300" vehsPerHour="37.71839056083538" departLane="free"/>
  <flow id="JF332626" begin="240" fromJunction="J4" toJunction="J5" end="300" vehsPerHour="32.44555682354973" departLane="free"/>
  <flow id="JF332627" begin="240" fromJunction="J6" toJunction="J4" end="300" vehsPerHour="33.316960032038935" departLane="free"/>
  <flow id="JF332628" begin="240" fromJunction="J6" toJunction="J7" end="300" vehsPerHour="64.87173548259908" departLane="free"/>
  <flow id="JF332629" begin="240" fromJunction="J6" toJunction="J5" end="300" vehsPerHour="14.645529494588562" departLane="free"/>
  <flow id="JF332630" begin="240" fromJunction="J7" toJunction="J4" end="300" vehsPerHour="6.042200005061651" departLane="free"/>
  <flow id="JF332631" begin="240" fromJunction="J7" toJunction="J6" end="300" vehsPerHour="1.3266296387032237" departLane="free"/>
  <flow id="JF332632" begin="240" fromJunction="J7" toJunction="J5" end="300" vehsPerHour="27.00847793908143" departLane="free"/>
  <flow id="JF332633" begin="240" fromJunction="J5" toJunction="J4" end="300" vehsPerHour="4.055389029408094" departLane="free"/>
  <flow id="JF332634" begin="240" fromJunction="J5" toJunction="J6" end="300" vehsPerHour="23.46403926870763" departLane="free"/>
  <flow id="JF332635" begin="240" fromJunction="J5" toJunction="J7" end="300" vehsPerHour="29.935668621446677" departLane="free"/>
  <flow id="JF332636" begin="240" fromJunction="J4" toJunction="J0" end="300" vehsPerHour="56.7423793784003" departLane="free"/>
  <flow id="JF332637" begin="240" fromJunction="J4" toJunction="J3" end="300" vehsPerHour="25.95135244521279" departLane="free"/>
  <flow id="JF332638" begin="240" fromJunction="J6" toJunction="J0" end="300" vehsPerHour="68.31200668637821" departLane="free"/>
  <flow id="JF332639" begin="240" fromJunction="J6" toJunction="J3" end="300" vehsPerHour="40.345781611510716" departLane="free"/>
  <flow id="JF332640" begin="240" fromJunction="J7" toJunction="J0" end="300" vehsPerHour="50.732542354697" departLane="free"/>
  <flow id="JF332641" begin="240" fromJunction="J7" toJunction="J3" end="300" vehsPerHour="6.405918438498364" departLane="free"/>
  <flow id="JF332642" begin="240" fromJunction="J5" toJunction="J0" end="300" vehsPerHour="9.899961193059234" departLane="free"/>
  <flow id="JF332643" begin="240" fromJunction="J5" toJunction="J3" end="300" vehsPerHour="27.586776289440262" departLane="free"/>
  <flow id="JF332644" begin="300" fromJunction="J0" toJunction="J3" end="360" vehsPerHour="468.51260710483706" departLane="free"/>
  <flow id="JF332645" begin="300" fromJunction="J3" toJunction="J0" end="360" vehsPerHour="167.86606747585563" departLane="free"/>
  <flow id="JF332646" begin="300" fromJunction="J0" toJunction="J4" end="360" vehsPerHour="26.16421220902277" departLane="free"/>
  <flow id="JF332647" begin="300" fromJunction="J0" toJunction="J6" end="360" vehsPerHour="101.30024465817816" departLane="free"/>
  <flow id="JF332648" begin="300" fromJunction="J0" toJunction="J7" end="360" vehsPerHour="15.495553300071947" departLane="free"/>
  <flow id="JF332649" begin="300" fromJunction="J0" toJunction="J5" end="360" vehsPerHour="4.090216148980855" departLane="free"/>
  <flow id="JF332650" begin="300" fromJunction="J3" toJunction="J4" end="360" vehsPerHour="30.674306641531555" departLane="free"/>
  <flow id="JF332651" begin="300" fromJunction="J3" toJunction="J6" end="360" vehsPerHour="53.22875937532151" departLane="free"/>
  <flow id="JF332652" begin="300" fromJunction="J3" toJunction="J7" end="360" vehsPerHour="80.29360327397744" departLane="free"/>
  <flow id="JF332653" begin="300" fromJunction="J3" toJunction="J5" end="360" vehsPerHour="34.840750802845946" departLane="free"/>
  <flow id="JF332654" begin="300" fromJunction="J4" toJunction="J6" end="360" vehsPerHour="39.19396883685032" departLane="free"/>
  <flow id="JF332655" begin="300" fromJunction="J4" toJunction="J7" end="360" vehsPerHour="17.91319409589918" departLane="free"/>
  <flow id="JF332656" begin="300" fromJunction="J4" toJunction="J5" end="360" vehsPerHour="57.70359701093217" departLane="free"/>
  <flow id="JF332657" begin="300" fromJunction="J6" toJunction="J4" end="360" vehsPerHour="57.9148207604533" departLane="free"/>
  <flow id="JF332658" begin="300" fromJunction="J6" toJunction="J7" end="360" vehsPerHour="23.89371728341022" departLane="free"/>
  <flow id="JF332659" begin="300" fromJunction="J6" toJunction="J5" end="360" vehsPerHour="51.32506027899846" departLane="free"/>
  <flow id="JF332660" begin="300" fromJunction="J7" toJunction="J4" end="360" vehsPerHour="29.545183483154027" departLane="free"/>
  <flow id="JF332661" begin="300" fromJunction="J7" toJunction="J6" end="360" vehsPerHour="19.74927383547403" departLane="free"/>
  <flow id="JF332662" begin="300" fromJunction="J7" toJunction="J5" end="360" vehsPerHour="54.953247776681934" departLane="free"/>
  <flow id="JF332663" begin="300" fromJunction="J5" toJunction="J4" end="360" vehsPerHour="28.464225330585062" departLane="free"/>
  <flow id="JF332664" begin="300" fromJunction="J5" toJunction="J6" end="360" vehsPerHour="61.855524196704664" departLane="free"/>
  <flow id="JF332665" begin="300" fromJunction="J5" toJunction="J7" end="360" vehsPerHour="21.391199791428022" departLane="free"/>
  <flow id="JF332666" begin="300" fromJunction="J4" toJunction="J0" end="360" vehsPerHour="6.749671726813157" departLane="free"/>
  <flow id="JF332667" begin="300" fromJunction="J4" toJunction="J3" end="360" vehsPerHour="63.06319362532054" departLane="free"/>
  <flow id="JF332668" begin="300" fromJunction="J6" toJunction="J0" end="360" vehsPerHour="16.10162457192557" departLane="free"/>
  <flow id="JF332669" begin="300" fromJunction="J6" toJunction="J3" end="360" vehsPerHour="52.188340274344455" departLane="free"/>
  <flow id="JF332670" begin="300" fromJunction="J7" toJunction="J0" end="360" vehsPerHour="21.319874750417284" departLane="free"/>
  <flow id="JF332671" begin="300" fromJunction="J7" toJunction="J3" end="360" vehsPerHour="5.901759778400143" departLane="free"/>
  <flow id="JF332672" begin="300" fromJunction="J5" toJunction="J0" end="360" vehsPerHour="12.015676609626718" departLane="free"/>
  <flow id="JF332673" begin="300" fromJunction="J5" toJunction="J3" end="360" vehsPerHour="11.229606001085031" departLane="free"/>
  <flow id="JF332674" begin="360" fromJunction="J0" toJunction="J3" end="420" vehsPerHour="403.5401228925142" departLane="free"/>
  <flow id="JF332675" begin="360" fromJunction="J3" toJunction="J0" end="420" vehsPerHour="393.4148406311427" departLane="free"/>
  <flow id="JF332676" begin="360" fromJunction="J0" toJunction="J4" end="420" vehsPerHour="57.874647873107705" departLane="free"/>
  <flow id="JF332677" begin="360" fromJunction="J0" toJunction="J6" end="420" vehsPerHour="46.72759159247231" departLane="free"/>
  <flow id="JF332678" begin="360" fromJunction="J0" toJunction="J7" end="420" vehsPerHour="85.37893269073031" departLane="free"/>
  <flow id="JF332679" begin="360" fromJunction="J0" toJunction="J5" end="420" vehsPerHour="3.221935968357775" departLane="free"/>
  <flow id="JF332680" begin="360" fromJunction="J3" toJunction="J4" end="420" vehsPerHour="46.07760011389677" departLane="free"/>
  <flow id="JF332681" begin="360" fromJunction="J3" toJunction="J6" end="420" vehsPerHour="67.29928643210964" departLane="free"/>
  <flow id="JF332682" begin="360" fromJunction="J3" toJunction="J7" end="420" vehsPerHour="119.21016511724453" departLane="free"/>
  <flow id="JF332683" begin="360" fromJunction="J3" toJunction="J5" end="420" vehsPerHour="58.39283116150712" departLane="free"/>
  <flow id="JF332684" begin="360" fromJunction="J4" toJunction="J6" end="420" vehsPerHour="66.32560406579279" departLane="free"/>
  <flow id="JF332685" begin="360" fromJunction="J4" toJunction="J7" end="420" vehsPerHour="60.90425959804674" departLane="free"/>
  <flow id="JF332686" begin="360" fromJunction="J4" toJunction="J5" end="420" vehsPerHour="19.281894768128048" departLane="free"/>
  <flow id="JF332687" begin="360" fromJunction="J6" toJunction="J4" end="420" vehsPerHour="49.479016384089824" departLane="free"/>
  <flow id="JF332688" begin="360" fromJunction="J6" toJunction="J7" end="420" vehsPerHour="44.919631081554186" departLane="free"/>
  <flow id="JF332689" begin="360" fromJunction="J6" toJunction="J5" end="420" vehsPerHour="32.82903205827253" departLane="free"/>
  <flow id="JF332690" begin="360" fromJunction="J7" toJunction="J4" end="420" vehsPerHour="12.561582320052729" departLane="free"/>
  <flow id="JF332691" begin="360" fromJunction="J7" toJunction="J6" end="420" vehsPerHour="22.393754517069873" departLane="free"/>
  <flow id="JF332692" begin="360" fromJunction="J7" toJunction="J5" end="420" vehsPerHour="9.673272824624076" departLane="free"/>
  <flow id="JF332693" begin="360" fromJunction="J5" toJunction="J4" end="420" vehsPerHour="68.63608827231903" departLane="free"/>
  <flow id="JF332694" begin="360" fromJunction="J5" toJunction="J6" end="420" vehsPerHour="57.06449390137306" departLane="free"/>
  <flow id="JF332695" begin="360" fromJunction="J5" toJunction="J7" end="420" vehsPerHour="14.559223033915732" departLane="free"/>
  <flow id="JF332696" begin="360" fromJunction="J4" toJunction="J0" end="420" vehsPerHour="22.965719183646733" departLane="free"/>
  <flow id="JF332697" begin="360" fromJunction="J4" toJunction="J3" end="420" vehsPerHour="29.222435439283128" departLane="free"/>
  <flow id="JF332698" begin="360" fromJunction="J6" toJunction="J0" end="420" vehsPerHour="25.408191277943388" departLane="free"/>
  <flow id="JF332699" begin="360" fromJunction="J6" toJunction="J3" end="420" vehsPerHour="6.7426401327255165" departLane="free"/>
  <flow id="JF332700" begin="360" fromJunction="J7" toJunction="J0" end="420" vehsPerHour="45.954517705027904" departLane="free"/>
  <flow id="JF332701" begin="360" fromJunction="J7" toJunction="J3" end="420" vehsPerHour="52.83222280346557" departLane="free"/>
  <flow id="JF332702" begin="360" fromJunction="J5" toJunction="J0" end="420" vehsPerHour="16.468324295002677" departLane="free"/>
  <flow id="JF332703" begin="360" fromJunction="J5" toJunction="J3" end="420" vehsPerHour="18.145116847834956" departLane="free"/>
  <flow id="JF332704" begin="420" fromJunction="J0" toJunction="J3" end="480" vehsPerHour="292.07301361079556" departLane="free"/>
  <flow id="JF332705" begin="420" fromJunction="J3" toJunction="J0" end="480" vehsPerHour="426.6964662827659" departLane="free"/>
  <flow id="JF332706" begin="420" fromJunction="J0" toJunction="J4" end="480" vehsPerHour="134.86922443754708" departLane="free"/>
  <flow id="JF332707" begin="420" fromJunction="J0" toJunction="J6" end="480" vehsPerHour="81.03326826850981" departLane="free"/>
  <flow id="JF332708" begin="420" fromJunction="J0" toJunction="J7" end="480" vehsPerHour="108.42309048223633" departLane="free"/>
  <flow id="JF332709" begin="420" fromJunction="J0" toJunction="J5" end="480" vehsPerHour="90.4790689470942" departLane="free"/>
  <flow id="JF332710" begin="420" fromJunction="J3" toJunction="J4" end="480" vehsPerHour="101.73263898447856" departLane="free"/>
  <flow id="JF332711" begin="420" fromJunction="J3" toJunction="J6" end="480" vehsPerHour="76.45587929903763" departLane="free"/>
  <flow id="JF332712" begin="420" fromJunction="J3" toJunction="J7" end="480" vehsPerHour="74.92580823126522" departLane="free"/>
  <flow id="JF332713" begin="420" fromJunction="J3" toJunction="J5" end="480" vehsPerHour="54.32457292046697" departLane="free"/>
  <flow id="JF332714" begin="420" fromJunction="J4" toJunction="J6" end="480" vehsPerHour="62.46959546880235" departLane="free"/>
  <flow id="JF332715" begin="420" fromJunction="J4" toJunction="J7" end="480" vehsPerHour="7.227026399367244" departLane="free"/>
  <flow id="JF332716" begin="420" fromJunction="J4" toJunction="J5" end="480" vehsPerHour="10.03590637411271" departLane="free"/>
  <flow id="JF332717" begin="420" fromJunction="J6" toJunction="J4" end="480" vehsPerHour="39.089970838119726" departLane="free"/>
  <flow id="JF332718" begin="420" fromJunction="J6" toJunction="J7" end="480" vehsPerHour="21.589400573304864" departLane="free"/>
  <flow id="JF332719" begin="420" fromJunction="J6" toJunction="J5" end="480" vehsPerHour="37.59986417665582" departLane="free"/>
  <flow id="JF332720" begin="420" fromJunction="J7" toJunction="J4" end="480" vehsPerHour="23.236954883829107" departLane="free"/>
  <flow id="JF332721" begin="420" fromJunction="J7" toJunction="J6" end="480" vehsPerHour="14.144261131658444" departLane="free"/>
  <flow id="JF332722" begin="420" fromJunction="J7" toJunction="J5" end="480" vehsPerHour="29.226205209020534" departLane="free"/>