<?xml version="1.0" encoding="UTF-8"?>
<routes xmlns:xsi="http://www.w3.org/2001/XMLSchema-instance" xsi:noNamespaceSchemaLocation="http://sumo.dlr.de/xsd/routes_file.xsd">
  <flow id="JF339935" begin="0" fromJunction="J0" toJunction="J3" end="60" vehsPerHour="518.0981932307491" departLane="free"/>
  <flow id="JF339936" begin="0" fromJunction="J3" toJunction="J0" end="60" vehsPerHour="153.3295929078562" departLane="free"/>
  <flow id="JF339937" begin="0" fromJunction="J0" toJunction="J4" end="60" vehsPerHour="82.01806919494061" departLane="free"/>
  <flow id="JF339938" begin="0" fromJunction="J0" toJunction="J6" end="60" vehsPerHour="12.950640106679895" departLane="free"/>
  <flow id="JF339939" begin="0" fromJunction="J0" toJunction="J7" end="60" vehsPerHour="85.78018288362618" departLane="free"/>
  <flow id="JF339940" begin="0" fromJunction="J0" toJunction="J5" end="60" vehsPerHour="66.20747745318907" departLane="free"/>
  <flow id="JF339941" begin="0" fromJunction="J3" toJunction="J4" end="60" vehsPerHour="72.51485256931846" departLane="free"/>
  <flow id="JF339942" begin="0" fromJunction="J3" toJunction="J6" end="60" vehsPerHour="24.034996882312296" departLane="free"/>
  <flow id="JF339943" begin="0" fromJunction="J3" toJunction="J7" end="60" vehsPerHour="11.426774222446001" departLane="free"/>
  <flow id="JF339944" begin="0" fromJunction="J3" toJunction="J5" end="60" vehsPerHour="133.70707946159132" departLane="free"/>
  <flow id="JF339945" begin="0" fromJunction="J4" toJunction="J6" end="60" vehsPerHour="11.580383615468289" departLane="free"/>
  <flow id="JF339946" begin="0" fromJunction="J4" toJunction="J7" end="60" vehsPerHour="27.951755240911215" departLane="free"/>
  <flow id="JF339947" begin="0" fromJunction="J4" toJunction="J5" end="60" vehsPerHour="67.11443251057058" departLane="free"/>
  <flow id="JF339948" begin="0" fromJunction="J6" toJunction="J4" end="60" vehsPerHour="5.318499357664105" departLane="free"/>
  <flow id="JF339949" begin="0" fromJunction="J6" toJunction="J7" end="60" vehsPerHour="62.59984963303894" departLane="free"/>
  <flow id="JF339950" begin="0" fromJunction="J6" toJunction="J5" end="60" vehsPerHour="26.461907152809836" departLane="free"/>
  <flow id="JF339951" begin="0" fromJunction="J7" toJunction="J4" end="60" vehsPerHour="6.907429373511373" departLane="free"/>
  <flow id="JF339952" begin="0" fromJunction="J7" toJunction="J6" end="60" vehsPerHour="4.437205108640914" departLane="free"/>
  <flow id="JF339953" begin="0" fromJunction="J7" toJunction="J5" end="60" vehsPerHour="67.60011991631471" departLane="free"/>
  <flow id="JF339954" begin="0" fromJunction="J5" toJunction="J4" end="60" vehsPerHour="58.81428150415782" departLane="free"/>
  <flow id="JF339955" begin="0" fromJunction="J5" toJunction="J6" end="60" vehsPerHour="8.125394583649625" departLane="free"/>
  <flow id="JF339956" begin="0" fromJunction="J5" toJunction="J7" end="60" vehsPerHour="7.541388622991096" departLane="free"/>
  <flow id="JF339957" begin="0" fromJunction="J4" toJunction="J0" end="60" vehsPerHour="1.1814944859463217" departLane="free"/>
  <flow id="JF339958" begin="0" fromJunction="J4" toJunction="J3" end="60" vehsPerHour="2.615913946930621" departLane="free"/>
  <flow id="JF339959" begin="0" fromJunction="J6" toJunction="J0" end="60" vehsPerHour="6.797528800294179" departLane="free"/>
  <flow id="JF339960" begin="0" fromJunction="J6" toJunction="J3" end="60" vehsPerHour="53.82068531336932" departLane="free"/>
  <flow id="JF339961" begin="0" fromJunction="J7" toJunction="J0" end="60" vehsPerHour="13.43969029697281" departLane="free"/>
  <flow id="JF339962" begin="0" fromJunction="J7" toJunction="J3" end="60" vehsPerHour="43.106582720915966" departLane="free"/>
  <flow id="JF339963" begin="0" fromJunction="J5" toJunction="J0" end="60" vehsPerHour="51.50062516637475" departLane="free"/>
  <flow id="JF339964" begin="0" fromJunction="J5" toJunction="J3" end="60" vehsPerHour="59.27422343071519" departLane="free"/>
  <flow id="JF339965" begin="60" fromJunction="J0" toJunction="J3" end="120" vehsPerHour="327.4754348656546" departLane="free"/>
  <flow id="JF339966" begin="60" fromJunction="J3" toJunction="J0" end="120" vehsPerHour="271.13951672368967" departLane="free"/>
  <flow id="JF339967" begin="60" fromJunction="J0" toJunction="J4" end="120" vehsPerHour="72.24181048526985" departLane="free"/>
  <flow id="JF339968" begin="60" fromJunction="J0" toJunction="J6" end="120" vehsPerHour="14.081434737649365" departLane="free"/>
  <flow id="JF339969" begin="60" fromJunction="J0" toJunction="J7" end="120" vehsPerHour="135.62396024168538" departLane="free"/>
  <flow id="JF339970" begin="60" fromJunction="J0" toJunction="J5" end="120" vehsPerHour="121.49027532095724" departLane="free"/>
  <flow id="JF339971" begin="60" fromJunction="J3" toJunction="J4" end="120" vehsPerHour="47.59784132480067" departLane="free"/>
  <flow id="JF339972" begin="60" fromJunction="J3" toJunction="J6" end="120" vehsPerHour="13.47344062001336" departLane="free"/>
  <flow id="JF339973" begin="60" fromJunction="J3" toJunction="J7" end="120" vehsPerHour="96.99194678692413" departLane="free"/>
  <flow id="JF339974" begin="60" fromJunction="J3" toJunction="J5" end="120" vehsPerHour="11.043368754901907" departLane="free"/>
  <flow id="JF339975" begin="60" fromJunction="J4" toJunction="J6" end="120" vehsPerHour="46.5501106384323" departLane="free"/>
  <flow id="JF339976" begin="60" fromJunction="J4" toJunction="J7" end="120" vehsPerHour="47.82721814560607" departLane="free"/>
  <flow id="JF339977" begin="60" fromJunction="J4" toJunction="J5" end="120" vehsPerHour="20.32980381603425" departLane="free"/>
  <flow id="JF339978" begin="60" fromJunction="J6" toJunction="J4" end="120" vehsPerHour="58.78803379267388" departLane="free"/>
  <flow id="JF339979" begin="60" fromJunction="J6" toJunction="J7" end="120" vehsPerHour="21.239130137420013" departLane="free"/>
  <flow id="JF339980" begin="60" fromJunction="J6" toJunction="J5" end="120" vehsPerHour="53.85133649486353" departLane="free"/>
  <flow id="JF339981" begin="60" fromJunction="J7" toJunction="J4" end="120" vehsPerHour="25.853612328038547" departLane="free"/>
  <flow id="JF339982" begin="60" fromJunction="J7" toJunction="J6" end="120" vehsPerHour="32.3230376651043" departLane="free"/>
  <flow id="JF339983" begin="60" fromJunction="J7" toJunction="J5" end="120" vehsPerHour="17.03770957450058" departLane="free"/>
  <flow id="JF339984" begin="60" fromJunction="J5" toJunction="J4" end="120" vehsPerHour="68.56624590188646" departLane="free"/>
  <flow id="JF339985" begin="60" fromJunction="J5" toJunction="J6" end="120" vehsPerHour="58.61025358226306" departLane="free"/>
  <flow id="JF339986" begin="60" fromJunction="J5" toJunction="J7" end="120" vehsPerHour="31.335229506032956" departLane="free"/>
  <flow id="JF339987" begin="60" fromJunction="J4" toJunction="J0" end="120" vehsPerHour="10.875541209549345" departLane="free"/>
  <flow id="JF339988" begin="60" fromJunction="J4" toJunction="J3" end="120" vehsPerHour="0.8194168294422107" departLane="free"/>
  <flow id="JF339989" begin="60" fromJunction="J6" toJunction="J0" end="120" vehsPerHour="7.721242268976002" departLane="free"/>
  <flow id="JF339990" begin="60" fromJunction="J6" toJunction="J3" end="120" vehsPerHour="52.720242803489576" departLane="free"/>
  <flow id="JF339991" begin="60" fromJunction="J7" toJunction="J0" end="120" vehsPerHour="39.52134760335933" departLane="free"/>
  <flow id="JF339992" begin="60" fromJunction="J7" toJunction="J3" end="120" vehsPerHour="64.47407205616969" departLane="free"/>
  <flow id="JF339993" begin="60" fromJunction="J5" toJunction="J0" end="120" vehsPerHour="60.37433038683546" departLane="free"/>
  <flow id="JF339994" begin="60" fromJunction="J5" toJunction="J3" end="120" vehsPerHour="44.14725744641188" departLane="free"/>
  <flow id="JF339995" begin="120" fromJunction="J0" toJunction="J3" end="180" vehsPerHour="193.267990151993" departLane="free"/>
  <flow id="JF339996" begin="120" fromJunction="J3" toJunction="J0" end="180" vehsPerHour="150.70468215967054" departLane="free"/>
  <flow id="JF339997" begin="120" fromJunction="J0" toJunction="J4" end="180" vehsPerHour="35.66565182771094" departLane="free"/>
  <flow id="JF339998" begin="120" fromJunction="J0" toJunction="J6" end="180" vehsPerHour="51.83752507594272" departLane="free"/>
  <flow id="JF339999" begin="120" fromJunction="J0" toJunction="J7" end="180" vehsPerHour="81.25464636256616" departLane="free"/>
  <flow id="JF340000" begin="120" fromJunction="J0" toJunction="J5" end="180" vehsPerHour="67.95628661318783" departLane="free"/>
  <flow id="JF340001" begin="120" fromJunction="J3" toJunction="J4" end="180" vehsPerHour="95.78016019888376" departLane="free"/>
  <flow id="JF340002" begin="120" fromJunction="J3" toJunction="J6" end="180" vehsPerHour="130.75169675629837" departLane="free"/>
  <flow id="JF340003" begin="120" fromJunction="J3" toJunction="J7" end="180" vehsPerHour="34.155634235886474" departLane="free"/>
  <flow id="JF340004" begin="120" fromJunction="J3" toJunction="J5" end="180" vehsPerHour="63.598518846671176" departLane="free"/>
  <flow id="JF340005" begin="120" fromJunction="J4" toJunction="J6" end="180" vehsPerHour="17.929345507250282" departLane="free"/>
  <flow id="JF340006" begin="120" fromJunction="J4" toJunction="J7" end="180" vehsPerHour="66.71090206012525" departLane="free"/>
  <flow id="JF340007" begin="120" fromJunction="J4" toJunction="J5" end="180" vehsPerHour="20.178415682926644" departLane="free"/>
  <flow id="JF340008" begin="120" fromJunction="J6" toJunction="J4" end="180" vehsPerHour="39.8019459419611" departLane="free"/>
  <flow id="JF340009" begin="120" fromJunction="J6" toJunction="J7" end="180" vehsPerHour="65.98278553083217" departLane="free"/>
  <flow id="JF340010" begin="120" fromJunction="J6" toJunction="J5" end="180" vehsPerHour="1.5842872967894703" departLane="free"/>
  <flow id="JF340011" begin="120" fromJunction="J7" toJunction="J4" end="180" vehsPerHour="56.982592682961815" departLane="free"/>
  <flow id="JF340012" begin="120" fromJunction="J7" toJunction="J6" end="180" vehsPerHour="8.1612412813016" departLane="free"/>
  <flow id="JF340013" begin="120" fromJunction="J7" toJunction="J5" end="180" vehsPerHour="67.58009857201031" departLane="free"/>
  <flow id="JF340014" begin="120" fromJunction="J5" toJunction="J4" end="180" vehsPerHour="56.113218459115885" departLane="free"/>
  <flow id="JF340015" begin="120" fromJunction="J5" toJunction="J6" end="180" vehsPerHour="56.76541577299785" departLane="free"/>
  <flow id="JF340016" begin="120" fromJunction="J5" toJunction="J7" end="180" vehsPerHour="15.430801743779766" departLane="free"/>
  <flow id="JF340017" begin="120" fromJunction="J4" toJunction="J0" end="180" vehsPerHour="14.592992605681562" departLane="free"/>
  <flow id="JF340018" begin="120" fromJunction="J4" toJunction="J3" end="180" vehsPerHour="58.33932871085861" departLane="free"/>
  <flow id="JF340019" begin="120" fromJunction="J6" toJunction="J0" end="180" vehsPerHour="40.82630166165666" departLane="free"/>
  <flow id="JF340020" begin="120" fromJunction="J6" toJunction="J3" end="180" vehsPerHour="5.398450104952431" departLane="free"/>
  <flow id="JF340021" begin="120" fromJunction="J7" toJunction="J0" end="180" vehsPerHour="54.331089006957704" departLane="free"/>
  <flow id="JF340022" begin="120" fromJunction="J7" toJunction="J3" end="180" vehsPerHour="53.95863347346923" departLane="free"/>
  <flow id="JF340023" begin="120" fromJunction="J5" toJunction="J0" end="180" vehsPerHour="8.76652318287926" departLane="free"/>
  <flow id="JF340024" begin="120" fromJunction="J5" toJunction="J3" end="180" vehsPerHour="8.981853122743148" departLane="free"/>
  <flow id="JF340025" begin="180" fromJunction="J0" toJunction="J3" end="240" vehsPerHour="471.7539686836371" departLane="free"/>
  <flow id="JF340026" begin="180" fromJunction="J3" toJunction="J0" end="240" vehsPerHour="187.9039056271491" departLane="free"/>
  <flow id="JF340027" begin="180" fromJunction="J0" toJunction="J4" end="240" vehsPerHour="64.43665484146838" departLane="free"/>
  <flow id="JF340028" begin="180" fromJunction="J0" toJunction="J6" end="240" vehsPerHour="45.97352108327364" departLane="free"/>
  <flow id="JF340029" begin="180" fromJunction="J0" toJunction="J7" end="240" vehsPerHour="1.6718360170172368" departLane="free"/>
  <flow id="JF340030" begin="180" fromJunction="J0" toJunction="J5" end="240" vehsPerHour="47.76299324094144" departLane="free"/>
  <flow id="JF340031" begin="180" fromJunction="J3" toJunction="J4" end="240" vehsPerHour="91.23728019855757" departLane="free"/>
  <flow id="JF340032" begin="180" fromJunction="J3" toJunction="J6" end="240" vehsPerHour="20.56216509845925" departLane="free"/>
  <flow id="JF340033" begin="180" fromJunction="J3" toJunction="J7" end="240" vehsPerHour="132.07663522336577" departLane="free"/>
  <flow id="JF340034" begin="180" fromJunction="J3" toJunction="J5" end="240" vehsPerHour="90.34713501114737" departLane="free"/>
  <flow id="JF340035" begin="180" fromJunction="J4" toJunction="J6" end="240" vehsPerHour="31.240876009942674" departLane="free"/>
  <flow id="JF340036" begin="180" fromJunction="J4" toJunction="J7" end="240" vehsPerHour="3.5929048868774243" departLane="free"/>
  <flow id="JF340037" begin="180" fromJunction="J4" toJunction="J5" end="240" vehsPerHour="37.84504780795481" departLane="free"/>
  <flow id="JF340038" begin="180" fromJunction="J6" toJunction="J4" end="240" vehsPerHour="51.55567928648656" departLane="free"/>
  <flow id="JF340039" begin="180" fromJunction="J6" toJunction="J7" end="240" vehsPerHour="50.69268882135888" departLane="free"/>
  <flow id="JF340040" begin="180" fromJunction="J6" toJunction="J5" end="240" vehsPerHour="43.79569863861607" departLane="free"/>
  <flow id="JF340041" begin="180" fromJunction="J7" toJunction="J4" end="240" vehsPerHour="58.41291972091391" departLane="free"/>
  <flow id="JF340042" begin="180" fromJunction="J7" toJunction="J6" end="240" vehsPerHour="37.36895935503497" departLane="free"/>
  <flow id="JF340043" begin="180" fromJunction="J7" toJunction="J5" end="240" vehsPerHour="10.740267406540838" departLane="free"/>
  <flow id="JF340044" begin="180" fromJunction="J5" toJunction="J4" end="240" vehsPerHour="63.773782487404254" departLane="free"/>
  <flow id="JF340045" begin="180" fromJunction="J5" toJunction="J6" end="240" vehsPerHour="57.15618076475509" departLane="free"/>
  <flow id="JF340046" begin="180" fromJunction="J5" toJunction="J7" end="240" vehsPerHour="31.963961246537902" departLane="free"/>
  <flow id="JF340047" begin="180" fromJunction="J4" toJunction="J0" end="240" vehsPerHour="49.7412405371736" departLane="free"/>
  <flow id="JF340048" begin="180" fromJunction="J4" toJunction="J3" end="240" vehsPerHour="6.298239049872281" departLane="free"/>
  <flow id="JF340049" begin="180" fromJunction="J6" toJunction="J0" end="240" vehsPerHour="20.415465233796" departLane="free"/>
  <flow id="JF340050" begin="180" fromJunction="J6" toJunction="J3" end="240" vehsPerHour="63.42177644665946" departLane="free"/>
  <flow id="JF340051" begin="180" fromJunction="J7" toJunction="J0" end="240" vehsPerHour="11.646661692183086" departLane="free"/>
  <flow id="JF340052" begin="180" fromJunction="J7" toJunction="J3" end="240" vehsPerHour="46.71034661107232" departLane="free"/>
  <flow id="JF340053" begin="180" fromJunction="J5" toJunction="J0" end="240" vehsPerHour="64.23085472966544" departLane="free"/>
  <flow id="JF340054" begin="180" fromJunction="J5" toJunction="J3" end="240" vehsPerHour="60.8666269090136" departLane="free"/>
  <flow id="JF340055" begin="240" fromJunction="J0" toJunction="J3" end="300" vehsPerHour="106.32275627469647" departLane="free"/>
  <flow id="JF340056" begin="240" fromJunction="J3" toJunction="J0" end="300" vehsPerHour="402.9582129670407" departLane="free"/>
  <flow id="JF340057" begin="240" fromJunction="J0" toJunction="J4" end="300" vehsPerHour="26.031771110284176" departLane="free"/>
  <flow id="JF340058" begin="240" fromJunction="J0" toJunction="J6" end="300" vehsPerHour="100.45360598194766" departLane="free"/>
  <flow id="JF340059" begin="240" fromJunction="J0" toJunction="J7" end="300" vehsPerHour="113.5644823964979" departLane="free"/>
  <flow id="JF340060" begin="240" fromJunction="J0" toJunction="J5" end="300" vehsPerHour="53.98732683942956" departLane="free"/>
  <flow id="JF340061" begin="240" fromJunction="J3" toJunction="J4" end="300" vehsPerHour="124.07642703927225" departLane="free"/>
  <flow id="JF340062" begin="240" fromJunction="J3" toJunction="J6" end="300" vehsPerHour="93.6330549075435" departLane="free"/>
  <flow id="JF340063" begin="240" fromJunction="J3" toJunction="J7" end="300" vehsPerHour="14.151500432249206" departLane="free"/>
  <flow id="JF340064" begin="240" fromJunction="J3" toJunction="J5" end="300" vehsPerHour="126.66737471588047" departLane="free"/>
  <flow id="JF340065" begin="240" fromJunction="J4" toJunction="J6" end="300" vehsPerHour="60.80144024638754" departLane="free"/>
  <flow id="JF340066" begin="240" fromJunction="J4" toJunction="J7" end="300" vehsPerHour="12.845275971770468" departLane="free"/>
  <flow id="JF340067" begin="240" fromJunction="J4" toJunction="J5" end="300" vehsPerHour="2.1752116132014514" departLane="free"/>
  <flow id="JF340068" begin="240" fromJunction="J6" toJunction="J4" end="300" vehsPerHour="60.91154538639792" departLane="free"/>
  <flow id="JF340069" begin="240" fromJunction="J6" toJunction="J7" end="300" vehsPerHour="64.63316094823061" departLane="free"/>
  <flow id="JF340070" begin="240" fromJunction="J6" toJunction="J5" end="300" vehsPerHour="62.264736465488134" departLane="free"/>
  <flow id="JF340071" begin="240" fromJunction="J7" toJunction="J4" end="300" vehsPerHour="44.28473655179174" departLane="free"/>
  <flow id="JF340072" begin="240" fromJunction="J7" toJunction="J6" end="300" vehsPerHour="34.819276590643106" departLane="free"/>
  <flow id="JF340073" begin="240" fromJunction="J7" toJunction="J5" end="300" vehsPerHour="18.847924873016417" departLane="free"/>
  <flow id="JF340074" begin="240" fromJunction="J5" toJunction="J4" end="300" vehsPerHour="33.85945969863228" departLane="free"/>
  <flow id="JF340075" begin="240" fromJunction="J5" toJunction="J6" end="300" vehsPerHour="31.259781246493112" departLane="free"/>
  <flow id="JF340076" begin="240" fromJunction="J5" toJunction="J7" end="300" vehsPerHour="18.47408320632106" departLane="free"/>
  <flow id="JF340077" begin="240" fromJunction="J4" toJunction="J0" end="300" vehsPerHour="1.8626112259825047" departLane="free"/>
  <flow id="JF340078" begin="240" fromJunction="J4" toJunction="J3" end="300" vehsPerHour="7.982020510449439" departLane="free"/>
  <flow id="JF340079" begin="240" fromJunction="J6" toJunction="J0" end="300" vehsPerHour="60.524334512798276" departLane="free"/>
  <flow id="JF340080" begin="240" fromJunction="J6" toJunction="J3" end="300" vehsPerHour="50.86682199046598" departLane="free"/>
  <flow id="JF340081" begin="240" fromJunction="J7" toJunction="J0" end="300" vehsPerHour="24.143199708050428" departLane="free"/>
  <flow id="JF340082" begin="240" fromJunction="J7" toJunction="J3" end="300" vehsPerHour="5.737048668769016" departLane="free"/>
  <flow id="JF340083" begin="240" fromJunction="J5" toJunction="J0" end="300" vehsPerHour="54.1193241920953" departLane="free"/>
  <flow id="JF340084" begin="240" fromJunction="J5" toJunction="J3" end="300" vehsPerHour="5.67103835378842" departLane="free"/>
  <flow id="JF340085" begin="300" fromJunction="J0" toJunction="J3" end="360" vehsPerHour="533.6624110920453" departLane="free"/>
  <flow id="JF340086" begin="300" fromJunction="J3" toJunction="J0" end="360" vehsPerHour="134.62703533013257" departLane="free"/>
  <flow id="JF340087" begin="300" fromJunction="J0" toJunction="J4" end="360" vehsPerHour="29.80331255338824" departLane="free"/>
  <flow id="JF340088" begin="300" fromJunction="J0" toJunction="J6" end="360" vehsPerHour="65.65649517055087" departLane="free"/>
  <flow id="JF340089" begin="300" fromJunction="J0" toJunction="J7" end="360" vehsPerHour="10.792445984213144" departLane="free"/>
  <flow id="JF340090" begin="300" fromJunction="J0" toJunction="J5" end="360" vehsPerHour="114.57881825402667" departLane="free"/>
  <flow id="JF340091" begin="300" fromJunction="J3" toJunction="J4" end="360" vehsPerHour="50.547621402114245" departLane="free"/>
  <flow id="JF340092" begin="300" fromJunction="J3" toJunction="J6" end="360" vehsPerHour="119.72991346175142" departLane="free"/>
  <flow id="JF340093" begin="300" fromJunction="J3" toJunction="J7" end="360" vehsPerHour="109.40419577868325" departLane="free"/>
  <flow id="JF340094" begin="300" fromJunction="J3" toJunction="J5" end="360" vehsPerHour="115.40661417334317" departLane="free"/>
  <flow id="JF340095" begin="360" fromJunction="J0" toJunction="J3" end="420" vehsPerHour="535.6596630910271" departLane="free"/>
  <flow id="JF340096" begin="360" fromJunction="J3" toJunction="J0" end="420" vehsPerHour="427.8803603150732" departLane="free"/>
  <flow id="JF340097" begin="360" fromJunction="J0" toJunction="J4" end="420" vehsPerHour="38.67615505836627" departLane="free"/>
  <flow id="JF340098" begin="360" fromJunction="J0" toJunction="J6" end="420" vehsPerHour="102.04272588452919" departLane="free"/>
  <flow id="JF340099" begin="360" fromJunction="J0" toJunction="J7" end="420" vehsPerHour="130.58634550538537" departLane="free"/>
  <flow id="JF340100" begin="360" fromJunction="J0" toJunction="J5" end="420" vehsPerHour="27.396172275195614" departLane="free"/>
  <flow id="JF340101" begin="360" fromJunction="J3" toJunction="J4" end="420" vehsPerHour="111.98600092929954" departLane="free"/>
  <flow id="JF340102" begin="360" fromJunction="J3" toJunction="J6" end="420" vehsPerHour="21.39550497609186" departLane="free"/>
  <flow id="JF340103" begin="360" fromJunction="J3" toJunction="J7" end="420" vehsPerHour="32.11501535506888" departLane="free"/>
  <flow id="JF340104" begin="360" fromJunction="J3" toJunction="J5" end="420" vehsPerHour="92.36472467782049" departLane="free"/>
  <flow id="JF340105" begin="360" fromJunction="J4" toJunction="J6" end="420" vehsPerHour="45.465917543070695" departLane="free"/>
  <flow id="JF340106" begin="360" fromJunction="J4" toJunction="J7" end="420" vehsPerHour="62.27959899126664" departLane="free"/>
  <flow id="JF340107" begin="360" fromJunction="J4" toJunction="J5" end="420" vehsPerHour="6.072519583910959" departLane="free"/>
  <flow id="JF340108" begin="360" fromJunction="J6" toJunction="J4" end="420" vehsPerHour="0.06475286694375364" departLane="free"/>
  <flow id="JF340109" begin="360" fromJunction="J6" toJunction="J7" end="420" vehsPerHour="42.693951776623095" departLane="free"/>
  <flow id="JF340110" begin="360" fromJunction="J6" toJunction="J5" end="420" vehsPerHour="17.827620275765938" departLane="free"/>
  <flow id="JF340111" begin="360" fromJunction="J7" toJunction="J4" end="420" vehsPerHour="1.2148382182322104" departLane="free"/>
  <flow id="JF340112" begin="360" fromJunction="J7" toJunction="J6" end="420" vehsPerHour="51.527706134289645" departLane="free"/>
  <flow id="JF340113" begin="360" fromJunction="J7" toJunction="J5" end="420" vehsPerHour="50.48461371284454" departLane="free"/>
  <flow id="JF340114" begin="360" fromJunction="J5" toJunction="J4" end="420" vehsPerHour="47.09887464023645" departLane="free"/>
  <flow id="JF340115" begin="360" fromJunction="J5" toJunction="J6" end="420" vehsPerHour="56.48113412458651" departLane="free"/>
  <flow id="JF340116" begin="360" fromJunction="J5" toJunction="J7" end="420" vehsPerHour="45.27714808742394" departLane="free"/>
  <flow id="JF340117" begin="360" fromJunction="J4" toJunction="J0" end="420" vehsPerHour="31.95593822462947" departLane="free"/>
  <flow id="JF340118" begin="360" fromJunction="J4" toJunction="J3" end="420" vehsPerHour="52.81143395146352" departLane="free"/>
  <flow id="JF340119" begin="360" fromJunction="J6" toJunction="J0" end="420" vehsPerHour="40.81498341942938" departLane="free"/>
  <flow id="JF340120" begin="360" fromJunction="J6" toJunction="J3" end="420" vehsPerHour="18.736744955904648" departLane="free"/>
  <flow id="JF340121" begin="360" fromJunction="J7" toJunction="J0" end="420" vehsPerHour="53.72482849973601" departLane="free"/>
  <flow id="JF340122" begin="360" fromJunction="J7" toJunction="J3" end="420" vehsPerHour="61.931082798724255" departLane="free"/>
  <flow id="JF340123" begin="360" fromJunction="J5" toJunction="J0" end="420" vehsPerHour="56.24506077022885" departLane="free"/>
  <flow id="JF340124" begin="360" fromJunction="J5" toJunction="J3" end="420" vehsPerHour="10.786085188048416" departLane="free"/>
  <flow id="JF340125" begin="420" fromJunction="J0" toJunction="J3" end="480" vehsPerHour="78.81053138807265" departLane="free"/>
  <flow id="JF340126" begin="420" fromJunction="J3" toJunction="J0" end="480" vehsPerHour="462.27837413984673" departLane="free"/>
  <flow id="JF340127" begin="420" fromJunction="J0" toJunction="J4" end="480" vehsPerHour="136.3805455616645" departLane="free"/>
  <flow id="JF340128" begin="420" fromJunction="J0" toJunction="J6" end="480" vehsPerHour="57.05908801234062" departLane="free"/>
  <flow id="JF340129" begin="420" fromJunction="J0" toJunction="J7" end="480" vehsPerHour="64.5325366659873" departLane="free"/>
  <flow id="JF340130" begin="420" fromJunction="J0" toJunction="J5" end="480" vehsPerHour="24.002862199721452" departLane="free"/>
  <flow id="JF340131" begin="420" fromJunction="J3" toJunction="J4" end="480" vehsPerHour="18.32129960593103" departLane="free"/>
  <flow id="JF340132" begin="420" fromJunction="J3" toJunction="J6" end="480" vehsPerHour="67.43311371374972" departLane="free"/>
  <flow id="JF340133" begin="420" fromJunction="J3" toJunction="J7" end="480" vehsPerHour="87.65647902042402" departLane="free"/>
  <flow id="JF340134" begin="420" fromJunction="J3" toJunction="J5" end="480" vehsPerHour="112.24532397873448" departLane="free"/>
  <flow id="JF340135" begin="420" fromJunction="J4" toJunction="J6" end="480" vehsPerHour="3.37930861331314" departLane="free"/>
  <flow id="JF340136" begin="420" fromJunction="J4" toJunction="J7" end="480" vehsPerHour="45.53305657066612" departLane="free"/>
  <flow id="JF340137" begin="420" fromJunction="J4" toJunction="J5" end="480" vehsPerHour="36.45120057788347" departLane="free"/>
  <flow id="JF340138" begin="420" fromJunction="J6" toJunction="J4" end="480" vehsPerHour="23.087639199394783" departLane="free"/>
  <flow id="JF340139" begin="420" fromJunction="J6" toJunction="J7" end="480" vehsPerHour="15.829941129393438" departLane="free"/>
  <flow id="JF340140" begin="420" fromJunction="J6" toJunction="J5" end="480" vehsPerHour="17.952414680798686" departLane="free"/>
  <flow id="JF340141" begin="420" fromJunction="J7" toJunction="J4" end="480" vehsPerHour="17.730535334563985" departLane="free"/>
  <flow id="JF340142" begin="420" fromJunction="J7" toJunction="J6" end="480" vehsPerHour="25.828795122343504" departLane="free"/>
  <flow id="JF340143" begin="420" fromJunction="J7" toJunction="J5" end="480" vehsPerHour="59.43399290868776" departLane="free"/>
  <flow id="JF340144" begin="420" fromJunction="J5" toJunction="J4" end="480" vehsPerHour="22.31790516208479" departLane="free"/>
  <flow id="JF340145" begin="420" fromJunction="J5" toJunction="J6" end="480" vehsPerHour="1.2590876556872699" departLane="free"/>
  <flow id="JF340146" begin="420" fromJunction="J5" toJunction="J7" end="480" vehsPerHour="55.76726747789696" departLane="free"/>
  <flow id="JF340147" begin="420" fromJunction="J4" toJunction="J0" end="480" vehsPerHour="37.47479468365278" departLane="free"/>
  <flow id="JF340148" begin="420" fromJunction="J4" toJunction="J3" end="480" vehsPerHour="60.358933120714745" departLane="free"/>
  <flow id="JF340149" begin="420" fromJunction="J6" toJunction="J0" end="480" vehsPerHour="4.599101368363426" departLane="free"/>
  <flow id="JF340150" begin="420" fromJunction="J6" toJunction="J3" end="480" vehsPerHour="68.52404207811952" departLane="free"/>
  <flow id="JF340151" begin="420" fromJunction="J7" toJunction="J0" end="480" vehsPerHour="4.366592813161078" departLane="free"/>
  <flow id="JF340152" begin="420" fromJunction="J7" toJunction="J3" end="480" vehsPerHour="11.678917659923112" departLane="free"/>
  <flow id="JF340153" begin="420" fromJunction="J5" toJunction="J0" end="480" vehsPerHour="21.88551330352099" departLane="free"/>
  <flow id="JF340154" begin="420" fromJunction="J5" toJunction="J3" end="480" vehsPerHour="20.151036416553982" departLane="free"/>
  <flow id="JF340155" begin="480" fromJunction="J0" toJunction="J3" end="540" vehsPerHour="179.61992130786805" departLane="free"/>
  <flow id="JF340156" begin="480" fromJunction="J3" toJunction="J0" end="540" vehsPerHour="464.7103794484093" departLane="free"/>
  <flow id="JF340157" begin="480" fromJunction="J0" toJunction="J4" end="540" vehsPerHour="0.7586783786081033" departLane="free"/>
  <flow id="JF340158" begin="480" fromJunction="J0" toJunction="J6" end="540" vehsPerHour="26.762838256245338" departLane="free"/>
  <flow id="JF340159" begin="480" fromJunction="J0" toJunction="J7" end="540" vehsPerHour="30.652790505625724" departLane="free"/>
  <flow id="JF340160" begin="480" fromJunction="J0" toJunction="J5" end="540" vehsPerHour="52.755044124633066" departLane="free"/>
  <flow id="JF340161" begin="480" fromJunction="J3" toJunction="J4" end="540" vehsPerHour="109.35023329384406" departLane="free"/>
  <flow id="JF340162" begin="480" fromJunction="J3" toJunction="J6" end="540" vehsPerHour="133.83961749596926" departLane="free"/>
  <flow id="JF340163" begin="480" fromJunction="J3" toJunction="J7" end="540" vehsPerHour="66.89152449364593" departLane="free"/>