<?xml version="1.0" encoding="UTF-8"?>
<routes xmlns:xsi="http://www.w3.org/2001/XMLSchema-instance" xsi:noNamespaceSchemaLocation="http://sumo.dlr.de/xsd/routes_file.xsd">
  <flow id="JF328847" begin="0" fromJunction="J0" toJunction="J3" end="60" vehsPerHour="400.50370063422025" departLane="free"/>
  <flow id="JF328848" begin="0" fromJunction="J3" toJunction="J0" end="60" vehsPerHour="246.71734526816988" departLane="free"/>
  <flow id="JF328849" begin="0" fromJunction="J0" toJunction="J4" end="60" vehsPerHour="117.27085858029285" departLane="free"/>
  <flow id="JF328850" begin="0" fromJunction="J0" toJunction="J6" end="60" vehsPerHour="87.57912376995634" departLane="free"/>
  <flow id="JF328851" begin="0" fromJunction="J0" toJunction="J7" end="60" vehsPerHour="37.400015697990185" departLane="free"/>
  <flow id="JF328852" begin="0" fromJunction="J0" toJunction="J5" end="60" vehsPerHour="33.923767720968904" departLane="free"/>
  <flow id="JF328853" begin="0" fromJunction="J3" toJunction="J4" end="60" vehsPerHour="69.77716566085725" departLane="free"/>
  <flow id="JF328854" begin="0" fromJunction="J3" toJunction="J6" end="60" vehsPerHour="20.592609468985973" departLane="free"/>
  <flow id="JF328855" begin="0" fromJunction="J3" toJunction="J7" end="60" vehsPerHour="132.7648662899223" departLane="free"/>
  <flow id="JF328856" begin="0" fromJunction="J3" toJunction="J5" end="60" vehsPerHour="95.41461497828328" departLane="free"/>
  <flow id="JF328857" begin="60" fromJunction="J0" toJunction="J3" end="120" vehsPerHour="419.3505845073877" departLane="free"/>
  <flow id="JF328858" begin="60" fromJunction="J3" toJunction="J0" end="120" vehsPerHour="541.5242356151052" departLane="free"/>
  <flow id="JF328859" begin="60" fromJunction="J0" toJunction="J4" end="120" vehsPerHour="118.9667538734148" departLane="free"/>
  <flow id="JF328860" begin="60" fromJunction="J0" toJunction="J6" end="120" vehsPerHour="91.73255029503211" departLane="free"/>
  <flow id="JF328861" begin="60" fromJunction="J0" toJunction="J7" end="120" vehsPerHour="71.60085613272689" departLane="free"/>
  <flow id="JF328862" begin="60" fromJunction="J0" toJunction="J5" end="120" vehsPerHour="62.0144356671249" departLane="free"/>
  <flow id="JF328863" begin="60" fromJunction="J3" toJunction="J4" end="120" vehsPerHour="51.523277163186265" departLane="free"/>
  <flow id="JF328864" begin="60" fromJunction="J3" toJunction="J6" end="120" vehsPerHour="103.42940812418759" departLane="free"/>
  <flow id="JF328865" begin="60" fromJunction="J3" toJunction="J7" end="120" vehsPerHour="65.18307734432034" departLane="free"/>
  <flow id="JF328866" begin="60" fromJunction="J3" toJunction="J5" end="120" vehsPerHour="88.33936311935071" departLane="free"/>
  <flow id="JF328867" begin="60" fromJunction="J4" toJunction="J6" end="120" vehsPerHour="36.244422252555424" departLane="free"/>
  <flow id="JF328868" begin="60" fromJunction="J4" toJunction="J7" end="120" vehsPerHour="3.8615963643123963" departLane="free"/>
  <flow id="JF328869" begin="60" fromJunction="J4" toJunction="J5" end="120" vehsPerHour="35.136112083038256" departLane="free"/>
  <flow id="JF328870" begin="60" fromJunction="J6" toJunction="J4" end="120" vehsPerHour="49.5798640583804" departLane="free"/>
  <flow id="JF328871" begin="60" fromJunction="J6" toJunction="J7" end="120" vehsPerHour="30.060560634925494" departLane="free"/>
  <flow id="JF328872" begin="60" fromJunction="J6" toJunction="J5" end="120" vehsPerHour="51.52357715493381" departLane="free"/>
  <flow id="JF328873" begin="60" fromJunction="J7" toJunction="J4" end="120" vehsPerHour="55.45572900213707" departLane="free"/>
  <flow id="JF328874" begin="60" fromJunction="J7" toJunction="J6" end="120" vehsPerHour="10.398516337810815" departLane="free"/>
  <flow id="JF328875" begin="60" fromJunction="J7" toJunction="J5" end="120" vehsPerHour="4.031741867920209" departLane="free"/>
  <flow id="JF328876" begin="60" fromJunction="J5" toJunction="J4" end="120" vehsPerHour="27.69172446912883" departLane="free"/>
  <flow id="JF328877" begin="60" fromJunction="J5" toJunction="J6" end="120" vehsPerHour="37.897186104367414" departLane="free"/>
  <flow id="JF328878" begin="60" fromJunction="J5" toJunction="J7" end="120" vehsPerHour="20.91735932984346" departLane="free"/>
  <flow id="JF328879" begin="60" fromJunction="J4" toJunction="J0" end="120" vehsPerHour="7.644702534042205" departLane="free"/>
  <flow id="JF328880" begin="60" fromJunction="J4" toJunction="J3" end="120" vehsPerHour="4.2747748303300845" departLane="free"/>
  <flow id="JF328881" begin="60" fromJunction="J6" toJunction="J0" end="120" vehsPerHour="15.999363219109915" departLane="free"/>
  <flow id="JF328882" begin="60" fromJunction="J6" toJunction="J3" end="120" vehsPerHour="32.33940709762904" departLane="free"/>
  <flow id="JF328883" begin="60" fromJunction="J7" toJunction="J0" end="120" vehsPerHour="17.38871173480893" departLane="free"/>
  <flow id="JF328884" begin="60" fromJunction="J7" toJunction="J3" end="120" vehsPerHour="41.07729861419066" departLane="free"/>
  <flow id="JF328885" begin="60" fromJunction="J5" toJunction="J0" end="120" vehsPerHour="19.111799693120016" departLane="free"/>
  <flow id="JF328886" begin="60" fromJunction="J5" toJunction="J3" end="120" vehsPerHour="20.09839784285426" departLane="free"/>
  <flow id="JF328887" begin="120" fromJunction="J0" toJunction="J3" end="180" vehsPerHour="111.58468089296439" departLane="free"/>
  <flow id="JF328888" begin="120" fromJunction="J3" toJunction="J0" end="180" vehsPerHour="20.95439387204081" departLane="free"/>
  <flow id="JF328889" begin="120" fromJunction="J0" toJunction="J4" end="180" vehsPerHour="1.4983315647134388" departLane="free"/>
  <flow id="JF328890" begin="120" fromJunction="J0" toJunction="J6" end="180" vehsPerHour="116.17041894192936" departLane="free"/>
  <flow id="JF328891" begin="120" fromJunction="J0" toJunction="J7" end="180" vehsPerHour="35.02530129429403" departLane="free"/>
  <flow id="JF328892" begin="120" fromJunction="J0" toJunction="J5" end="180" vehsPerHour="91.19514635309052" departLane="free"/>
  <flow id="JF328893" begin="120" fromJunction="J3" toJunction="J4" end="180" vehsPerHour="80.59525978582967" departLane="free"/>
  <flow id="JF328894" begin="120" fromJunction="J3" toJunction="J6" end="180" vehsPerHour="11.56596882608417" departLane="free"/>
  <flow id="JF328895" begin="120" fromJunction="J3" toJunction="J7" end="180" vehsPerHour="6.822828277617137" departLane="free"/>
  <flow id="JF328896" begin="120" fromJunction="J3" toJunction="J5" end="180" vehsPerHour="81.03330849261698" departLane="free"/>
  <flow id="JF328897" begin="180" fromJunction="J0" toJunction="J3" end="240" vehsPerHour="312.7477202423005" departLane="free"/>
  <flow id="JF328898" begin="180" fromJunction="J3" toJunction="J0" end="240" vehsPerHour="187.81228476328653" departLane="free"/>
  <flow id="JF328899" begin="180" fromJunction="J0" toJunction="J4" end="240" vehsPerHour="69.31897801183638" departLane="free"/>
  <flow id="JF328900" begin="180" fromJunction="J0" toJunction="J6" end="240" vehsPerHour="36.215699444635405" departLane="free"/>
  <flow id="JF328901" begin="180" fromJunction="J0" toJunction="J7" end="240" vehsPerHour="22.79336811159431" departLane="free"/>
  <flow id="JF328902" begin="180" fromJunction="J0" toJunction="J5" end="240" vehsPerHour="18.394936600717777" departLane="free"/>
  <flow id="JF328903" begin="180" fromJunction="J3" toJunction="J4" end="240" vehsPerHour="4.585669312571331" departLane="free"/>
  <flow id="JF328904" begin="180" fromJunction="J3" toJunction="J6" end="240" vehsPerHour="119.18037812413225" departLane="free"/>
  <flow id="JF328905" begin="180" fromJunction="J3" toJunction="J7" end="240" vehsPerHour="88.94957922784997" departLane="free"/>
  <flow id="JF328906" begin="180" fromJunction="J3" toJunction="J5" end="240" vehsPerHour="35.92060616264551" departLane="free"/>
  <flow id="JF328907" begin="180" fromJunction="J4" toJunction="J6" end="240" vehsPerHour="58.96515342687876" departLane="free"/>
  <flow id="JF328908" begin="180" fromJunction="J4" toJunction="J7" end="240" vehsPerHour="6.151754088310486" departLane="free"/>
  <flow id="JF328909" begin="180" fromJunction="J4" toJunction="J5" end="240" vehsPerHour="17.11056563927415" departLane="free"/>
  <flow id="JF328910" begin="180" fromJunction="J6" toJunction="J4" end="240" vehsPerHour="67.49311936046765" departLane="free"/>
  <flow id="JF328911" begin="180" fromJunction="J6" toJunction="J7" end="240" vehsPerHour="19.150322264820755" departLane="free"/>
  <flow id="JF328912" begin="180" fromJunction="J6" toJunction="J5" end="240" vehsPerHour="34.16690482707483" departLane="free"/>
  <flow id="JF328913" begin="180" fromJunction="J7" toJunction="J4" end="240" vehsPerHour="57.41362108815772" departLane="free"/>
  <flow id="JF328914" begin="180" fromJunction="J7" toJunction="J6" end="240" vehsPerHour="31.766240450986253" departLane="free"/>
  <flow id="JF328915" begin="180" fromJunction="J7" toJunction="J5" end="240" vehsPerHour="61.25126275209202" departLane="free"/>
  <flow id="JF328916" begin="180" fromJunction="J5" toJunction="J4" end="240" vehsPerHour="44.661944822584" departLane="free"/>
  <flow id="JF328917" begin="180" fromJunction="J5" toJunction="J6" end="240" vehsPerHour="16.442444316296957" departLane="free"/>
  <flow id="JF328918" begin="180" fromJunction="J5" toJunction="J7" end="240" vehsPerHour="34.151712844346974" departLane="free"/>
  <flow id="JF328919" begin="180" fromJunction="J4" toJunction="J0" end="240" vehsPerHour="8.177960969878049" departLane="free"/>
  <flow id="JF328920" begin="180" fromJunction="J4" toJunction="J3" end="240" vehsPerHour="6.798025726047647" departLane="free"/>
  <flow id="JF328921" begin="180" fromJunction="J6" toJunction="J0" end="240" vehsPerHour="54.67659070987299" departLane="free"/>
  <flow id="JF328922" begin="180" fromJunction="J6" toJunction="J3" end="240" vehsPerHour="41.44576208828048" departLane="free"/>
  <flow id="JF328923" begin="180" fromJunction="J7" toJunction="J0" end="240" vehsPerHour="36.238256165653276" departLane="free"/>
  <flow id="JF328924" begin="180" fromJunction="J7" toJunction="J3" end="240" vehsPerHour="40.8267037132508" departLane="free"/>
  <flow id="JF328925" begin="180" fromJunction="J5" toJunction="J0" end="240" vehsPerHour="39.16915002960021" departLane="free"/>
  <flow id="JF328926" begin="180" fromJunction="J5" toJunction="J3" end="240" vehsPerHour="7.55989941553942" departLane="free"/>
  <flow id="JF328927" begin="240" fromJunction="J0" toJunction="J3" end="300" vehsPerHour="150.12133172209977" departLane="free"/>
  <flow id="JF328928" begin="240" fromJunction="J3" toJunction="J0" end="300" vehsPerHour="321.2993936473018" departLane="free"/>
  <flow id="JF328929" begin="240" fromJunction="J0" toJunction="J4" end="300" vehsPerHour="130.46748905845521" departLane="free"/>
  <flow id="JF328930" begin="240" fromJunction="J0" toJunction="J6" end="300" vehsPerHour="95.69174433291357" departLane="free"/>
  <flow id="JF328931" begin="240" fromJunction="J0" toJunction="J7" end="300" vehsPerHour="123.82662090984255" departLane="free"/>
  <flow id="JF328932" begin="240" fromJunction="J0" toJunction="J5" end="300" vehsPerHour="45.03679128945558" departLane="free"/>
  <flow id="JF328933" begin="240" fromJunction="J3" toJunction="J4" end="300" vehsPerHour="25.36130010450626" departLane="free"/>
  <flow id="JF328934" begin="240" fromJunction="J3" toJunction="J6" end="300" vehsPerHour="84.52952517948617" departLane="free"/>
  <flow id="JF328935" begin="240" fromJunction="J3" toJunction="J7" end="300" vehsPerHour="96.04663881823615" departLane="free"/>
  <flow id="JF328936" begin="240" fromJunction="J3" toJunction="J5" end="300" vehsPerHour="37.245115699543646" departLane="free"/>
  <flow id="JF328937" begin="240" fromJunction="J4" toJunction="J6" end="300" vehsPerHour="51.34930358578456" departLane="free"/>
  <flow id="JF328938" begin="240" fromJunction="J4" toJunction="J7" end="300" vehsPerHour="62.11535701100803" departLane="free"/>
  <flow id="JF328939" begin="240" fromJunction="J4" toJunction="J5" end="300" vehsPerHour="42.60379200305348" departLane="free"/>
  <flow id="JF328940" begin="240" fromJunction="J6" toJunction="J4" end="300" vehsPerHour="22.833944578632046" departLane="free"/>
  <flow id="JF328941" begin="240" fromJunction="J6" toJunction="J7" end="300" vehsPerHour="37.08086205486546" departLane="free"/>
  <flow id="JF328942" begin="240" fromJunction="J6" toJunction="J5" end="300" vehsPerHour="32.828229856761524" departLane="free"/>
  <flow id="JF328943" begin="240" fromJunction="J7" toJunction="J4" end="300" vehsPerHour="33.66431672951672" departLane="free"/>
  <flow id="JF328944" begin="240" fromJunction="J7" toJunction="J6" end="300" vehsPerHour="24.81989507364688" departLane="free"/>
  <flow id="JF328945" begin="240" fromJunction="J7" toJunction="J5" end="300" vehsPerHour="29.35738287484199" departLane="free"/>
  <flow id="JF328946" begin="240" fromJunction="J5" toJunction="J4" end="300" vehsPerHour="13.28813375351465" departLane="free"/>
  <flow id="JF328947" begin="240" fromJunction="J5" toJunction="J6" end="300" vehsPerHour="41.89773215233762" departLane="free"/>
  <flow id="JF328948" begin="240" fromJunction="J5" toJunction="J7" end="300" vehsPerHour="4.571106758242511" departLane="free"/>
  <flow id="JF328949" begin="240" fromJunction="J4" toJunction="J0" end="300" vehsPerHour="55.258120300354435" departLane="free"/>
  <flow id="JF328950" begin="240" fromJunction="J4" toJunction="J3" end="300" vehsPerHour="16.13970983319013" departLane="free"/>
  <flow id="JF328951" begin="240" fromJunction="J6" toJunction="J0" end="300" vehsPerHour="52.34197751956979" departLane="free"/>
  <flow id="JF328952" begin="240" fromJunction="J6" toJunction="J3" end="300" vehsPerHour="35.049501529996355" departLane="free"/>
  <flow id="JF328953" begin="240" fromJunction="J7" toJunction="J0" end="300" vehsPerHour="11.887405221197646" departLane="free"/>
  <flow id="JF328954" begin="240" fromJunction="J7" toJunction="J3" end="300" vehsPerHour="47.94724495464757" departLane="free"/>
  <flow id="JF328955" begin="240" fromJunction="J5" toJunction="J0" end="300" vehsPerHour="34.255413597742354" departLane="free"/>
  <flow id="JF328956" begin="240" fromJunction="J5" toJunction="J3" end="300" vehsPerHour="16.963166617763644" departLane="free"/>
  <flow id="JF328957" begin="300" fromJunction="J0" toJunction="J3" end="360" vehsPerHour="548.8903968222045" departLane="free"/>
  <flow id="JF328958" begin="300" fromJunction="J3" toJunction="J0" end="360" vehsPerHour="0.09143715148755707" departLane="free"/>
  <flow id="JF328959" begin="300" fromJunction="J0" toJunction="J4" end="360" vehsPerHour="34.65037783871114" departLane="free"/>
  <flow id="JF328960" begin="300" fromJunction="J0" toJunction="J6" end="360" vehsPerHour="131.74496232525362" departLane="free"/>
  <flow id="JF328961" begin="300" fromJunction="J0" toJunction="J7" end="360" vehsPerHour="73.81020285323058" departLane="free"/>
  <flow id="JF328962" begin="300" fromJunction="J0" toJunction="J5" end="360" vehsPerHour="22.607090979748435" departLane="free"/>
  <flow id="JF328963" begin="300" fromJunction="J3" toJunction="J4" end="360" vehsPerHour="42.858554009203374" departLane="free"/>
  <flow id="JF328964" begin="300" fromJunction="J3" toJunction="J6" end="360" vehsPerHour="84.69000173514432" departLane="free"/>
  <flow id="JF328965" begin="300" fromJunction="J3" toJunction="J7" end="360" vehsPerHour="58.19861988331482" departLane="free"/>
  <flow id="JF328966" begin="300" fromJunction="J3" toJunction="J5" end="360" vehsPerHour="88.05451941619879" departLane="free"/>
  <flow id="JF328967" begin="300" fromJunction="J4" toJunction="J6" end="360" vehsPerHour="7.207816535248342" departLane="free"/>
  <flow id="JF328968" begin="300" fromJunction="J4" toJunction="J7" end="360" vehsPerHour="19.937933729908707" departLane="free"/>
  <flow id="JF328969" begin="300" fromJunction="J4" toJunction="J5" end="360" vehsPerHour="48.13540994470682" departLane="free"/>
  <flow id="JF328970" begin="300" fromJunction="J6" toJunction="J4" end="360" vehsPerHour="59.041223298023716" departLane="free"/>
  <flow id="JF328971" begin="300" fromJunction="J6" toJunction="J7" end="360" vehsPerHour="23.23374121545885" departLane="free"/>
  <flow id="JF328972" begin="300" fromJunction="J6" toJunction="J5" end="360" vehsPerHour="5.302681767180033" departLane="free"/>
  <flow id="JF328973" begin="300" fromJunction="J7" toJunction="J4" end="360" vehsPerHour="56.86966919305167" departLane="free"/>
  <flow id="JF328974" begin="300" fromJunction="J7" toJunction="J6" end="360" vehsPerHour="39.65230060154467" departLane="free"/>
  <flow id="JF328975" begin="300" fromJunction="J7" toJunction="J5" end="360" vehsPerHour="58.57408720757895" departLane="free"/>
  <flow id="JF328976" begin="300" fromJunction="J5" toJunction="J4" end="360" vehsPerHour="33.37464255161643" departLane="free"/>
  <flow id="JF328977" begin="300" fromJunction="J5" toJunction="J6" end="360" vehsPerHour="28.989660172006996" departLane="free"/>
  <flow id="JF328978" begin="300" fromJunction="J5" toJunction="J7" end="360" vehsPerHour="40.195521022889274" departLane="free"/>
  <flow id="JF328979" begin="300" fromJunction="J4" toJunction="J0" end="360" vehsPerHour="48.70184489266921" departLane="free"/>
  <flow id="JF328980" begin="300" fromJunction="J4" toJunction="J3" end="360" vehsPerHour="22.380529271349353" departLane="free"/>
  <flow id="JF328981" begin="300" fromJunction="J6" toJunction="J0" end="360" vehsPerHour="68.63022731906747" departLane="free"/>
  <flow id="JF328982" begin="300" fromJunction="J6" toJunction="J3" end="360" vehsPerHour="27.18917966239585" departLane="free"/>
  <flow id="JF328983" begin="300" fromJunction="J7" toJunction="J0" end="360" vehsPerHour="19.413015849428056" departLane="free"/>
  <flow id="JF328984" begin="300" fromJunction="J7" toJunction="J3" end="360" vehsPerHour="43.20091861643414" departLane="free"/>
  <flow id="JF328985" begin="300" fromJunction="J5" toJunction="J0" end="360" vehsPerHour="54.15935668398257" departLane="free"/>
  <flow id="JF328986" begin="300" fromJunction="J5" toJunction="J3" end="360" vehsPerHour="13.486652185574746" departLane="free"/>
  <flow id="JF328987" begin="360" fromJunction="J0" toJunction="J3" end="420" vehsPerHour="136.2547819071245" departLane="free"/>
  <flow id="JF328988" begin="360" fromJunction="J3" toJunction="J0" end="420" vehsPerHour="514.3696884784354" departLane="free"/>
  <flow id="JF328989" begin="360" fromJunction="J0" toJunction="J4" end="420" vehsPerHour="69.85567788233472" departLane="free"/>
  <flow id="JF328990" begin="360" fromJunction="J0" toJunction="J6" end="420" vehsPerHour="60.305284897332164" departLane="free"/>
  <flow id="JF328991" begin="360" fromJunction="J0" toJunction="J7" end="420" vehsPerHour="32.37191140232463" departLane="free"/>
  <flow id="JF328992" begin="360" fromJunction="J0" toJunction="J5" end="420" vehsPerHour="59.56026889013141" departLane="free"/>
  <flow id="JF328993" begin="360" fromJunction="J3" toJunction="J4" end="420" vehsPerHour="116.48880331550893" departLane="free"/>
  <flow id="JF328994" begin="360" fromJunction="J3" toJunction="J6" end="420" vehsPerHour="78.52993579781057" departLane="free"/>
  <flow id="JF328995" begin="360" fromJunction="J3" toJunction="J7" end="420" vehsPerHour="49.19429299525984" departLane="free"/>
  <flow id="JF328996" begin="360" fromJunction="J3" toJunction="J5" end="420" vehsPerHour="40.58988278806741" departLane="free"/>
  <flow id="JF328997" begin="360" fromJunction="J4" toJunction="J6" end="420" vehsPerHour="42.246459586889124" departLane="free"/>
  <flow id="JF328998" begin="360" fromJunction="J4" toJunction="J7" end="420" vehsPerHour="40.75510080648187" departLane="free"/>
  <flow id="JF328999" begin="360" fromJunction="J4" toJunction="J5" end="420" vehsPerHour="7.5036086614182445" departLane="free"/>
  <flow id="JF329000" begin="360" fromJunction="J6" toJunction="J4" end="420" vehsPerHour="57.1999586702594" departLane="free"/>
  <flow id="JF329001" begin="360" fromJunction="J6" toJunction="J7" end="420" vehsPerHour="0.963138771440151" departLane="free"/>
  <flow id="JF329002" begin="360" fromJunction="J6" toJunction="J5" end="420" vehsPerHour="4.7253955253137025" departLane="free"/>
  <flow id="JF329003" begin="360" fromJunction="J7" toJunction="J4" end="420" vehsPerHour="33.98306466076182" departLane="free"/>
  <flow id="JF329004" begin="360" fromJunction="J7" toJunction="J6" end="420" vehsPerHour="41.250416004453605" departLane="free"/>
  <flow id="JF329005" begin="360" fromJunction="J7" toJunction="J5" end="420" vehsPerHour="33.374381251648195" departLane="free"/>
  <flow id="JF329006" begin="360" fromJunction="J5" toJunction="J4" end="420" vehsPerHour="56.960282252116464" departLane="free"/>
  <flow id="JF329007" begin="360" fromJunction="J5" toJunction="J6" end="420" vehsPerHour="42.634814941882134" departLane="free"/>
  <flow id="JF329008" begin="360" fromJunction="J5" toJunction="J7" end="420" vehsPerHour="0.10161139325903158" departLane="free"/>
  <flow id="JF329009" begin="360" fromJunction="J4" toJunction="J0" end="420" vehsPerHour="21.55350667443809" departLane="free"/>
  <flow id="JF329010" begin="360" fromJunction="J4" toJunction="J3" end="420" vehsPerHour="59.15565569583768" departLane="free"/>
  <flow id="JF329011" begin="360" fromJunction="J6" toJunction="J0" end="420" vehsPerHour="9.78625122877655" departLane="free"/>
  <flow id="JF329012" begin="360" fromJunction="J6" toJunction="J3" end="420" vehsPerHour="32.958337823617285" departLane="free"/>
  <flow id="JF329013" begin="360" fromJunction="J7" toJunction="J0" end="420" vehsPerHour="26.98907605799625" departLane="free"/>
  <flow id="JF329014" begin="360" fromJunction="J7" toJunction="J3" end="420" vehsPerHour="66.17824399184626" departLane="free"/>
  <flow id="JF329015" begin="360" fromJunction="J5" toJunction="J0" end="420" vehsPerHour="37.92166662341041" departLane="free"/>
  <flow id="JF329016" begin="360" fromJunction="J5" toJunction="J3" end="420" vehsPerHour="13.729767968020285" departLane="free"/>
  <flow id="JF329017" begin="420" fromJunction="J0" toJunction="J3" end="480" vehsPerHour="21.072980928546848" departLane="free"/>
  <flow id="JF329018" begin="420" fromJunction="J3" toJunction="J0" end="480" vehsPerHour="356.54410376217197" departLane="free"/>
  <flow id="JF329019" begin="420" fromJunction="J0" toJunction="J4" end="480" vehsPerHour="101.58254919634611" departLane="free"/>
  <flow id="JF329020" begin="420" fromJunction="J0" toJunction="J6" end="480" vehsPerHour="126.67494790164201" departLane="free"/>
  <flow id="JF329021" begin="420" fromJunction="J0" toJunction="J7" end="480" vehsPerHour="10.36250355807048" departLane="free"/>
  <flow id="JF329022" begin="420" fromJunction="J0" toJunction="J5" end="480" vehsPerHour="76.04817600472059" departLane="free"/>
  <flow id="JF329023" begin="420" fromJunction="J3" toJunction="J4" end="480" vehsPerHour="48.3908066522852" departLane="free"/>
  <flow id="JF329024" begin="420" fromJunction="J3" toJunction="J6" end="480" vehsPerHour="59.96885116299364" departLane="free"/>
  <flow id="JF329025" begin="420" fromJunction="J3" toJunction="J7" end="480" vehsPerHour="103.48833370741761" departLane="free"/>
  <flow id="JF329026" begin="420" fromJunction="J3" toJunction="J5" end="480" vehsPerHour="93.60422262740892" departLane="free"/>
  <flow id="JF329027" begin="480" fromJunction="J0" toJunction="J3" end="540" vehsPerHour="496.93983861949755" departLane="free"/>
  <flow id="JF329028" begin="480" fromJunction="J3" toJunction="J0" end="540" vehsPerHour="244.11014335660698" departLane="free"/>
  <flow id="JF329029" begin="480" fromJunction="J0" toJunction="J4" end="540" vehsPerHour="62.92852154106805" departLane="free"/>
  <flow id="JF329030" begin="480" fromJunction="J0" toJunction="J6" end="540" vehsPerHour="132.3278018683457" departLane="free"/>
  <flow id="JF329031" begin="480" fromJunction="J0" toJunction="J7" end="540" vehsPerHour="6.284110600838396" departLane="free"/>
  <flow id="JF329032" begin="480" fromJunction="J0" toJunction="J5" end="540" vehsPerHour="54.70099276320127" departLane="free"/>
  <flow id="JF329033" begin="480" fromJunction="J3" toJunction="J4" end="540" vehsPerHour="104.2655304025449" departLane="free"/>
  <flow id="JF329034" begin="480" fromJunction="J3" toJunction="J6" end="540" vehsPerHour="88.57562826020158" departLane="free"/>
  <flow id="JF329035" begin="480" fromJunction="J3" toJunction="J7" end="540" vehsPerHour="28.227383953072344" departLane="free"/>
  <flow id="JF329036" begin="480" fromJunction="J3" toJunction="J5" end="540" vehsPerHour="32.935665225112" departLane="free"/>
  <flow id="JF329037" begin="480" fromJunction="J4" toJunction="J6" end="540" vehsPerHour="55.94136268845713" departLane="free"/>
  <flow id="JF329038" begin="480" fromJunction="J4" toJunction="J7" end="540" vehsPerHour="61.96620421364356" departLane="free"/>
  <flow id="JF329039" begin="480" fromJunction="J4" toJunction="J5" end="540" vehsPerHour="0.8345171767933155" departLane="free"/>
  <flow id="JF329040" begin="480" fromJunction="J6" toJunction="J4" end="540" vehsPerHour="27.03403420017239" departLane="free"/>
  <flow id="JF329041" begin="480" fromJunction="J6" toJunction="J7" end="540" vehsPerHour="47.826053357645854" departLane="free"/>
  <flow id="JF329042" begin="480" fromJunction="J6" toJunction="J5" end="540" vehsPerHour="5.522317615800161" departLane="free"/>
  <flow id="JF329043" begin="480" fromJunction="J7" toJunction="J4" end="540" vehsPerHour="47.70226285441226" departLane="free"/>
  <flow id="JF329044" begin="480" fromJunction="J7" toJunction="J6" end="540" vehsPerHour="25.747516745401597" departLane="free"/>
  <flow id="JF329045" begin="480" fromJunction="J7" toJunction="J5" end="540" vehsPerHour="38.794607283111944" departLane="free"/>
  <flow id="JF329046" begin="480" fromJunction="J5" toJunction="J4" end="540" vehsPerHour="51.01623568390789" departLane="free"/>
  <flow id="JF329047" begin="480" fromJunction="J5" toJunction="J6" end="540" vehsPerHour="15.006071250139826" departLane="free"/>
  <flow id="JF329048" begin="480" fromJunction="J5" toJunction="J7" end="540" vehsPerHour="60.821451395345704" departLane="free"/>
  <flow id="JF329049" begin="480" fromJunction="J4" toJunction="J0" end="540" vehsPerHour="56.36260195920044" departLane="free"/>
  <flow id="JF329050" begin="480" fromJunction="J4" toJunction="J3" end="540" vehsPerHour="37.42909910628869" departLane="free"/>
  <flow id="JF329051" begin="480" fromJunction="J6" toJunction="J0" end="540" vehsPerHour="56.096587106526805" departLane="free"/>
  <flow id="JF329052" begin="480" fromJunction="J6" toJunction="J3" end="540" vehsPerHour="3.784327082403272" departLane="free"/>
  <flow id="JF329053" begin="480" fromJunction="J7" toJunction="J0" end="540" vehsPerHour="50.05359704998117" departLane="free"/>
  <flow id="JF329054" begin="480" fromJunction="J7" toJunction="J3" end="540" vehsPerHour="46.297513543876015" departLane="free"/>
  <flow id="JF329055" begin="480" fromJunction="J5" toJunction="J0" end="540" vehsPerHour="32.376901816174275" departLane="free"/>
  <flow id="JF329056" begin="480" fromJunction="J5" toJunction="J3" end="540" vehsPerHour="24.15849590076331" departLane="free"/>
  <flow id="JF329057" begin="540" fromJunction="J0" toJunction="J3" end="600" vehsPerHour="349.764959961379" departLane="free"/>
  <flow id="JF329058" begin="540" fromJunction="J3" toJunction="J0" end="600" vehsPerHour="151.35264476117726" departLane="free"/>
  <flow id="JF329059" begin="540" fromJunction="J0" toJunction="J4" end="600" vehsPerHour="111.16519604591788" departLane="free"/>
  <flow id="JF329060" begin="540" fromJunction="J0" toJunction="J6" end="600" vehsPerHour="23.758287803074815" departLane="free"/>
  <flow id="JF329061" begin="540" fromJunction="J0" toJunction="J7" end="600" vehsPerHour="32.80556830318906" departLane="free"/>
  <flow id="JF329062" begin="540" fromJunction="J0" toJunction="J5" end="600" vehsPerHour="41.78293492322136" departLane="free"/>
  <flow id="JF329063" begin="540" fromJunction="J3" toJunction="J4" end="600" vehsPerHour="109.21116171383332" departLane="free"/>
  <flow id="JF329064" begin="540" fromJunction="J3" toJunction="J6" end="600" vehsPerHour="7.672940947728433" departLane="free"/>
  <flow id="JF329065" begin="540" fromJunction="J3" toJunction="J7" end="600" vehsPerHour="102.07497911169854" departLane="free"/>
  <flow id="JF329066" begin="540" fromJunction="J3" toJunction="J5" end="600" vehsPerHour="64.10236633637189" departLane="free"/>
  <flow id="JF329067" begin="540" fromJunction="J4" toJunction="J6" end="600" vehsPerHour="35.35586402099881" departLane="free"/>
  <flow id="JF329068" begin="540" fromJunction="J4" toJunction="J7" end="600" vehsPerHour="65.96423934371157" departLane="free"/>
  <flow id="JF329069" begin="540" fromJunction="J4" toJunction="J5" end="600" vehsPerHour="27.776240105813233" departLane="free"/>
  <flow id="JF329070" begin="540" fromJunction="J6" toJunction="J4" end="600" vehsPerHour="55.808541624800725" departLane="free"/>
  <flow id="JF329071" begin="540" fromJunction="J6" toJunction="J7" end="600" vehsPerHour="59.46414129539096" departLane="free"/>
  <flow id="JF329072" begin="540" fromJunction="J6" toJunction="J5" end="600" vehsPerHour="35.91210041116777" departLane="free"/>
  <flow id="JF329073" begin="540" fromJunction="J7" toJunction="J4" end="600" vehsPerHour="49.681854309286614" departLane="free"/>
  <flow id="JF329074" begin="540" fromJunction="J7" toJunction="J6" end="600" vehsPerHour="19.3908931897061" departLane="free"/>
  <flow id="JF329075" begin="540" fromJunction="J7" toJunction="J5" end="600" vehsPerHour="4.38466700085355" departLane="free"/>