<?xml version="1.0" encoding="UTF-8"?>
<routes xmlns:xsi="http://www.w3.org/2001/XMLSchema-instance" xsi:noNamespaceSchemaLocation="http://sumo.dlr.de/xsd/routes_file.xsd">
  <flow id="JF336219" begin="0" fromJunction="J0" toJunction="J3" end="60" vehsPerHour="171.87220619861276" departLane="free"/>
  <flow id="JF336220" begin="0" fromJunction="J3" toJunction="J0" end="60" vehsPerHour="313.5157652622118" departLane="free"/>
  <flow id="JF336221" begin="0" fromJunction="J0" toJunction="J4" end="60" vehsPerHour="38.15939527346283" departLane="free"/>
  <flow id="JF336222" begin="0" fromJunction="J0" toJunction="J6" end="60" vehsPerHour="38.47835920507946" departLane="free"/>
  <flow id="JF336223" begin="0" fromJunction="J0" toJunction="J7" end="60" vehsPerHour="15.464589432357295" departLane="free"/>
  <flow id="JF336224" begin="0" fromJunction="J0" toJunction="J5" end="60" vehsPerHour="28.131507150608517" departLane="free"/>
  <flow id="JF336225" begin="0" fromJunction="J3" toJunction="J4" end="60" vehsPerHour="55.63634056684355" departLane="free"/>
  <flow id="JF336226" begin="0" fromJunction="J3" toJunction="J6" end="60" vehsPerHour="38.414935664973186" departLane="free"/>
  <flow id="JF336227" begin="0" fromJunction="J3" toJunction="J7" end="60" vehsPerHour="9.214921460360223" departLane="free"/>
  <flow id="JF336228" begin="0" fromJunction="J3" toJunction="J5" end="60" vehsPerHour="43.41138959080415" departLane="free"/>
  <flow id="JF336229" begin="0" fromJunction="J4" toJunction="J6" end="60" vehsPerHour="52.0334838331585" departLane="free"/>
  <flow id="JF336230" begin="0" fromJunction="J4" toJunction="J7" end="60" vehsPerHour="24.464200944766862" departLane="free"/>
  <flow id="JF336231" begin="0" fromJunction="J4" toJunction="J5" end="60" vehsPerHour="2.2344266708886407" departLane="free"/>
  <flow id="JF336232" begin="0" fromJunction="J6" toJunction="J4" end="60" vehsPerHour="23.670319941751245" departLane="free"/>
  <flow id="JF336233" begin="0" fromJunction="J6" toJunction="J7" end="60" vehsPerHour="56.70838301455755" departLane="free"/>
  <flow id="JF336234" begin="0" fromJunction="J6" toJunction="J5" end="60" vehsPerHour="65.26220520138016" departLane="free"/>
  <flow id="JF336235" begin="0" fromJunction="J7" toJunction="J4" end="60" vehsPerHour="56.78537712001539" departLane="free"/>
  <flow id="JF336236" begin="0" fromJunction="J7" toJunction="J6" end="60" vehsPerHour="38.00532189710797" departLane="free"/>
  <flow id="JF336237" begin="0" fromJunction="J7" toJunction="J5" end="60" vehsPerHour="35.24884099062307" departLane="free"/>
  <flow id="JF336238" begin="0" fromJunction="J5" toJunction="J4" end="60" vehsPerHour="63.9806353337091" departLane="free"/>
  <flow id="JF336239" begin="0" fromJunction="J5" toJunction="J6" end="60" vehsPerHour="21.53642598146018" departLane="free"/>
  <flow id="JF336240" begin="0" fromJunction="J5" toJunction="J7" end="60" vehsPerHour="61.92822325847876" departLane="free"/>
  <flow id="JF336241" begin="0" fromJunction="J4" toJunction="J0" end="60" vehsPerHour="3.703130354910528" departLane="free"/>
  <flow id="JF336242" begin="0" fromJunction="J4" toJunction="J3" end="60" vehsPerHour="56.62712344469082" departLane="free"/>
  <flow id="JF336243" begin="0" fromJunction="J6" toJunction="J0" end="60" vehsPerHour="6.494143169480357" departLane="free"/>
  <flow id="JF336244" begin="0" fromJunction="J6" toJunction="J3" end="60" vehsPerHour="57.07631662445941" departLane="free"/>
  <flow id="JF336245" begin="0" fromJunction="J7" toJunction="J0" end="60" vehsPerHour="63.872954168936324" departLane="free"/>
  <flow id="JF336246" begin="0" fromJunction="J7" toJunction="J3" end="60" vehsPerHour="66.01916913794136" departLane="free"/>
  <flow id="JF336247" begin="0" fromJunction="J5" toJunction="J0" end="60" vehsPerHour="44.08797491984156" departLane="free"/>
  <flow id="JF336248" begin="0" fromJunction="J5" toJunction="J3" end="60" vehsPerHour="6.0549404167961605" departLane="free"/>
  <flow id="JF336249" begin="60" fromJunction="J0" toJunction="J3" end="120" vehsPerHour="547.0605780102769" departLane="free"/>
  <flow id="JF336250" begin="60" fromJunction="J3" toJunction="J0" end="120" vehsPerHour="86.72984073589875" departLane="free"/>
  <flow id="JF336251" begin="60" fromJunction="J0" toJunction="J4" end="120" vehsPerHour="43.9674313712107" departLane="free"/>
  <flow id="JF336252" begin="60" fromJunction="J0" toJunction="J6" end="120" vehsPerHour="132.94812443170358" departLane="free"/>
  <flow id="JF336253" begin="60" fromJunction="J0" toJunction="J7" end="120" vehsPerHour="113.8777011211239" departLane="free"/>
  <flow id="JF336254" begin="60" fromJunction="J0" toJunction="J5" end="120" vehsPerHour="16.481450493786657" departLane="free"/>
  <flow id="JF336255" begin="60" fromJunction="J3" toJunction="J4" end="120" vehsPerHour="16.918469015162465" departLane="free"/>
  <flow id="JF336256" begin="60" fromJunction="J3" toJunction="J6" end="120" vehsPerHour="27.46402357381662" departLane="free"/>
  <flow id="JF336257" begin="60" fromJunction="J3" toJunction="J7" end="120" vehsPerHour="114.1200822905024" departLane="free"/>
  <flow id="JF336258" begin="60" fromJunction="J3" toJunction="J5" end="120" vehsPerHour="114.37826570100607" departLane="free"/>
  <flow id="JF336259" begin="120" fromJunction="J0" toJunction="J3" end="180" vehsPerHour="87.72769836236998" departLane="free"/>
  <flow id="JF336260" begin="120" fromJunction="J3" toJunction="J0" end="180" vehsPerHour="334.2036974863311" departLane="free"/>
  <flow id="JF336261" begin="120" fromJunction="J0" toJunction="J4" end="180" vehsPerHour="19.096821126497808" departLane="free"/>
  <flow id="JF336262" begin="120" fromJunction="J0" toJunction="J6" end="180" vehsPerHour="128.59378502379283" departLane="free"/>
  <flow id="JF336263" begin="120" fromJunction="J0" toJunction="J7" end="180" vehsPerHour="115.46175128789366" departLane="free"/>
  <flow id="JF336264" begin="120" fromJunction="J0" toJunction="J5" end="180" vehsPerHour="119.16793127218958" departLane="free"/>
  <flow id="JF336265" begin="120" fromJunction="J3" toJunction="J4" end="180" vehsPerHour="50.35051942672726" departLane="free"/>
  <flow id="JF336266" begin="120" fromJunction="J3" toJunction="J6" end="180" vehsPerHour="20.08037237688766" departLane="free"/>
  <flow id="JF336267" begin="120" fromJunction="J3" toJunction="J7" end="180" vehsPerHour="123.36983792815657" departLane="free"/>
  <flow id="JF336268" begin="120" fromJunction="J3" toJunction="J5" end="180" vehsPerHour="8.872826937091027" departLane="free"/>
  <flow id="JF336269" begin="180" fromJunction="J0" toJunction="J3" end="240" vehsPerHour="338.04209999849206" departLane="free"/>
  <flow id="JF336270" begin="180" fromJunction="J3" toJunction="J0" end="240" vehsPerHour="315.80989003527077" departLane="free"/>
  <flow id="JF336271" begin="180" fromJunction="J0" toJunction="J4" end="240" vehsPerHour="112.31943150286027" departLane="free"/>
  <flow id="JF336272" begin="180" fromJunction="J0" toJunction="J6" end="240" vehsPerHour="118.87892957400517" departLane="free"/>
  <flow id="JF336273" begin="180" fromJunction="J0" toJunction="J7" end="240" vehsPerHour="134.07268633983082" departLane="free"/>
  <flow id="JF336274" begin="180" fromJunction="J0" toJunction="J5" end="240" vehsPerHour="107.35015630153312" departLane="free"/>
  <flow id="JF336275" begin="180" fromJunction="J3" toJunction="J4" end="240" vehsPerHour="114.8683908708125" departLane="free"/>
  <flow id="JF336276" begin="180" fromJunction="J3" toJunction="J6" end="240" vehsPerHour="90.64496257642335" departLane="free"/>
  <flow id="JF336277" begin="180" fromJunction="J3" toJunction="J7" end="240" vehsPerHour="2.807287736347702" departLane="free"/>
  <flow id="JF336278" begin="180" fromJunction="J3" toJunction="J5" end="240" vehsPerHour="107.86191506673471" departLane="free"/>
  <flow id="JF336279" begin="180" fromJunction="J4" toJunction="J6" end="240" vehsPerHour="53.064755590813874" departLane="free"/>
  <flow id="JF336280" begin="180" fromJunction="J4" toJunction="J7" end="240" vehsPerHour="41.93561016921901" departLane="free"/>
  <flow id="JF336281" begin="180" fromJunction="J4" toJunction="J5" end="240" vehsPerHour="67.78272545785958" departLane="free"/>
  <flow id="JF336282" begin="180" fromJunction="J6" toJunction="J4" end="240" vehsPerHour="48.940936368184296" departLane="free"/>
  <flow id="JF336283" begin="180" fromJunction="J6" toJunction="J7" end="240" vehsPerHour="35.65704490438411" departLane="free"/>
  <flow id="JF336284" begin="180" fromJunction="J6" toJunction="J5" end="240" vehsPerHour="41.23589178061878" departLane="free"/>
  <flow id="JF336285" begin="180" fromJunction="J7" toJunction="J4" end="240" vehsPerHour="41.30623180354308" departLane="free"/>
  <flow id="JF336286" begin="180" fromJunction="J7" toJunction="J6" end="240" vehsPerHour="67.7889350417483" departLane="free"/>
  <flow id="JF336287" begin="180" fromJunction="J7" toJunction="J5" end="240" vehsPerHour="26.14100510340462" departLane="free"/>
  <flow id="JF336288" begin="180" fromJunction="J5" toJunction="J4" end="240" vehsPerHour="33.08312452297541" departLane="free"/>
  <flow id="JF336289" begin="180" fromJunction="J5" toJunction="J6" end="240" vehsPerHour="55.16869746849047" departLane="free"/>
  <flow id="JF336290" begin="180" fromJunction="J5" toJunction="J7" end="240" vehsPerHour="65.64445402989956" departLane="free"/>
  <flow id="JF336291" begin="180" fromJunction="J4" toJunction="J0" end="240" vehsPerHour="2.0768536129551234" departLane="free"/>
  <flow id="JF336292" begin="180" fromJunction="J4" toJunction="J3" end="240" vehsPerHour="6.859894734608186" departLane="free"/>
  <flow id="JF336293" begin="180" fromJunction="J6" toJunction="J0" end="240" vehsPerHour="12.713514406220387" departLane="free"/>
  <flow id="JF336294" begin="180" fromJunction="J6" toJunction="J3" end="240" vehsPerHour="58.74435492085368" departLane="free"/>
  <flow id="JF336295" begin="180" fromJunction="J7" toJunction="J0" end="240" vehsPerHour="56.241311021692574" departLane="free"/>
  <flow id="JF336296" begin="180" fromJunction="J7" toJunction="J3" end="240" vehsPerHour="43.84565772999364" departLane="free"/>
  <flow id="JF336297" begin="180" fromJunction="J5" toJunction="J0" end="240" vehsPerHour="66.21889312514185" departLane="free"/>
  <flow id="JF336298" begin="180" fromJunction="J5" toJunction="J3" end="240" vehsPerHour="1.1424308468217104" departLane="free"/>
  <flow id="JF336299" begin="240" fromJunction="J0" toJunction="J3" end="300" vehsPerHour="33.58749811163655" departLane="free"/>
  <flow id="JF336300" begin="240" fromJunction="J3" toJunction="J0" end="300" vehsPerHour="431.2805500524978" departLane="free"/>
  <flow id="JF336301" begin="240" fromJunction="J0" toJunction="J4" end="300" vehsPerHour="42.833397872771265" departLane="free"/>
  <flow id="JF336302" begin="240" fromJunction="J0" toJunction="J6" end="300" vehsPerHour="20.738504190252826" departLane="free"/>
  <flow id="JF336303" begin="240" fromJunction="J0" toJunction="J7" end="300" vehsPerHour="29.82075188124341" departLane="free"/>
  <flow id="JF336304" begin="240" fromJunction="J0" toJunction="J5" end="300" vehsPerHour="128.26601823679846" departLane="free"/>
  <flow id="JF336305" begin="240" fromJunction="J3" toJunction="J4" end="300" vehsPerHour="73.31441505615162" departLane="free"/>
  <flow id="JF336306" begin="240" fromJunction="J3" toJunction="J6" end="300" vehsPerHour="39.636551009501055" departLane="free"/>
  <flow id="JF336307" begin="240" fromJunction="J3" toJunction="J7" end="300" vehsPerHour="69.75495908918862" departLane="free"/>
  <flow id="JF336308" begin="240" fromJunction="J3" toJunction="J5" end="300" vehsPerHour="94.39802073398798" departLane="free"/>
  <flow id="JF336309" begin="240" fromJunction="J4" toJunction="J6" end="300" vehsPerHour="40.04328851488243" departLane="free"/>
  <flow id="JF336310" begin="240" fromJunction="J4" toJunction="J7" end="300" vehsPerHour="0.9668076240630172" departLane="free"/>
  <flow id="JF336311" begin="240" fromJunction="J4" toJunction="J5" end="300" vehsPerHour="52.94087366249092" departLane="free"/>
  <flow id="JF336312" begin="240" fromJunction="J6" toJunction="J4" end="300" vehsPerHour="29.843043591903655" departLane="free"/>
  <flow id="JF336313" begin="240" fromJunction="J6" toJunction="J7" end="300" vehsPerHour="28.862657199776375" departLane="free"/>
  <flow id="JF336314" begin="240" fromJunction="J6" toJunction="J5" end="300" vehsPerHour="37.05942470116874" departLane="free"/>
  <flow id="JF336315" begin="240" fromJunction="J7" toJunction="J4" end="300" vehsPerHour="38.71396224059446" departLane="free"/>
  <flow id="JF336316" begin="240" fromJunction="J7" toJunction="J6" end="300" vehsPerHour="55.61740384672662" departLane="free"/>
  <flow id="JF336317" begin="240" fromJunction="J7" toJunction="J5" end="300" vehsPerHour="10.042625114856063" departLane="free"/>
  <flow id="JF336318" begin="240" fromJunction="J5" toJunction="J4" end="300" vehsPerHour="66.05649771979621" departLane="free"/>
  <flow id="JF336319" begin="240" fromJunction="J5" toJunction="J6" end="300" vehsPerHour="60.659776238838234" departLane="free"/>
  <flow id="JF336320" begin="240" fromJunction="J5" toJunction="J7" end="300" vehsPerHour="61.21302504233581" departLane="free"/>
  <flow id="JF336321" begin="240" fromJunction="J4" toJunction="J0" end="300" vehsPerHour="56.025301681550424" departLane="free"/>
  <flow id="JF336322" begin="240" fromJunction="J4" toJunction="J3" end="300" vehsPerHour="29.064290783561084" departLane="free"/>
  <flow id="JF336323" begin="240" fromJunction="J6" toJunction="J0" end="300" vehsPerHour="45.97586344694529" departLane="free"/>
  <flow id="JF336324" begin="240" fromJunction="J6" toJunction="J3" end="300" vehsPerHour="49.71063359155534" departLane="free"/>
  <flow id="JF336325" begin="240" fromJunction="J7" toJunction="J0" end="300" vehsPerHour="62.531134255721994" departLane="free"/>
  <flow id="JF336326" begin="240" fromJunction="J7" toJunction="J3" end="300" vehsPerHour="35.24457894719834" departLane="free"/>
  <flow id="JF336327" begin="240" fromJunction="J5" toJunction="J0" end="300" vehsPerHour="46.62973605630748" departLane="free"/>
  <flow id="JF336328" begin="240" fromJunction="J5" toJunction="J3" end="300" vehsPerHour="11.401446887211284" departLane="free"/>
  <flow id="JF336329" begin="300" fromJunction="J0" toJunction="J3" end="360" vehsPerHour="149.2405460517541" departLane="free"/>
  <flow id="JF336330" begin="300" fromJunction="J3" toJunction="J0" end="360" vehsPerHour="21.714291290440485" departLane="free"/>
  <flow id="JF336331" begin="300" fromJunction="J0" toJunction="J4" end="360" vehsPerHour="18.85731539724202" departLane="free"/>
  <flow id="JF336332" begin="300" fromJunction="J0" toJunction="J6" end="360" vehsPerHour="107.94176970697214" departLane="free"/>
  <flow id="JF336333" begin="300" fromJunction="J0" toJunction="J7" end="360" vehsPerHour="58.879569939932466" departLane="free"/>
  <flow id="JF336334" begin="300" fromJunction="J0" toJunction="J5" end="360" vehsPerHour="60.2599312511211" departLane="free"/>
  <flow id="JF336335" begin="300" fromJunction="J3" toJunction="J4" end="360" vehsPerHour="41.26124677886722" departLane="free"/>
  <flow id="JF336336" begin="300" fromJunction="J3" toJunction="J6" end="360" vehsPerHour="99.80985560997591" departLane="free"/>
  <flow id="JF336337" begin="300" fromJunction="J3" toJunction="J7" end="360" vehsPerHour="42.6216982095724" departLane="free"/>
  <flow id="JF336338" begin="300" fromJunction="J3" toJunction="J5" end="360" vehsPerHour="78.710235987098" departLane="free"/>
  <flow id="JF336339" begin="300" fromJunction="J4" toJunction="J6" end="360" vehsPerHour="26.768243121097044" departLane="free"/>
  <flow id="JF336340" begin="300" fromJunction="J4" toJunction="J7" end="360" vehsPerHour="15.232138145366795" departLane="free"/>
  <flow id="JF336341" begin="300" fromJunction="J4" toJunction="J5" end="360" vehsPerHour="53.12199192828687" departLane="free"/>
  <flow id="JF336342" begin="300" fromJunction="J6" toJunction="J4" end="360" vehsPerHour="37.756586074014" departLane="free"/>
  <flow id="JF336343" begin="300" fromJunction="J6" toJunction="J7" end="360" vehsPerHour="61.760507828834456" departLane="free"/>
  <flow id="JF336344" begin="300" fromJunction="J6" toJunction="J5" end="360" vehsPerHour="33.96554953012388" departLane="free"/>
  <flow id="JF336345" begin="300" fromJunction="J7" toJunction="J4" end="360" vehsPerHour="1.8716757004443123" departLane="free"/>
  <flow id="JF336346" begin="300" fromJunction="J7" toJunction="J6" end="360" vehsPerHour="19.80632851913541" departLane="free"/>
  <flow id="JF336347" begin="300" fromJunction="J7" toJunction="J5" end="360" vehsPerHour="20.830735257225847" departLane="free"/>
  <flow id="JF336348" begin="300" fromJunction="J5" toJunction="J4" end="360" vehsPerHour="25.77639184456668" departLane="free"/>
  <flow id="JF336349" begin="300" fromJunction="J5" toJunction="J6" end="360" vehsPerHour="42.04441524154401" departLane="free"/>
  <flow id="JF336350" begin="300" fromJunction="J5" toJunction="J7" end="360" vehsPerHour="28.45193002834517" departLane="free"/>
  <flow id="JF336351" begin="300" fromJunction="J4" toJunction="J0" end="360" vehsPerHour="47.15809096937148" departLane="free"/>
  <flow id="JF336352" begin="300" fromJunction="J4" toJunction="J3" end="360" vehsPerHour="11.508831029587645" departLane="free"/>
  <flow id="JF336353" begin="300" fromJunction="J6" toJunction="J0" end="360" vehsPerHour="46.06262668311673" departLane="free"/>
  <flow id="JF336354" begin="300" fromJunction="J6" toJunction="J3" end="360" vehsPerHour="9.861936678458346" departLane="free"/>
  <flow id="JF336355" begin="300" fromJunction="J7" toJunction="J0" end="360" vehsPerHour="13.138791178585821" departLane="free"/>
  <flow id="JF336356" begin="300" fromJunction="J7" toJunction="J3" end="360" vehsPerHour="30.5219552293724" departLane="free"/>
  <flow id="JF336357" begin="300" fromJunction="J5" toJunction="J0" end="360" vehsPerHour="52.68593881364789" departLane="free"/>
  <flow id="JF336358" begin="300" fromJunction="J5" toJunction="J3" end="360" vehsPerHour="39.58293794492716" departLane="free"/>
  <flow id="JF336359" begin="360" fromJunction="J0" toJunction="J3" end="420" vehsPerHour="483.93858414212235" departLane="free"/>
  <flow id="JF336360" begin="360" fromJunction="J3" toJunction="J0" end="420" vehsPerHour="24.184398837440916" departLane="free"/>
  <flow id="JF336361" begin="360" fromJunction="J0" toJunction="J4" end="420" vehsPerHour="55.11155901618561" departLane="free"/>
  <flow id="JF336362" begin="360" fromJunction="J0" toJunction="J6" end="420" vehsPerHour="80.9871947676762" departLane="free"/>
  <flow id="JF336363" begin="360" fromJunction="J0" toJunction="J7" end="420" vehsPerHour="7.264969963989872" departLane="free"/>
  <flow id="JF336364" begin="360" fromJunction="J0" toJunction="J5" end="420" vehsPerHour="63.36797876635883" departLane="free"/>
  <flow id="JF336365" begin="360" fromJunction="J3" toJunction="J4" end="420" vehsPerHour="87.04200030296013" departLane="free"/>
  <flow id="JF336366" begin="360" fromJunction="J3" toJunction="J6" end="420" vehsPerHour="137.0526311348856" departLane="free"/>
  <flow id="JF336367" begin="360" fromJunction="J3" toJunction="J7" end="420" vehsPerHour="15.3660393770517" departLane="free"/>
  <flow id="JF336368" begin="360" fromJunction="J3" toJunction="J5" end="420" vehsPerHour="116.0425273653006" departLane="free"/>
  <flow id="JF336369" begin="420" fromJunction="J0" toJunction="J3" end="480" vehsPerHour="365.59038007237" departLane="free"/>
  <flow id="JF336370" begin="420" fromJunction="J3" toJunction="J0" end="480" vehsPerHour="29.727966813835906" departLane="free"/>
  <flow id="JF336371" begin="420" fromJunction="J0" toJunction="J4" end="480" vehsPerHour="63.78752515314856" departLane="free"/>
  <flow id="JF336372" begin="420" fromJunction="J0" toJunction="J6" end="480" vehsPerHour="53.900695981292884" departLane="free"/>
  <flow id="JF336373" begin="420" fromJunction="J0" toJunction="J7" end="480" vehsPerHour="59.00876981600789" departLane="free"/>
  <flow id="JF336374" begin="420" fromJunction="J0" toJunction="J5" end="480" vehsPerHour="100.0617791684378" departLane="free"/>
  <flow id="JF336375" begin="420" fromJunction="J3" toJunction="J4" end="480" vehsPerHour="61.67344520398597" departLane="free"/>
  <flow id="JF336376" begin="420" fromJunction="J3" toJunction="J6" end="480" vehsPerHour="15.635479846891027" departLane="free"/>
  <flow id="JF336377" begin="420" fromJunction="J3" toJunction="J7" end="480" vehsPerHour="65.17822214019365" departLane="free"/>
  <flow id="JF336378" begin="420" fromJunction="J3" toJunction="J5" end="480" vehsPerHour="75.1019961314537" departLane="free"/>
  <flow id="JF336379" begin="420" fromJunction="J4" toJunction="J6" end="480" vehsPerHour="11.477705786889945" departLane="free"/>
  <flow id="JF336380" begin="420" fromJunction="J4" toJunction="J7" end="480" vehsPerHour="57.3910279730252" departLane="free"/>
  <flow id="JF336381" begin="420" fromJunction="J4" toJunction="J5" end="480" vehsPerHour="27.44373060533359" departLane="free"/>
  <flow id="JF336382" begin="420" fromJunction="J6" toJunction="J4" end="480" vehsPerHour="6.598316673200592" departLane="free"/>
  <flow id="JF336383" begin="420" fromJunction="J6" toJunction="J7" end="480" vehsPerHour="25.963366105345617" departLane="free"/>
  <flow id="JF336384" begin="420" fromJunction="J6" toJunction="J5" end="480" vehsPerHour="55.95646642261455" departLane="free"/>
  <flow id="JF336385" begin="420" fromJunction="J7" toJunction="J4" end="480" vehsPerHour="6.054370193720044" departLane="free"/>
  <flow id="JF336386" begin="420" fromJunction="J7" toJunction="J6" end="480" vehsPerHour="44.8649371720391" departLane="free"/>
  <flow id="JF336387" begin="420" fromJunction="J7" toJunction="J5" end="480" vehsPerHour="66.41866989678068" departLane="free"/>
  <flow id="JF336388" begin="420" fromJunction="J5" toJunction="J4" end="480" vehsPerHour="60.33541383095285" departLane="free"/>
  <flow id="JF336389" begin="420" fromJunction="J5" toJunction="J6" end="480" vehsPerHour="12.961452952855502" departLane="free"/>
  <flow id="JF336390" begin="420" fromJunction="J5" toJunction="J7" end="480" vehsPerHour="16.104736888736827" departLane="free"/>
  <flow id="JF336391" begin="420" fromJunction="J4" toJunction="J0" end="480" vehsPerHour="16.98468636864498" departLane="free"/>
  <flow id="JF336392" begin="420" fromJunction="J4" toJunction="J3" end="480" vehsPerHour="60.85074686603493" departLane="free"/>
  <flow id="JF336393" begin="420" fromJunction="J6" toJunction="J0" end="480" vehsPerHour="12.533051777089153" departLane="free"/>
  <flow id="JF336394" begin="420" fromJunction="J6" toJunction="J3" end="480" vehsPerHour="12.637643917832262" departLane="free"/>
  <flow id="JF336395" begin="420" fromJunction="J7" toJunction="J0" end="480" vehsPerHour="66.55631137263032" departLane="free"/>
  <flow id="JF336396" begin="420" fromJunction="J7" toJunction="J3" end="480" vehsPerHour="56.42381182613231" departLane="free"/>
  <flow id="JF336397" begin="420" fromJunction="J5" toJunction="J0" end="480" vehsPerHour="56.89919771749299" departLane="free"/>
  <flow id="JF336398" begin="420" fromJunction="J5" toJunction="J3" end="480" vehsPerHour="13.74539113939912" departLane="free"/>
  <flow id="JF336399" begin="480" fromJunction="J0" toJunction="J3" end="540" vehsPerHour="317.15069826986286" departLane="free"/>
  <flow id="JF336400" begin="480" fromJunction="J3" toJunction="J0" end="540" vehsPerHour="456.6594163220924" departLane="free"/>
  <flow id="JF336401" begin="480" fromJunction="J0" toJunction="J4" end="540" vehsPerHour="51.112304534578676" departLane="free"/>
  <flow id="JF336402" begin="480" fromJunction="J0" toJunction="J6" end="540" vehsPerHour="108.37865411122293" departLane="free"/>
  <flow id="JF336403" begin="480" fromJunction="J0" toJunction="J7" end="540" vehsPerHour="110.69435850511105" departLane="free"/>
  <flow id="JF336404" begin="480" fromJunction="J0" toJunction="J5" end="540" vehsPerHour="73.52935373520909" departLane="free"/>
  <flow id="JF336405" begin="480" fromJunction="J3" toJunction="J4" end="540" vehsPerHour="15.827940505350007" departLane="free"/>
  <flow id="JF336406" begin="480" fromJunction="J3" toJunction="J6" end="540" vehsPerHour="121.1985308596495" departLane="free"/>
  <flow id="JF336407" begin="480" fromJunction="J3" toJunction="J7" end="540" vehsPerHour="0.42753194815045137" departLane="free"/>
  <flow id="JF336408" begin="480" fromJunction="J3" toJunction="J5" end="540" vehsPerHour="127.97380315498985" departLane="free"/>
  <flow id="JF336409" begin="480" fromJunction="J4" toJunction="J6" end="540" vehsPerHour="65.87852032140448" departLane="free"/>
  <flow id="JF336410" begin="480" fromJunction="J4" toJunction="J7" end="540" vehsPerHour="42.70882161097524" departLane="free"/>
  <flow id="JF336411" begin="480" fromJunction="J4" toJunction="J5" end="540" vehsPerHour="44.58684519641675" departLane="free"/>
  <flow id="JF336412" begin="480" fromJunction="J6" toJunction="J4" end="540" vehsPerHour="25.266561317114203" departLane="free"/>
  <flow id="JF336413" begin="480" fromJunction="J6" toJunction="J7" end="540" vehsPerHour="48.6116800831812" departLane="free"/>
  <flow id="JF336414" begin="480" fromJunction="J6" toJunction="J5" end="540" vehsPerHour="58.95413442606334" departLane="free"/>
  <flow id="JF336415" begin="480" fromJunction="J7" toJunction="J4" end="540" vehsPerHour="52.71272860704781" departLane="free"/>
  <flow id="JF336416" begin="480" fromJunction="J7" toJunction="J6" end="540" vehsPerHour="46.01556551079661" departLane="free"/>
  <flow id="JF336417" begin="480" fromJunction="J7" toJunction="J5" end="540" vehsPerHour="63.79417243950073" departLane="free"/>
  <flow id="JF336418" begin="480" fromJunction="J5" toJunction="J4" end="540" vehsPerHour="37.36737473489901" departLane="free"/>
  <flow id="JF336419" begin="480" fromJunction="J5" toJunction="J6" end="540" vehsPerHour="68.41150840080437" departLane="free"/>
  <flow id="JF336420" begin="480" fromJunction="J5" toJunction="J7" end="540" vehsPerHour="15.459943701756576" departLane="free"/>
  <flow id="JF336421" begin="480" fromJunction="J4" toJunction="J0" end="540" vehsPerHour="40.93590858161708" departLane="free"/>
  <flow id="JF336422" begin="480" fromJunction="J4" toJunction="J3" end="540" vehsPerHour="22.62935084929283" departLane="free"/>
  <flow id="JF336423" begin="480" fromJunction="J6" toJunction="J0" end="540" vehsPerHour="6.834525438372684" departLane="free"/>
  <flow id="JF336424" begin="480" fromJunction="J6" toJunction="J3" end="540" vehsPerHour="43.94379793029034" departLane="free"/>
  <flow id="JF336425" begin="480" fromJunction="J7" toJunction="J0" end="540" vehsPerHour="13.015359954347893" departLane="free"/>
  <flow id="JF336426" begin="480" fromJunction="J7" toJunction="J3" end="540" vehsPerHour="9.707051386574665" departLane="free"/>
  <flow id="JF336427" begin="480" fromJunction="J5" toJunction="J0" end="540" vehsPerHour="38.12511206558733" departLane="free"/>
  <flow id="JF336428" begin="480" fromJunction="J5" toJunction="J3" end="540" vehsPerHour="41.114367137945926" departLane="free"/>
  <flow id="JF336429" begin="540" fromJunction="J0" toJunction="J3" end="600" vehsPerHour="36.50576965147613" departLane="free"/>
  <flow id="JF336430" begin="540" fromJunction="J3" toJunction="J0" end="600" vehsPerHour="304.76331201549766" departLane="free"/>
  <flow id="JF336431" begin="540" fromJunction="J0" toJunction="J4" end="600" vehsPerHour="25.042661878158096" departLane="free"/>
  <flow id="JF336432" begin="540" fromJunction="J0" toJunction="J6" end="600" vehsPerHour="8.136606835902992" departLane="free"/>
  <flow id="JF336433" begin="540" fromJunction="J0" toJunction="J7" end="600" vehsPerHour="94.80777848643258" departLane="free"/>
  <flow id="JF336434" begin="540" fromJunction="J0" toJunction="J5" end="600" vehsPerHour="135.57114005088468" departLane="free"/>
  <flow id="JF336435" begin="540" fromJunction="J3" toJunction="J4" end="600" vehsPerHour="85.06263978109475" departLane="free"/>
  <flow id="JF336436" begin="540" fromJunction="J3" toJunction="J6" end="600" vehsPerHour="116.57597178249688" departLane="free"/>
  <flow id="JF336437" begin="540" fromJunction="J3" toJunction="J7" end="600" vehsPerHour="107.99050482676834" departLane="free"/>
  <flow id="JF336438" begin="540" fromJunction="J3" toJunction="J5" end="600" vehsPerHour="115.54245632687581" departLane="free"/>
  <flow id="JF336439" begin="540" fromJunction="J4" toJunction="J6" end="600" vehsPerHour="22.29727731519063" departLane="free"/>
  <flow id="JF336440" begin="540" fromJunction="J4" toJunction="J7" end="600" vehsPerHour="49.637952821000304" departLane="free"/>
  <flow id="JF336441" begin="540" fromJunction="J4" toJunction="J5" end="600" vehsPerHour="55.113966645398314" departLane="free"/>
  <flow id="JF336442" begin="540" fromJunction="J6" toJunction="J4" end="600" vehsPerHour="15.140679102973317" departLane="free"/>
  <flow id="JF336443" begin="540" fromJunction="J6" toJunction="J7" end="600" vehsPerHour="65.21639429691888" departLane="free"/>
  <flow id="JF336444" begin="540" fromJunction="J6" toJunction="J5" end="600" vehsPerHour="36.24840120561866" departLane="free"/>
  <flow id="JF336445" begin="540" fromJunction="J7" toJunction="J4" end="600" vehsPerHour="54.53100374971244" departLane="free"/>
  <flow id="JF336446" begin="540" fromJunction="J7" toJunction="J6" end="600" vehsPerHour="18.681669991003215" departLane="free"/>
  <flow id="JF336447" begin="540" fromJunction="J7" toJunction="J5" end="600" vehsPerHour="8.775098997034227" departLane="free"/>