<?xml version="1.0" encoding="UTF-8"?>
<routes xmlns:xsi="http://www.w3.org/2001/XMLSchema-instance" xsi:noNamespaceSchemaLocation="http://sumo.dlr.de/xsd/routes_file.xsd">
  <flow id="JF426884" begin="0" fromJunction="J0" toJunction="J3" end="60" vehsPerHour="405.27123025993035" departLane="free"/>
  <flow id="JF426885" begin="0" fromJunction="J0" toJunction="J4" end="60" vehsPerHour="539.1761694973729" departLane="free"/>
  <flow id="JF426886" begin="0" fromJunction="J0" toJunction="J6" end="60" vehsPerHour="499.0912235450322" departLane="free"/>
  <flow id="JF426887" begin="0" fromJunction="J0" toJunction="J7" end="60" vehsPerHour="498.0667525847678" departLane="free"/>
  <flow id="JF426888" begin="0" fromJunction="J3" toJunction="J0" end="60" vehsPerHour="407.00129114417706" departLane="free"/>
  <flow id="JF426889" begin="0" fromJunction="J3" toJunction="J4" end="60" vehsPerHour="282.7643542180617" departLane="free"/>
  <flow id="JF426890" begin="0" fromJunction="J3" toJunction="J5" end="60" vehsPerHour="434.0202116703309" departLane="free"/>
  <flow id="JF426891" begin="0" fromJunction="J3" toJunction="J6" end="60" vehsPerHour="292.27128066339253" departLane="free"/>
  <flow id="JF426892" begin="0" fromJunction="J3" toJunction="J7" end="60" vehsPerHour="256.28651438853103" departLane="free"/>
  <flow id="JF426893" begin="0" fromJunction="J4" toJunction="J0" end="60" vehsPerHour="53.39223528721044" departLane="free"/>
  <flow id="JF426894" begin="0" fromJunction="J4" toJunction="J5" end="60" vehsPerHour="90.77292087784002" departLane="free"/>
  <flow id="JF426895" begin="0" fromJunction="J4" toJunction="J6" end="60" vehsPerHour="248.64624961134726" departLane="free"/>
  <flow id="JF426896" begin="0" fromJunction="J4" toJunction="J7" end="60" vehsPerHour="175.29233398011004" departLane="free"/>
  <flow id="JF426897" begin="0" fromJunction="J5" toJunction="J0" end="60" vehsPerHour="249.1719000652285" departLane="free"/>
  <flow id="JF426898" begin="0" fromJunction="J5" toJunction="J3" end="60" vehsPerHour="188.19607858087426" departLane="free"/>
  <flow id="JF426899" begin="0" fromJunction="J5" toJunction="J4" end="60" vehsPerHour="272.12875215481" departLane="free"/>
  <flow id="JF426900" begin="0" fromJunction="J5" toJunction="J6" end="60" vehsPerHour="72.00288914678183" departLane="free"/>
  <flow id="JF426901" begin="0" fromJunction="J5" toJunction="J7" end="60" vehsPerHour="75.74760404848516" departLane="free"/>
  <flow id="JF426902" begin="0" fromJunction="J6" toJunction="J0" end="60" vehsPerHour="63.2198552686808" departLane="free"/>
  <flow id="JF426903" begin="0" fromJunction="J7" toJunction="J0" end="60" vehsPerHour="70.98109370064866" departLane="free"/>
  <flow id="JF426904" begin="0" fromJunction="J7" toJunction="J3" end="60" vehsPerHour="209.5495402621682" departLane="free"/>
  <flow id="JF426905" begin="0" fromJunction="J7" toJunction="J4" end="60" vehsPerHour="206.38946335737617" departLane="free"/>
  <flow id="JF426906" begin="0" fromJunction="J7" toJunction="J5" end="60" vehsPerHour="13.347768793174371" departLane="free"/>
  <flow id="JF426907" begin="0" fromJunction="J7" toJunction="J6" end="60" vehsPerHour="166.3975342422716" departLane="free"/>
  <flow id="JF426908" begin="60" fromJunction="J0" toJunction="J3" end="120" vehsPerHour="46.191810006429414" departLane="free"/>
  <flow id="JF426909" begin="60" fromJunction="J0" toJunction="J4" end="120" vehsPerHour="318.0828656412795" departLane="free"/>
  <flow id="JF426910" begin="60" fromJunction="J0" toJunction="J6" end="120" vehsPerHour="276.03420314091466" departLane="free"/>
  <flow id="JF426911" begin="60" fromJunction="J0" toJunction="J7" end="120" vehsPerHour="500.3753652557294" departLane="free"/>
  <flow id="JF426912" begin="60" fromJunction="J3" toJunction="J4" end="120" vehsPerHour="410.7407865647666" departLane="free"/>
  <flow id="JF426913" begin="60" fromJunction="J3" toJunction="J5" end="120" vehsPerHour="225.31741822054207" departLane="free"/>
  <flow id="JF426914" begin="60" fromJunction="J3" toJunction="J7" end="120" vehsPerHour="205.00737072875387" departLane="free"/>
  <flow id="JF426915" begin="60" fromJunction="J4" toJunction="J0" end="120" vehsPerHour="164.60394095260236" departLane="free"/>
  <flow id="JF426916" begin="60" fromJunction="J4" toJunction="J3" end="120" vehsPerHour="96.42266608693166" departLane="free"/>
  <flow id="JF426917" begin="60" fromJunction="J4" toJunction="J6" end="120" vehsPerHour="258.14857114588216" departLane="free"/>
  <flow id="JF426918" begin="60" fromJunction="J4" toJunction="J7" end="120" vehsPerHour="239.06873084556113" departLane="free"/>
  <flow id="JF426919" begin="60" fromJunction="J5" toJunction="J3" end="120" vehsPerHour="91.80513568436835" departLane="free"/>
  <flow id="JF426920" begin="60" fromJunction="J5" toJunction="J4" end="120" vehsPerHour="102.11229442156909" departLane="free"/>
  <flow id="JF426921" begin="60" fromJunction="J6" toJunction="J0" end="120" vehsPerHour="199.4368460496113" departLane="free"/>
  <flow id="JF426922" begin="60" fromJunction="J6" toJunction="J3" end="120" vehsPerHour="105.26248969710304" departLane="free"/>
  <flow id="JF426923" begin="60" fromJunction="J6" toJunction="J5" end="120" vehsPerHour="266.79794292698807" departLane="free"/>
  <flow id="JF426924" begin="60" fromJunction="J6" toJunction="J7" end="120" vehsPerHour="115.24235628810783" departLane="free"/>
  <flow id="JF426925" begin="60" fromJunction="J7" toJunction="J0" end="120" vehsPerHour="98.98059603210858" departLane="free"/>
  <flow id="JF426926" begin="60" fromJunction="J7" toJunction="J4" end="120" vehsPerHour="194.0673711357157" departLane="free"/>
  <flow id="JF426927" begin="60" fromJunction="J7" toJunction="J5" end="120" vehsPerHour="19.142417151551733" departLane="free"/>
  <flow id="JF426928" begin="60" fromJunction="J7" toJunction="J6" end="120" vehsPerHour="38.625268861238446" departLane="free"/>
  <flow id="JF426929" begin="120" fromJunction="J0" toJunction="J5" end="180" vehsPerHour="117.9328904221947" departLane="free"/>
  <flow id="JF426930" begin="120" fromJunction="J0" toJunction="J6" end="180" vehsPerHour="518.6964378558918" departLane="free"/>
  <flow id="JF426931" begin="120" fromJunction="J0" toJunction="J7" end="180" vehsPerHour="342.25571956805004" departLane="free"/>
  <flow id="JF426932" begin="120" fromJunction="J3" toJunction="J0" end="180" vehsPerHour="344.73563758716534" departLane="free"/>
  <flow id="JF426933" begin="120" fromJunction="J3" toJunction="J5" end="180" vehsPerHour="246.77106091030086" departLane="free"/>
  <flow id="JF426934" begin="120" fromJunction="J3" toJunction="J6" end="180" vehsPerHour="296.32289969348756" departLane="free"/>
  <flow id="JF426935" begin="120" fromJunction="J4" toJunction="J0" end="180" vehsPerHour="92.96310266943948" departLane="free"/>
  <flow id="JF426936" begin="120" fromJunction="J4" toJunction="J3" end="180" vehsPerHour="209.51706101693503" departLane="free"/>
  <flow id="JF426937" begin="120" fromJunction="J4" toJunction="J5" end="180" vehsPerHour="172.4249509669579" departLane="free"/>
  <flow id="JF426938" begin="120" fromJunction="J4" toJunction="J6" end="180" vehsPerHour="254.11461964452945" departLane="free"/>
  <flow id="JF426939" begin="120" fromJunction="J5" toJunction="J3" end="180" vehsPerHour="196.59745678507474" departLane="free"/>
  <flow id="JF426940" begin="120" fromJunction="J5" toJunction="J4" end="180" vehsPerHour="131.72142209189838" departLane="free"/>
  <flow id="JF426941" begin="120" fromJunction="J5" toJunction="J6" end="180" vehsPerHour="6.500610129967522" departLane="free"/>
  <flow id="JF426942" begin="120" fromJunction="J5" toJunction="J7" end="180" vehsPerHour="49.36139642345813" departLane="free"/>
  <flow id="JF426943" begin="120" fromJunction="J6" toJunction="J4" end="180" vehsPerHour="163.52296752571868" departLane="free"/>
  <flow id="JF426944" begin="120" fromJunction="J6" toJunction="J7" end="180" vehsPerHour="264.7218688479135" departLane="free"/>
  <flow id="JF426945" begin="120" fromJunction="J7" toJunction="J0" end="180" vehsPerHour="137.68836731730687" departLane="free"/>
  <flow id="JF426946" begin="120" fromJunction="J7" toJunction="J4" end="180" vehsPerHour="247.3368629048484" departLane="free"/>
  <flow id="JF426947" begin="120" fromJunction="J7" toJunction="J5" end="180" vehsPerHour="25.969889950088344" departLane="free"/>
  <flow id="JF426948" begin="180" fromJunction="J0" toJunction="J3" end="240" vehsPerHour="486.2971912166658" departLane="free"/>
  <flow id="JF426949" begin="180" fromJunction="J0" toJunction="J4" end="240" vehsPerHour="469.6912363036486" departLane="free"/>
  <flow id="JF426950" begin="180" fromJunction="J0" toJunction="J5" end="240" vehsPerHour="17.140803880399492" departLane="free"/>
  <flow id="JF426951" begin="180" fromJunction="J0" toJunction="J6" end="240" vehsPerHour="421.9367168692257" departLane="free"/>
  <flow id="JF426952" begin="180" fromJunction="J3" toJunction="J0" end="240" vehsPerHour="59.39037681716781" departLane="free"/>
  <flow id="JF426953" begin="180" fromJunction="J3" toJunction="J4" end="240" vehsPerHour="353.5440067846166" departLane="free"/>
  <flow id="JF426954" begin="180" fromJunction="J4" toJunction="J0" end="240" vehsPerHour="269.3792202592968" departLane="free"/>
  <flow id="JF426955" begin="180" fromJunction="J4" toJunction="J3" end="240" vehsPerHour="146.22237906777755" departLane="free"/>
  <flow id="JF426956" begin="180" fromJunction="J4" toJunction="J6" end="240" vehsPerHour="86.20455644564079" departLane="free"/>
  <flow id="JF426957" begin="180" fromJunction="J4" toJunction="J7" end="240" vehsPerHour="218.83865579924034" departLane="free"/>
  <flow id="JF426958" begin="180" fromJunction="J5" toJunction="J0" end="240" vehsPerHour="162.80728401653747" departLane="free"/>
  <flow id="JF426959" begin="180" fromJunction="J5" toJunction="J4" end="240" vehsPerHour="134.42092323276466" departLane="free"/>
  <flow id="JF426960" begin="180" fromJunction="J5" toJunction="J6" end="240" vehsPerHour="141.55107389914562" departLane="free"/>
  <flow id="JF426961" begin="180" fromJunction="J6" toJunction="J0" end="240" vehsPerHour="100.68619067155228" departLane="free"/>
  <flow id="JF426962" begin="180" fromJunction="J6" toJunction="J4" end="240" vehsPerHour="264.166290139203" departLane="free"/>
  <flow id="JF426963" begin="180" fromJunction="J6" toJunction="J5" end="240" vehsPerHour="102.09533579018714" departLane="free"/>
  <flow id="JF426964" begin="180" fromJunction="J7" toJunction="J4" end="240" vehsPerHour="185.10833319150953" departLane="free"/>
  <flow id="JF426965" begin="180" fromJunction="J7" toJunction="J5" end="240" vehsPerHour="260.36597621632507" departLane="free"/>
  <flow id="JF426966" begin="240" fromJunction="J0" toJunction="J3" end="300" vehsPerHour="399.0235840900755" departLane="free"/>
  <flow id="JF426967" begin="240" fromJunction="J0" toJunction="J4" end="300" vehsPerHour="18.93404950353688" departLane="free"/>
  <flow id="JF426968" begin="240" fromJunction="J0" toJunction="J5" end="300" vehsPerHour="157.96165084728963" departLane="free"/>
  <flow id="JF426969" begin="240" fromJunction="J0" toJunction="J6" end="300" vehsPerHour="209.33322310830906" departLane="free"/>
  <flow id="JF426970" begin="240" fromJunction="J0" toJunction="J7" end="300" vehsPerHour="385.96367196489007" departLane="free"/>
  <flow id="JF426971" begin="240" fromJunction="J3" toJunction="J0" end="300" vehsPerHour="250.88813996535842" departLane="free"/>
  <flow id="JF426972" begin="240" fromJunction="J3" toJunction="J4" end="300" vehsPerHour="494.3859269203441" departLane="free"/>
  <flow id="JF426973" begin="240" fromJunction="J3" toJunction="J5" end="300" vehsPerHour="456.71920178654517" departLane="free"/>
  <flow id="JF426974" begin="240" fromJunction="J3" toJunction="J6" end="300" vehsPerHour="273.88109698044406" departLane="free"/>
  <flow id="JF426975" begin="240" fromJunction="J3" toJunction="J7" end="300" vehsPerHour="532.4922094816052" departLane="free"/>
  <flow id="JF426976" begin="240" fromJunction="J4" toJunction="J0" end="300" vehsPerHour="20.93209659791305" departLane="free"/>
  <flow id="JF426977" begin="240" fromJunction="J4" toJunction="J3" end="300" vehsPerHour="269.7371940592141" departLane="free"/>
  <flow id="JF426978" begin="240" fromJunction="J4" toJunction="J5" end="300" vehsPerHour="148.14579930420004" departLane="free"/>
  <flow id="JF426979" begin="240" fromJunction="J4" toJunction="J6" end="300" vehsPerHour="73.54188936826507" departLane="free"/>
  <flow id="JF426980" begin="240" fromJunction="J4" toJunction="J7" end="300" vehsPerHour="44.91124059758252" departLane="free"/>
  <flow id="JF426981" begin="240" fromJunction="J5" toJunction="J0" end="300" vehsPerHour="184.11668412125294" departLane="free"/>
  <flow id="JF426982" begin="240" fromJunction="J5" toJunction="J3" end="300" vehsPerHour="162.90800762722014" departLane="free"/>
  <flow id="JF426983" begin="240" fromJunction="J5" toJunction="J6" end="300" vehsPerHour="17.470468770222812" departLane="free"/>
  <flow id="JF426984" begin="240" fromJunction="J5" toJunction="J7" end="300" vehsPerHour="204.30230589978927" departLane="free"/>
  <flow id="JF426985" begin="240" fromJunction="J6" toJunction="J4" end="300" vehsPerHour="154.3801626212348" departLane="free"/>
  <flow id="JF426986" begin="240" fromJunction="J6" toJunction="J5" end="300" vehsPerHour="209.68501284982406" departLane="free"/>
  <flow id="JF426987" begin="240" fromJunction="J6" toJunction="J7" end="300" vehsPerHour="180.28878139355987" departLane="free"/>
  <flow id="JF426988" begin="240" fromJunction="J7" toJunction="J4" end="300" vehsPerHour="24.289541326781915" departLane="free"/>
  <flow id="JF426989" begin="240" fromJunction="J7" toJunction="J5" end="300" vehsPerHour="197.5785940789758" departLane="free"/>
  <flow id="JF426990" begin="240" fromJunction="J7" toJunction="J6" end="300" vehsPerHour="261.3388587969084" departLane="free"/>
  <flow id="JF426991" begin="300" fromJunction="J0" toJunction="J3" end="360" vehsPerHour="273.0928167616046" departLane="free"/>
  <flow id="JF426992" begin="300" fromJunction="J0" toJunction="J4" end="360" vehsPerHour="173.93856212866203" departLane="free"/>
  <flow id="JF426993" begin="300" fromJunction="J0" toJunction="J5" end="360" vehsPerHour="60.6616535577525" departLane="free"/>
  <flow id="JF426994" begin="300" fromJunction="J0" toJunction="J6" end="360" vehsPerHour="71.9354567462437" departLane="free"/>
  <flow id="JF426995" begin="300" fromJunction="J0" toJunction="J7" end="360" vehsPerHour="119.7134477788491" departLane="free"/>
  <flow id="JF426996" begin="300" fromJunction="J3" toJunction="J0" end="360" vehsPerHour="268.4042917367719" departLane="free"/>
  <flow id="JF426997" begin="300" fromJunction="J3" toJunction="J5" end="360" vehsPerHour="81.11109561930793" departLane="free"/>
  <flow id="JF426998" begin="300" fromJunction="J3" toJunction="J6" end="360" vehsPerHour="423.30360928996606" departLane="free"/>
  <flow id="JF426999" begin="300" fromJunction="J3" toJunction="J7" end="360" vehsPerHour="71.23749502371986" departLane="free"/>
  <flow id="JF427000" begin="300" fromJunction="J4" toJunction="J0" end="360" vehsPerHour="194.78704834185513" departLane="free"/>
  <flow id="JF427001" begin="300" fromJunction="J4" toJunction="J3" end="360" vehsPerHour="57.98048529746184" departLane="free"/>
  <flow id="JF427002" begin="300" fromJunction="J4" toJunction="J5" end="360" vehsPerHour="29.27042320537491" departLane="free"/>
  <flow id="JF427003" begin="300" fromJunction="J5" toJunction="J3" end="360" vehsPerHour="63.564951661106114" departLane="free"/>
  <flow id="JF427004" begin="300" fromJunction="J5" toJunction="J4" end="360" vehsPerHour="156.22817704246398" departLane="free"/>
  <flow id="JF427005" begin="300" fromJunction="J5" toJunction="J7" end="360" vehsPerHour="265.59726370785376" departLane="free"/>
  <flow id="JF427006" begin="300" fromJunction="J6" toJunction="J0" end="360" vehsPerHour="261.27306640882614" departLane="free"/>
  <flow id="JF427007" begin="300" fromJunction="J6" toJunction="J3" end="360" vehsPerHour="269.60484877211377" departLane="free"/>
  <flow id="JF427008" begin="300" fromJunction="J6" toJunction="J4" end="360" vehsPerHour="158.5106522810449" departLane="free"/>
  <flow id="JF427009" begin="300" fromJunction="J6" toJunction="J5" end="360" vehsPerHour="88.49572295153605" departLane="free"/>
  <flow id="JF427010" begin="300" fromJunction="J7" toJunction="J3" end="360" vehsPerHour="12.953508291583935" departLane="free"/>
  <flow id="JF427011" begin="300" fromJunction="J7" toJunction="J4" end="360" vehsPerHour="152.38495369641012" departLane="free"/>
  <flow id="JF427012" begin="300" fromJunction="J7" toJunction="J5" end="360" vehsPerHour="33.62808837495095" departLane="free"/>
  <flow id="JF427013" begin="300" fromJunction="J7" toJunction="J6" end="360" vehsPerHour="107.29847698535384" departLane="free"/>
  <flow id="JF427014" begin="360" fromJunction="J0" toJunction="J4" end="420" vehsPerHour="121.4314981129889" departLane="free"/>
  <flow id="JF427015" begin="360" fromJunction="J0" toJunction="J5" end="420" vehsPerHour="449.59121751339353" departLane="free"/>
  <flow id="JF427016" begin="360" fromJunction="J0" toJunction="J6" end="420" vehsPerHour="319.2372014708097" departLane="free"/>
  <flow id="JF427017" begin="360" fromJunction="J3" toJunction="J4" end="420" vehsPerHour="413.7567293879458" departLane="free"/>
  <flow id="JF427018" begin="360" fromJunction="J3" toJunction="J6" end="420" vehsPerHour="84.68139668612476" departLane="free"/>
  <flow id="JF427019" begin="360" fromJunction="J3" toJunction="J7" end="420" vehsPerHour="128.87462438834405" departLane="free"/>
  <flow id="JF427020" begin="360" fromJunction="J4" toJunction="J0" end="420" vehsPerHour="141.53213769503432" departLane="free"/>
  <flow id="JF427021" begin="360" fromJunction="J4" toJunction="J3" end="420" vehsPerHour="167.4887400641767" departLane="free"/>
  <flow id="JF427022" begin="360" fromJunction="J4" toJunction="J6" end="420" vehsPerHour="42.56822697693915" departLane="free"/>
  <flow id="JF427023" begin="360" fromJunction="J4" toJunction="J7" end="420" vehsPerHour="128.2694160926584" departLane="free"/>
  <flow id="JF427024" begin="360" fromJunction="J5" toJunction="J0" end="420" vehsPerHour="146.32713701214013" departLane="free"/>
  <flow id="JF427025" begin="360" fromJunction="J5" toJunction="J3" end="420" vehsPerHour="219.5640353203938" departLane="free"/>
  <flow id="JF427026" begin="360" fromJunction="J5" toJunction="J4" end="420" vehsPerHour="137.0249143078903" departLane="free"/>
  <flow id="JF427027" begin="360" fromJunction="J6" toJunction="J0" end="420" vehsPerHour="17.91764875782506" departLane="free"/>
  <flow id="JF427028" begin="360" fromJunction="J6" toJunction="J4" end="420" vehsPerHour="267.7768297066526" departLane="free"/>
  <flow id="JF427029" begin="360" fromJunction="J6" toJunction="J7" end="420" vehsPerHour="6.521855570422684" departLane="free"/>
  <flow id="JF427030" begin="360" fromJunction="J7" toJunction="J3" end="420" vehsPerHour="80.10934876025681" departLane="free"/>
  <flow id="JF427031" begin="360" fromJunction="J7" toJunction="J5" end="420" vehsPerHour="143.01532766633056" departLane="free"/>
  <flow id="JF427032" begin="360" fromJunction="J7" toJunction="J6" end="420" vehsPerHour="217.90234854059182" departLane="free"/>
  <flow id="JF427033" begin="420" fromJunction="J0" toJunction="J3" end="480" vehsPerHour="431.1084895513301" departLane="free"/>
  <flow id="JF427034" begin="420" fromJunction="J0" toJunction="J5" end="480" vehsPerHour="427.1483910539832" departLane="free"/>
  <flow id="JF427035" begin="420" fromJunction="J0" toJunction="J6" end="480" vehsPerHour="124.6518698856638" departLane="free"/>
  <flow id="JF427036" begin="420" fromJunction="J0" toJunction="J7" end="480" vehsPerHour="235.24260425742978" departLane="free"/>
  <flow id="JF427037" begin="420" fromJunction="J3" toJunction="J0" end="480" vehsPerHour="382.591322347851" departLane="free"/>
  <flow id="JF427038" begin="420" fromJunction="J3" toJunction="J4" end="480" vehsPerHour="122.85017953323602" departLane="free"/>
  <flow id="JF427039" begin="420" fromJunction="J3" toJunction="J5" end="480" vehsPerHour="179.11228355171377" departLane="free"/>
  <flow id="JF427040" begin="420" fromJunction="J3" toJunction="J6" end="480" vehsPerHour="265.4173453306254" departLane="free"/>
  <flow id="JF427041" begin="420" fromJunction="J4" toJunction="J3" end="480" vehsPerHour="59.27906570374351" departLane="free"/>
  <flow id="JF427042" begin="420" fromJunction="J4" toJunction="J5" end="480" vehsPerHour="69.4819685130101" departLane="free"/>
  <flow id="JF427043" begin="420" fromJunction="J4" toJunction="J7" end="480" vehsPerHour="94.42324818504804" departLane="free"/>
  <flow id="JF427044" begin="420" fromJunction="J5" toJunction="J0" end="480" vehsPerHour="83.4837430789858" departLane="free"/>
  <flow id="JF427045" begin="420" fromJunction="J5" toJunction="J6" end="480" vehsPerHour="104.55277862102409" departLane="free"/>
  <flow id="JF427046" begin="420" fromJunction="J6" toJunction="J0" end="480" vehsPerHour="16.492024041778382" departLane="free"/>
  <flow id="JF427047" begin="420" fromJunction="J6" toJunction="J3" end="480" vehsPerHour="116.81713962340795" departLane="free"/>
  <flow id="JF427048" begin="420" fromJunction="J6" toJunction="J4" end="480" vehsPerHour="257.5496116377521" departLane="free"/>
  <flow id="JF427049" begin="420" fromJunction="J6" toJunction="J5" end="480" vehsPerHour="108.02052829333672" departLane="free"/>
  <flow id="JF427050" begin="420" fromJunction="J6" toJunction="J7" end="480" vehsPerHour="214.01382301495005" departLane="free"/>
  <flow id="JF427051" begin="420" fromJunction="J7" toJunction="J0" end="480" vehsPerHour="73.39854250719169" departLane="free"/>
  <flow id="JF427052" begin="420" fromJunction="J7" toJunction="J3" end="480" vehsPerHour="10.193867935250744" departLane="free"/>
  <flow id="JF427053" begin="420" fromJunction="J7" toJunction="J4" end="480" vehsPerHour="100.48476316145725" departLane="free"/>
  <flow id="JF427054" begin="420" fromJunction="J7" toJunction="J5" end="480" vehsPerHour="216.01940256050858" departLane="free"/>
  <flow id="JF427055" begin="420" fromJunction="J7" toJunction="J6" end="480" vehsPerHour="20.57952240103402" departLane="free"/>
  <flow id="JF427056" begin="480" fromJunction="J0" toJunction="J3" end="540" vehsPerHour="34.339414183789046" departLane="free"/>
  <flow id="JF427057" begin="480" fromJunction="J0" toJunction="J5" end="540" vehsPerHour="373.0535025527307" departLane="free"/>
  <flow id="JF427058" begin="480" fromJunction="J0" toJunction="J6" end="540" vehsPerHour="57.4840084682462" departLane="free"/>
  <flow id="JF427059" begin="480" fromJunction="J0" toJunction="J7" end="540" vehsPerHour="21.934913724261683" departLane="free"/>
  <flow id="JF427060" begin="480" fromJunction="J3" toJunction="J0" end="540" vehsPerHour="262.9439038652066" departLane="free"/>
  <flow id="JF427061" begin="480" fromJunction="J3" toJunction="J5" end="540" vehsPerHour="484.5680128036832" departLane="free"/>
  <flow id="JF427062" begin="480" fromJunction="J3" toJunction="J7" end="540" vehsPerHour="123.61045581274145" departLane="free"/>
  <flow id="JF427063" begin="480" fromJunction="J4" toJunction="J0" end="540" vehsPerHour="219.36157854847616" departLane="free"/>
  <flow id="JF427064" begin="480" fromJunction="J4" toJunction="J7" end="540" vehsPerHour="167.57967165401027" departLane="free"/>
  <flow id="JF427065" begin="480" fromJunction="J5" toJunction="J4" end="540" vehsPerHour="195.6067341169281" departLane="free"/>
  <flow id="JF427066" begin="480" fromJunction="J5" toJunction="J6" end="540" vehsPerHour="121.81218216392539" departLane="free"/>
  <flow id="JF427067" begin="480" fromJunction="J5" toJunction="J7" end="540" vehsPerHour="121.60979028197374" departLane="free"/>
  <flow id="JF427068" begin="480" fromJunction="J6" toJunction="J4" end="540" vehsPerHour="180.1853112228544" departLane="free"/>
  <flow id="JF427069" begin="480" fromJunction="J6" toJunction="J5" end="540" vehsPerHour="255.55580910170363" departLane="free"/>
  <flow id="JF427070" begin="480" fromJunction="J6" toJunction="J7" end="540" vehsPerHour="247.3021569184843" departLane="free"/>
  <flow id="JF427071" begin="480" fromJunction="J7" toJunction="J0" end="540" vehsPerHour="53.58692058928226" departLane="free"/>
  <flow id="JF427072" begin="480" fromJunction="J7" toJunction="J3" end="540" vehsPerHour="253.6495942512682" departLane="free"/>
  <flow id="JF427073" begin="480" fromJunction="J7" toJunction="J4" end="540" vehsPerHour="110.48695255302934" departLane="free"/>
  <flow id="JF427074" begin="480" fromJunction="J7" toJunction="J5" end="540" vehsPerHour="41.821389700285025" departLane="free"/>
  <flow id="JF427075" begin="540" fromJunction="J0" toJunction="J3" end="600" vehsPerHour="102.86654240358247" departLane="free"/>
  <flow id="JF427076" begin="540" fromJunction="J0" toJunction="J4" end="600" vehsPerHour="269.8515305742657" departLane="free"/>
  <flow id="JF427077" begin="540" fromJunction="J0" toJunction="J5" end="600" vehsPerHour="343.64670747662" departLane="free"/>
  <flow id="JF427078" begin="540" fromJunction="J0" toJunction="J6" end="600" vehsPerHour="211.11181361360417" departLane="free"/>
  <flow id="JF427079" begin="540" fromJunction="J0" toJunction="J7" end="600" vehsPerHour="415.16736158363074" departLane="free"/>
  <flow id="JF427080" begin="540" fromJunction="J3" toJunction="J0" end="600" vehsPerHour="321.73269047827296" departLane="free"/>
  <flow id="JF427081" begin="540" fromJunction="J3" toJunction="J7" end="600" vehsPerHour="246.07646197077634" departLane="free"/>
  <flow id="JF427082" begin="540" fromJunction="J4" toJunction="J3" end="600" vehsPerHour="46.74117664244863" departLane="free"/>
  <flow id="JF427083" begin="540" fromJunction="J4" toJunction="J5" end="600" vehsPerHour="40.114021423923305" departLane="free"/>
  <flow id="JF427084" begin="540" fromJunction="J4" toJunction="J7" end="600" vehsPerHour="6.173673344485774" departLane="free"/>
  <flow id="JF427085" begin="540" fromJunction="J5" toJunction="J0" end="600" vehsPerHour="98.74032067604577" departLane="free"/>
  <flow id="JF427086" begin="540" fromJunction="J5" toJunction="J3" end="600" vehsPerHour="201.40100017367638" departLane="free"/>
  <flow id="JF427087" begin="540" fromJunction="J5" toJunction="J4" end="600" vehsPerHour="232.152338877251" departLane="free"/>
  <flow id="JF427088" begin="540" fromJunction="J5" toJunction="J6" end="600" vehsPerHour="10.053042290437157" departLane="free"/>
  <flow id="JF427089" begin="540" fromJunction="J5" toJunction="J7" end="600" vehsPerHour="242.25048765357533" departLane="free"/>
  <flow id="JF427090" begin="540" fromJunction="J6" toJunction="J3" end="600" vehsPerHour="249.5694951495614" departLane="free"/>
  <flow id="JF427091" begin="540" fromJunction="J6" toJunction="J4" end="600" vehsPerHour="47.87981270407276" departLane="free"/>
  <flow id="JF427092" begin="540" fromJunction="J6" toJunction="J5" end="600" vehsPerHour="233.61329937824922" departLane="free"/>
  <flow id="JF427093" begin="540" fromJunction="J6" toJunction="J7" end="600" vehsPerHour="234.36951964526784" departLane="free"/>
  <flow id="JF427094" begin="540" fromJunction="J7" toJunction="J3" end="600" vehsPerHour="51.303378894906665" departLane="free"/>
  <flow id="JF427095" begin="540" fromJunction="J7" toJunction="J4" end="600" vehsPerHour="64.67716327694133" departLane="free"/>
  <flow id="JF427096" begin="540" fromJunction="J7" toJunction="J5" end="600" vehsPerHour="253.06155584895004" departLane="free"/>
  <flow id="JF427097" begin="600" fromJunction="J0" toJunction="J4" end="660" vehsPerHour="53.656779675900644" departLane="free"/>
  <flow id="JF427098" begin="600" fromJunction="J0" toJunction="J7" end="660" vehsPerHour="378.65395287582595" departLane="free"/>
  <flow id="JF427099" begin="600" fromJunction="J3" toJunction="J4" end="660" vehsPerHour="524.8925736008856" departLane="free"/>
  <flow id="JF427100" begin="600" fromJunction="J3" toJunction="J5" end="660" vehsPerHour="168.5488487847239" departLane="free"/>
  <flow id="JF427101" begin="600" fromJunction="J4" toJunction="J0" end="660" vehsPerHour="80.15176681190069" departLane="free"/>
  <flow id="JF427102" begin="600" fromJunction="J4" toJunction="J3" end="660" vehsPerHour="200.98070721769935" departLane="free"/>
  <flow id="JF427103" begin="600" fromJunction="J4" toJunction="J6" end="660" vehsPerHour="255.14796358557655" departLane="free"/>
  <flow id="JF427104" begin="600" fromJunction="J4" toJunction="J7" end="660" vehsPerHour="9.350772058049612" departLane="free"/>
  <flow id="JF427105" begin="600" fromJunction="J5" toJunction="J0" end="660" vehsPerHour="39.042609940948076" departLane="free"/>
  <flow id="JF427106" begin="600" fromJunction="J5" toJunction="J3" end="660" vehsPerHour="255.44859134852746" departLane="free"/>
  <flow id="JF427107" begin="600" fromJunction="J5" toJunction="J4" end="660" vehsPerHour="73.34760098255461" departLane="free"/>
  <flow id="JF427108" begin="600" fromJunction="J5" toJunction="J6" end="660" vehsPerHour="141.66110170214856" departLane="free"/>
  <flow id="JF427109" begin="600" fromJunction="J5" toJunction="J7" end="660" vehsPerHour="160.1518838072957" departLane="free"/>
  <flow id="JF427110" begin="600" fromJunction="J6" toJunction="J5" end="660" vehsPerHour="139.95748284648218" departLane="free"/>
  <flow id="JF427111" begin="600" fromJunction="J7" toJunction="J3" end="660" vehsPerHour="11.08810087445116" departLane="free"/>
  <flow id="JF427112" begin="600" fromJunction="J7" toJunction="J4" end="660" vehsPerHour="29.75061563495406" departLane="free"/>