<?xml version="1.0" encoding="UTF-8"?>
<routes xmlns:xsi="http://www.w3.org/2001/XMLSchema-instance" xsi:noNamespaceSchemaLocation="http://sumo.dlr.de/xsd/routes_file.xsd">
  <flow id="JF430449" begin="0" fromJunction="J0" toJunction="J3" end="60" vehsPerHour="515.0047413760484" departLane="free"/>
  <flow id="JF430450" begin="0" fromJunction="J0" toJunction="J4" end="60" vehsPerHour="280.03192054172007" departLane="free"/>
  <flow id="JF430451" begin="0" fromJunction="J0" toJunction="J5" end="60" vehsPerHour="505.5408331670396" departLane="free"/>
  <flow id="JF430452" begin="0" fromJunction="J0" toJunction="J7" end="60" vehsPerHour="268.67793873651505" departLane="free"/>
  <flow id="JF430453" begin="0" fromJunction="J3" toJunction="J0" end="60" vehsPerHour="288.9119505857204" departLane="free"/>
  <flow id="JF430454" begin="0" fromJunction="J3" toJunction="J4" end="60" vehsPerHour="98.55802466525864" departLane="free"/>
  <flow id="JF430455" begin="0" fromJunction="J3" toJunction="J5" end="60" vehsPerHour="544.724908719884" departLane="free"/>
  <flow id="JF430456" begin="0" fromJunction="J3" toJunction="J7" end="60" vehsPerHour="460.0683030511913" departLane="free"/>
  <flow id="JF430457" begin="0" fromJunction="J4" toJunction="J3" end="60" vehsPerHour="73.48375694161922" departLane="free"/>
  <flow id="JF430458" begin="0" fromJunction="J4" toJunction="J7" end="60" vehsPerHour="208.8302236004614" departLane="free"/>
  <flow id="JF430459" begin="0" fromJunction="J5" toJunction="J3" end="60" vehsPerHour="11.048570147737456" departLane="free"/>
  <flow id="JF430460" begin="0" fromJunction="J5" toJunction="J4" end="60" vehsPerHour="75.13723552900602" departLane="free"/>
  <flow id="JF430461" begin="0" fromJunction="J5" toJunction="J7" end="60" vehsPerHour="232.3992197365235" departLane="free"/>
  <flow id="JF430462" begin="0" fromJunction="J6" toJunction="J0" end="60" vehsPerHour="219.1300304579413" departLane="free"/>
  <flow id="JF430463" begin="0" fromJunction="J6" toJunction="J3" end="60" vehsPerHour="192.401604707073" departLane="free"/>
  <flow id="JF430464" begin="0" fromJunction="J6" toJunction="J4" end="60" vehsPerHour="35.55413731737731" departLane="free"/>
  <flow id="JF430465" begin="0" fromJunction="J6" toJunction="J5" end="60" vehsPerHour="185.44232087422847" departLane="free"/>
  <flow id="JF430466" begin="0" fromJunction="J7" toJunction="J0" end="60" vehsPerHour="212.64978582366277" departLane="free"/>
  <flow id="JF430467" begin="0" fromJunction="J7" toJunction="J4" end="60" vehsPerHour="156.28349399094077" departLane="free"/>
  <flow id="JF430468" begin="0" fromJunction="J7" toJunction="J6" end="60" vehsPerHour="3.6077211516279766" departLane="free"/>
  <flow id="JF430469" begin="60" fromJunction="J0" toJunction="J5" end="120" vehsPerHour="63.010972255000034" departLane="free"/>
  <flow id="JF430470" begin="60" fromJunction="J0" toJunction="J6" end="120" vehsPerHour="305.9714562087075" departLane="free"/>
  <flow id="JF430471" begin="60" fromJunction="J3" toJunction="J0" end="120" vehsPerHour="141.25403756758527" departLane="free"/>
  <flow id="JF430472" begin="60" fromJunction="J3" toJunction="J4" end="120" vehsPerHour="489.73631651276025" departLane="free"/>
  <flow id="JF430473" begin="60" fromJunction="J4" toJunction="J0" end="120" vehsPerHour="114.76498540444082" departLane="free"/>
  <flow id="JF430474" begin="60" fromJunction="J4" toJunction="J3" end="120" vehsPerHour="161.29761415975372" departLane="free"/>
  <flow id="JF430475" begin="60" fromJunction="J4" toJunction="J5" end="120" vehsPerHour="19.31487941986386" departLane="free"/>
  <flow id="JF430476" begin="60" fromJunction="J4" toJunction="J6" end="120" vehsPerHour="220.99090294920072" departLane="free"/>
  <flow id="JF430477" begin="60" fromJunction="J4" toJunction="J7" end="120" vehsPerHour="98.41103873280929" departLane="free"/>
  <flow id="JF430478" begin="60" fromJunction="J5" toJunction="J0" end="120" vehsPerHour="132.52971662966794" departLane="free"/>
  <flow id="JF430479" begin="60" fromJunction="J5" toJunction="J3" end="120" vehsPerHour="241.58208837288356" departLane="free"/>
  <flow id="JF430480" begin="60" fromJunction="J5" toJunction="J4" end="120" vehsPerHour="189.40356040207584" departLane="free"/>
  <flow id="JF430481" begin="60" fromJunction="J5" toJunction="J6" end="120" vehsPerHour="204.44392648355534" departLane="free"/>
  <flow id="JF430482" begin="60" fromJunction="J5" toJunction="J7" end="120" vehsPerHour="258.5518702817863" departLane="free"/>
  <flow id="JF430483" begin="60" fromJunction="J6" toJunction="J0" end="120" vehsPerHour="176.94526228536301" departLane="free"/>
  <flow id="JF430484" begin="60" fromJunction="J6" toJunction="J3" end="120" vehsPerHour="244.7388208718904" departLane="free"/>
  <flow id="JF430485" begin="60" fromJunction="J6" toJunction="J5" end="120" vehsPerHour="4.717114023118879" departLane="free"/>
  <flow id="JF430486" begin="60" fromJunction="J6" toJunction="J7" end="120" vehsPerHour="22.362733874787626" departLane="free"/>
  <flow id="JF430487" begin="60" fromJunction="J7" toJunction="J0" end="120" vehsPerHour="132.78047982269027" departLane="free"/>
  <flow id="JF430488" begin="60" fromJunction="J7" toJunction="J5" end="120" vehsPerHour="53.78394001345439" departLane="free"/>
  <flow id="JF430489" begin="60" fromJunction="J7" toJunction="J6" end="120" vehsPerHour="75.89766994844103" departLane="free"/>
  <flow id="JF430490" begin="120" fromJunction="J0" toJunction="J3" end="180" vehsPerHour="519.9788555860935" departLane="free"/>
  <flow id="JF430491" begin="120" fromJunction="J0" toJunction="J4" end="180" vehsPerHour="308.0415380097065" departLane="free"/>
  <flow id="JF430492" begin="120" fromJunction="J0" toJunction="J5" end="180" vehsPerHour="518.5937704521295" departLane="free"/>
  <flow id="JF430493" begin="120" fromJunction="J0" toJunction="J6" end="180" vehsPerHour="53.145473542293445" departLane="free"/>
  <flow id="JF430494" begin="120" fromJunction="J0" toJunction="J7" end="180" vehsPerHour="282.22658623141785" departLane="free"/>
  <flow id="JF430495" begin="120" fromJunction="J3" toJunction="J0" end="180" vehsPerHour="325.21371087856227" departLane="free"/>
  <flow id="JF430496" begin="120" fromJunction="J3" toJunction="J4" end="180" vehsPerHour="118.47899978697333" departLane="free"/>
  <flow id="JF430497" begin="120" fromJunction="J3" toJunction="J5" end="180" vehsPerHour="115.59848553877468" departLane="free"/>
  <flow id="JF430498" begin="120" fromJunction="J3" toJunction="J6" end="180" vehsPerHour="355.3100748463553" departLane="free"/>
  <flow id="JF430499" begin="120" fromJunction="J3" toJunction="J7" end="180" vehsPerHour="341.3491243462753" departLane="free"/>
  <flow id="JF430500" begin="120" fromJunction="J4" toJunction="J0" end="180" vehsPerHour="175.28636836956233" departLane="free"/>
  <flow id="JF430501" begin="120" fromJunction="J4" toJunction="J3" end="180" vehsPerHour="20.091246161571103" departLane="free"/>
  <flow id="JF430502" begin="120" fromJunction="J4" toJunction="J6" end="180" vehsPerHour="186.98882592535728" departLane="free"/>
  <flow id="JF430503" begin="120" fromJunction="J5" toJunction="J3" end="180" vehsPerHour="28.622036112428294" departLane="free"/>
  <flow id="JF430504" begin="120" fromJunction="J5" toJunction="J4" end="180" vehsPerHour="194.1467875827236" departLane="free"/>
  <flow id="JF430505" begin="120" fromJunction="J5" toJunction="J6" end="180" vehsPerHour="84.92092336716449" departLane="free"/>
  <flow id="JF430506" begin="120" fromJunction="J5" toJunction="J7" end="180" vehsPerHour="40.800079687715304" departLane="free"/>
  <flow id="JF430507" begin="120" fromJunction="J6" toJunction="J0" end="180" vehsPerHour="46.156761701828266" departLane="free"/>
  <flow id="JF430508" begin="120" fromJunction="J6" toJunction="J3" end="180" vehsPerHour="187.31958433121807" departLane="free"/>
  <flow id="JF430509" begin="120" fromJunction="J6" toJunction="J4" end="180" vehsPerHour="162.25583793652737" departLane="free"/>
  <flow id="JF430510" begin="120" fromJunction="J6" toJunction="J7" end="180" vehsPerHour="110.38551285563496" departLane="free"/>
  <flow id="JF430511" begin="120" fromJunction="J7" toJunction="J0" end="180" vehsPerHour="129.2569637071157" departLane="free"/>
  <flow id="JF430512" begin="120" fromJunction="J7" toJunction="J3" end="180" vehsPerHour="247.84204625325722" departLane="free"/>
  <flow id="JF430513" begin="120" fromJunction="J7" toJunction="J5" end="180" vehsPerHour="191.47200290424703" departLane="free"/>
  <flow id="JF430514" begin="120" fromJunction="J7" toJunction="J6" end="180" vehsPerHour="165.4521293291969" departLane="free"/>
  <flow id="JF430515" begin="180" fromJunction="J0" toJunction="J3" end="240" vehsPerHour="337.1618388167144" departLane="free"/>
  <flow id="JF430516" begin="180" fromJunction="J0" toJunction="J5" end="240" vehsPerHour="411.17269383805933" departLane="free"/>
  <flow id="JF430517" begin="180" fromJunction="J0" toJunction="J6" end="240" vehsPerHour="227.37069412922816" departLane="free"/>
  <flow id="JF430518" begin="180" fromJunction="J0" toJunction="J7" end="240" vehsPerHour="544.3619400588683" departLane="free"/>
  <flow id="JF430519" begin="180" fromJunction="J3" toJunction="J4" end="240" vehsPerHour="131.28301198273434" departLane="free"/>
  <flow id="JF430520" begin="180" fromJunction="J3" toJunction="J5" end="240" vehsPerHour="482.7842614870553" departLane="free"/>
  <flow id="JF430521" begin="180" fromJunction="J3" toJunction="J6" end="240" vehsPerHour="20.240344422136104" departLane="free"/>
  <flow id="JF430522" begin="180" fromJunction="J4" toJunction="J0" end="240" vehsPerHour="245.89537016093288" departLane="free"/>
  <flow id="JF430523" begin="180" fromJunction="J4" toJunction="J6" end="240" vehsPerHour="35.15870180182918" departLane="free"/>
  <flow id="JF430524" begin="180" fromJunction="J4" toJunction="J7" end="240" vehsPerHour="116.92422266422955" departLane="free"/>
  <flow id="JF430525" begin="180" fromJunction="J5" toJunction="J0" end="240" vehsPerHour="127.49735341452548" departLane="free"/>
  <flow id="JF430526" begin="180" fromJunction="J5" toJunction="J4" end="240" vehsPerHour="90.52340592772403" departLane="free"/>
  <flow id="JF430527" begin="180" fromJunction="J5" toJunction="J6" end="240" vehsPerHour="142.75906853994132" departLane="free"/>
  <flow id="JF430528" begin="180" fromJunction="J5" toJunction="J7" end="240" vehsPerHour="227.67545202657163" departLane="free"/>
  <flow id="JF430529" begin="180" fromJunction="J6" toJunction="J0" end="240" vehsPerHour="116.24339575757138" departLane="free"/>
  <flow id="JF430530" begin="180" fromJunction="J6" toJunction="J3" end="240" vehsPerHour="16.391861602363573" departLane="free"/>
  <flow id="JF430531" begin="180" fromJunction="J6" toJunction="J4" end="240" vehsPerHour="98.77793198397286" departLane="free"/>
  <flow id="JF430532" begin="180" fromJunction="J6" toJunction="J5" end="240" vehsPerHour="23.165491232095643" departLane="free"/>
  <flow id="JF430533" begin="180" fromJunction="J6" toJunction="J7" end="240" vehsPerHour="258.15935875489413" departLane="free"/>
  <flow id="JF430534" begin="180" fromJunction="J7" toJunction="J0" end="240" vehsPerHour="264.7699798539993" departLane="free"/>
  <flow id="JF430535" begin="180" fromJunction="J7" toJunction="J3" end="240" vehsPerHour="170.30979287863852" departLane="free"/>
  <flow id="JF430536" begin="180" fromJunction="J7" toJunction="J5" end="240" vehsPerHour="198.56655941116728" departLane="free"/>
  <flow id="JF430537" begin="180" fromJunction="J7" toJunction="J6" end="240" vehsPerHour="29.644169000156072" departLane="free"/>
  <flow id="JF430538" begin="240" fromJunction="J0" toJunction="J3" end="300" vehsPerHour="222.015698257836" departLane="free"/>
  <flow id="JF430539" begin="240" fromJunction="J0" toJunction="J4" end="300" vehsPerHour="23.617977542187745" departLane="free"/>
  <flow id="JF430540" begin="240" fromJunction="J0" toJunction="J7" end="300" vehsPerHour="548.5470248818355" departLane="free"/>
  <flow id="JF430541" begin="240" fromJunction="J3" toJunction="J0" end="300" vehsPerHour="288.59968034482273" departLane="free"/>
  <flow id="JF430542" begin="240" fromJunction="J3" toJunction="J4" end="300" vehsPerHour="38.38913002843222" departLane="free"/>
  <flow id="JF430543" begin="240" fromJunction="J3" toJunction="J6" end="300" vehsPerHour="83.65279548476266" departLane="free"/>
  <flow id="JF430544" begin="240" fromJunction="J3" toJunction="J7" end="300" vehsPerHour="463.9979286869757" departLane="free"/>
  <flow id="JF430545" begin="240" fromJunction="J4" toJunction="J0" end="300" vehsPerHour="200.12750397852955" departLane="free"/>
  <flow id="JF430546" begin="240" fromJunction="J4" toJunction="J3" end="300" vehsPerHour="265.3253715913381" departLane="free"/>
  <flow id="JF430547" begin="240" fromJunction="J4" toJunction="J6" end="300" vehsPerHour="58.65653200864618" departLane="free"/>
  <flow id="JF430548" begin="240" fromJunction="J4" toJunction="J7" end="300" vehsPerHour="13.123577931921256" departLane="free"/>
  <flow id="JF430549" begin="240" fromJunction="J5" toJunction="J0" end="300" vehsPerHour="37.17825840934104" departLane="free"/>
  <flow id="JF430550" begin="240" fromJunction="J5" toJunction="J3" end="300" vehsPerHour="227.81464824968901" departLane="free"/>
  <flow id="JF430551" begin="240" fromJunction="J5" toJunction="J4" end="300" vehsPerHour="62.45734099153772" departLane="free"/>
  <flow id="JF430552" begin="240" fromJunction="J5" toJunction="J6" end="300" vehsPerHour="100.37658584788302" departLane="free"/>
  <flow id="JF430553" begin="240" fromJunction="J5" toJunction="J7" end="300" vehsPerHour="211.75565598158073" departLane="free"/>
  <flow id="JF430554" begin="240" fromJunction="J6" toJunction="J4" end="300" vehsPerHour="186.95018046643753" departLane="free"/>
  <flow id="JF430555" begin="240" fromJunction="J6" toJunction="J5" end="300" vehsPerHour="202.71986126342188" departLane="free"/>
  <flow id="JF430556" begin="240" fromJunction="J6" toJunction="J7" end="300" vehsPerHour="48.49097866228692" departLane="free"/>
  <flow id="JF430557" begin="240" fromJunction="J7" toJunction="J0" end="300" vehsPerHour="264.41873032320956" departLane="free"/>
  <flow id="JF430558" begin="240" fromJunction="J7" toJunction="J3" end="300" vehsPerHour="111.84685776351581" departLane="free"/>
  <flow id="JF430559" begin="240" fromJunction="J7" toJunction="J4" end="300" vehsPerHour="256.17441712104977" departLane="free"/>
  <flow id="JF430560" begin="240" fromJunction="J7" toJunction="J5" end="300" vehsPerHour="262.6952741810512" departLane="free"/>
  <flow id="JF430561" begin="300" fromJunction="J0" toJunction="J3" end="360" vehsPerHour="57.05168150231719" departLane="free"/>
  <flow id="JF430562" begin="300" fromJunction="J0" toJunction="J4" end="360" vehsPerHour="194.59081695596552" departLane="free"/>
  <flow id="JF430563" begin="300" fromJunction="J0" toJunction="J6" end="360" vehsPerHour="78.18071174721653" departLane="free"/>
  <flow id="JF430564" begin="300" fromJunction="J0" toJunction="J7" end="360" vehsPerHour="391.97079086217315" departLane="free"/>
  <flow id="JF430565" begin="300" fromJunction="J3" toJunction="J0" end="360" vehsPerHour="159.9351750800954" departLane="free"/>
  <flow id="JF430566" begin="300" fromJunction="J3" toJunction="J4" end="360" vehsPerHour="290.3776334884074" departLane="free"/>
  <flow id="JF430567" begin="300" fromJunction="J3" toJunction="J5" end="360" vehsPerHour="474.90039637379135" departLane="free"/>
  <flow id="JF430568" begin="300" fromJunction="J3" toJunction="J6" end="360" vehsPerHour="44.260062416833875" departLane="free"/>
  <flow id="JF430569" begin="300" fromJunction="J3" toJunction="J7" end="360" vehsPerHour="313.66923711830907" departLane="free"/>
  <flow id="JF430570" begin="300" fromJunction="J4" toJunction="J0" end="360" vehsPerHour="66.3628113529575" departLane="free"/>
  <flow id="JF430571" begin="300" fromJunction="J4" toJunction="J3" end="360" vehsPerHour="192.80083669642528" departLane="free"/>
  <flow id="JF430572" begin="300" fromJunction="J4" toJunction="J7" end="360" vehsPerHour="34.624694503145435" departLane="free"/>
  <flow id="JF430573" begin="300" fromJunction="J5" toJunction="J0" end="360" vehsPerHour="102.87929309922065" departLane="free"/>
  <flow id="JF430574" begin="300" fromJunction="J5" toJunction="J3" end="360" vehsPerHour="42.38838188192536" departLane="free"/>
  <flow id="JF430575" begin="300" fromJunction="J5" toJunction="J4" end="360" vehsPerHour="89.47166393718419" departLane="free"/>
  <flow id="JF430576" begin="300" fromJunction="J5" toJunction="J6" end="360" vehsPerHour="175.35352680985574" departLane="free"/>
  <flow id="JF430577" begin="300" fromJunction="J6" toJunction="J0" end="360" vehsPerHour="204.44666642995188" departLane="free"/>
  <flow id="JF430578" begin="300" fromJunction="J6" toJunction="J3" end="360" vehsPerHour="151.54190351676255" departLane="free"/>
  <flow id="JF430579" begin="300" fromJunction="J6" toJunction="J4" end="360" vehsPerHour="254.44797857505034" departLane="free"/>
  <flow id="JF430580" begin="300" fromJunction="J6" toJunction="J7" end="360" vehsPerHour="186.72531538770656" departLane="free"/>
  <flow id="JF430581" begin="300" fromJunction="J7" toJunction="J0" end="360" vehsPerHour="252.173158893617" departLane="free"/>
  <flow id="JF430582" begin="300" fromJunction="J7" toJunction="J3" end="360" vehsPerHour="82.3690346787086" departLane="free"/>
  <flow id="JF430583" begin="300" fromJunction="J7" toJunction="J4" end="360" vehsPerHour="40.621045451218066" departLane="free"/>
  <flow id="JF430584" begin="300" fromJunction="J7" toJunction="J6" end="360" vehsPerHour="99.03066708906951" departLane="free"/>
  <flow id="JF430585" begin="360" fromJunction="J0" toJunction="J3" end="420" vehsPerHour="7.658833966376658" departLane="free"/>
  <flow id="JF430586" begin="360" fromJunction="J0" toJunction="J5" end="420" vehsPerHour="395.2044587521145" departLane="free"/>
  <flow id="JF430587" begin="360" fromJunction="J0" toJunction="J6" end="420" vehsPerHour="124.19684502004877" departLane="free"/>
  <flow id="JF430588" begin="360" fromJunction="J0" toJunction="J7" end="420" vehsPerHour="497.6450020158495" departLane="free"/>
  <flow id="JF430589" begin="360" fromJunction="J3" toJunction="J0" end="420" vehsPerHour="539.0221099183605" departLane="free"/>
  <flow id="JF430590" begin="360" fromJunction="J3" toJunction="J4" end="420" vehsPerHour="333.24833083687355" departLane="free"/>
  <flow id="JF430591" begin="360" fromJunction="J3" toJunction="J5" end="420" vehsPerHour="304.63228446750753" departLane="free"/>
  <flow id="JF430592" begin="360" fromJunction="J3" toJunction="J6" end="420" vehsPerHour="447.56301027159816" departLane="free"/>
  <flow id="JF430593" begin="360" fromJunction="J3" toJunction="J7" end="420" vehsPerHour="115.01809464079743" departLane="free"/>
  <flow id="JF430594" begin="360" fromJunction="J4" toJunction="J0" end="420" vehsPerHour="83.5553660566121" departLane="free"/>
  <flow id="JF430595" begin="360" fromJunction="J4" toJunction="J3" end="420" vehsPerHour="184.7838261401364" departLane="free"/>
  <flow id="JF430596" begin="360" fromJunction="J5" toJunction="J0" end="420" vehsPerHour="265.6141729977106" departLane="free"/>
  <flow id="JF430597" begin="360" fromJunction="J5" toJunction="J4" end="420" vehsPerHour="225.2013794971781" departLane="free"/>
  <flow id="JF430598" begin="360" fromJunction="J5" toJunction="J6" end="420" vehsPerHour="73.0347077728097" departLane="free"/>
  <flow id="JF430599" begin="360" fromJunction="J5" toJunction="J7" end="420" vehsPerHour="54.64160980741332" departLane="free"/>
  <flow id="JF430600" begin="360" fromJunction="J6" toJunction="J0" end="420" vehsPerHour="105.94804491919449" departLane="free"/>
  <flow id="JF430601" begin="360" fromJunction="J6" toJunction="J4" end="420" vehsPerHour="154.23392695505353" departLane="free"/>
  <flow id="JF430602" begin="360" fromJunction="J6" toJunction="J5" end="420" vehsPerHour="4.671204017184046" departLane="free"/>
  <flow id="JF430603" begin="360" fromJunction="J7" toJunction="J0" end="420" vehsPerHour="255.83032338910624" departLane="free"/>
  <flow id="JF430604" begin="360" fromJunction="J7" toJunction="J4" end="420" vehsPerHour="253.5156850073009" departLane="free"/>
  <flow id="JF430605" begin="360" fromJunction="J7" toJunction="J5" end="420" vehsPerHour="270.3462258674463" departLane="free"/>
  <flow id="JF430606" begin="360" fromJunction="J7" toJunction="J6" end="420" vehsPerHour="249.42169365360803" departLane="free"/>
  <flow id="JF430607" begin="420" fromJunction="J0" toJunction="J5" end="480" vehsPerHour="451.01983041187947" departLane="free"/>
  <flow id="JF430608" begin="420" fromJunction="J0" toJunction="J6" end="480" vehsPerHour="505.6882414865938" departLane="free"/>
  <flow id="JF430609" begin="420" fromJunction="J3" toJunction="J0" end="480" vehsPerHour="547.9743684664029" departLane="free"/>
  <flow id="JF430610" begin="420" fromJunction="J3" toJunction="J4" end="480" vehsPerHour="189.17795045133568" departLane="free"/>
  <flow id="JF430611" begin="420" fromJunction="J3" toJunction="J5" end="480" vehsPerHour="194.17986411527127" departLane="free"/>
  <flow id="JF430612" begin="420" fromJunction="J3" toJunction="J7" end="480" vehsPerHour="300.3507502624083" departLane="free"/>
  <flow id="JF430613" begin="420" fromJunction="J4" toJunction="J0" end="480" vehsPerHour="105.23761749517807" departLane="free"/>
  <flow id="JF430614" begin="420" fromJunction="J4" toJunction="J3" end="480" vehsPerHour="10.38594331146744" departLane="free"/>
  <flow id="JF430615" begin="420" fromJunction="J4" toJunction="J5" end="480" vehsPerHour="28.23943004602961" departLane="free"/>
  <flow id="JF430616" begin="420" fromJunction="J4" toJunction="J7" end="480" vehsPerHour="126.09551151739527" departLane="free"/>
  <flow id="JF430617" begin="420" fromJunction="J5" toJunction="J0" end="480" vehsPerHour="213.20066748934346" departLane="free"/>
  <flow id="JF430618" begin="420" fromJunction="J5" toJunction="J3" end="480" vehsPerHour="148.98268571210758" departLane="free"/>
  <flow id="JF430619" begin="420" fromJunction="J5" toJunction="J7" end="480" vehsPerHour="263.8188357289827" departLane="free"/>
  <flow id="JF430620" begin="420" fromJunction="J6" toJunction="J0" end="480" vehsPerHour="76.29617805187134" departLane="free"/>
  <flow id="JF430621" begin="420" fromJunction="J6" toJunction="J3" end="480" vehsPerHour="81.77053244278846" departLane="free"/>
  <flow id="JF430622" begin="420" fromJunction="J6" toJunction="J4" end="480" vehsPerHour="150.10232715871382" departLane="free"/>
  <flow id="JF430623" begin="420" fromJunction="J6" toJunction="J5" end="480" vehsPerHour="196.87325318137286" departLane="free"/>
  <flow id="JF430624" begin="420" fromJunction="J7" toJunction="J0" end="480" vehsPerHour="155.55283161352023" departLane="free"/>
  <flow id="JF430625" begin="420" fromJunction="J7" toJunction="J3" end="480" vehsPerHour="31.26164363111543" departLane="free"/>
  <flow id="JF430626" begin="420" fromJunction="J7" toJunction="J4" end="480" vehsPerHour="231.5611303082238" departLane="free"/>
  <flow id="JF430627" begin="420" fromJunction="J7" toJunction="J5" end="480" vehsPerHour="146.4161898651011" departLane="free"/>
  <flow id="JF430628" begin="420" fromJunction="J7" toJunction="J6" end="480" vehsPerHour="186.15996992803935" departLane="free"/>
  <flow id="JF430629" begin="480" fromJunction="J0" toJunction="J3" end="540" vehsPerHour="11.758530511625308" departLane="free"/>
  <flow id="JF430630" begin="480" fromJunction="J0" toJunction="J5" end="540" vehsPerHour="432.3666671671459" departLane="free"/>
  <flow id="JF430631" begin="480" fromJunction="J0" toJunction="J6" end="540" vehsPerHour="372.23548059725783" departLane="free"/>
  <flow id="JF430632" begin="480" fromJunction="J3" toJunction="J0" end="540" vehsPerHour="344.14191741899157" departLane="free"/>
  <flow id="JF430633" begin="480" fromJunction="J3" toJunction="J4" end="540" vehsPerHour="80.44222438161302" departLane="free"/>
  <flow id="JF430634" begin="480" fromJunction="J3" toJunction="J5" end="540" vehsPerHour="349.06504336985506" departLane="free"/>
  <flow id="JF430635" begin="480" fromJunction="J3" toJunction="J7" end="540" vehsPerHour="432.49132845908343" departLane="free"/>
  <flow id="JF430636" begin="480" fromJunction="J4" toJunction="J0" end="540" vehsPerHour="204.719774358601" departLane="free"/>
  <flow id="JF430637" begin="480" fromJunction="J4" toJunction="J5" end="540" vehsPerHour="206.6810117384814" departLane="free"/>
  <flow id="JF430638" begin="480" fromJunction="J4" toJunction="J6" end="540" vehsPerHour="99.36330197885941" departLane="free"/>
  <flow id="JF430639" begin="480" fromJunction="J5" toJunction="J0" end="540" vehsPerHour="271.7067960234889" departLane="free"/>
  <flow id="JF430640" begin="480" fromJunction="J5" toJunction="J3" end="540" vehsPerHour="71.85090665556504" departLane="free"/>
  <flow id="JF430641" begin="480" fromJunction="J5" toJunction="J4" end="540" vehsPerHour="269.6334791683892" departLane="free"/>
  <flow id="JF430642" begin="480" fromJunction="J5" toJunction="J6" end="540" vehsPerHour="262.20236207798763" departLane="free"/>
  <flow id="JF430643" begin="480" fromJunction="J5" toJunction="J7" end="540" vehsPerHour="202.2358102837882" departLane="free"/>
  <flow id="JF430644" begin="480" fromJunction="J6" toJunction="J0" end="540" vehsPerHour="220.23003699384526" departLane="free"/>
  <flow id="JF430645" begin="480" fromJunction="J6" toJunction="J3" end="540" vehsPerHour="248.1198993773557" departLane="free"/>
  <flow id="JF430646" begin="480" fromJunction="J6" toJunction="J4" end="540" vehsPerHour="169.5059350206786" departLane="free"/>
  <flow id="JF430647" begin="480" fromJunction="J6" toJunction="J5" end="540" vehsPerHour="182.47650678568132" departLane="free"/>
  <flow id="JF430648" begin="480" fromJunction="J6" toJunction="J7" end="540" vehsPerHour="264.68013977059127" departLane="free"/>
  <flow id="JF430649" begin="480" fromJunction="J7" toJunction="J0" end="540" vehsPerHour="142.61725503234163" departLane="free"/>
  <flow id="JF430650" begin="480" fromJunction="J7" toJunction="J4" end="540" vehsPerHour="52.49306810178524" departLane="free"/>
  <flow id="JF430651" begin="480" fromJunction="J7" toJunction="J5" end="540" vehsPerHour="21.41544047375338" departLane="free"/>
  <flow id="JF430652" begin="480" fromJunction="J7" toJunction="J6" end="540" vehsPerHour="50.21896748191139" departLane="free"/>
  <flow id="JF430653" begin="540" fromJunction="J0" toJunction="J3" end="600" vehsPerHour="74.10913665714025" departLane="free"/>
  <flow id="JF430654" begin="540" fromJunction="J0" toJunction="J5" end="600" vehsPerHour="442.11906757391085" departLane="free"/>
  <flow id="JF430655" begin="540" fromJunction="J0" toJunction="J6" end="600" vehsPerHour="303.5984758109997" departLane="free"/>
  <flow id="JF430656" begin="540" fromJunction="J3" toJunction="J0" end="600" vehsPerHour="516.4850636871797" departLane="free"/>
  <flow id="JF430657" begin="540" fromJunction="J3" toJunction="J6" end="600" vehsPerHour="519.8207421543556" departLane="free"/>
  <flow id="JF430658" begin="540" fromJunction="J5" toJunction="J0" end="600" vehsPerHour="43.56373885004847" departLane="free"/>
  <flow id="JF430659" begin="540" fromJunction="J5" toJunction="J3" end="600" vehsPerHour="213.4974680885793" departLane="free"/>
  <flow id="JF430660" begin="540" fromJunction="J5" toJunction="J4" end="600" vehsPerHour="209.25727367915061" departLane="free"/>
  <flow id="JF430661" begin="540" fromJunction="J5" toJunction="J7" end="600" vehsPerHour="142.45497420596402" departLane="free"/>
  <flow id="JF430662" begin="540" fromJunction="J6" toJunction="J0" end="600" vehsPerHour="143.37817320714157" departLane="free"/>
  <flow id="JF430663" begin="540" fromJunction="J6" toJunction="J3" end="600" vehsPerHour="162.32879288102598" departLane="free"/>
  <flow id="JF430664" begin="540" fromJunction="J6" toJunction="J7" end="600" vehsPerHour="234.6786557712267" departLane="free"/>
  <flow id="JF430665" begin="540" fromJunction="J7" toJunction="J0" end="600" vehsPerHour="142.96923093617323" departLane="free"/>
  <flow id="JF430666" begin="540" fromJunction="J7" toJunction="J6" end="600" vehsPerHour="85.77485288402829" departLane="free"/>
  <flow id="JF430667" begin="600" fromJunction="J0" toJunction="J3" end="660" vehsPerHour="451.01278127458227" departLane="free"/>
  <flow id="JF430668" begin="600" fromJunction="J0" toJunction="J4" end="660" vehsPerHour="294.8807361349019" departLane="free"/>
  <flow id="JF430669" begin="600" fromJunction="J0" toJunction="J5" end="660" vehsPerHour="151.86183901871385" departLane="free"/>
  <flow id="JF430670" begin="600" fromJunction="J0" toJunction="J7" end="660" vehsPerHour="408.469959851735" departLane="free"/>
  <flow id="JF430671" begin="600" fromJunction="J3" toJunction="J0" end="660" vehsPerHour="255.19856004058724" departLane="free"/>
  <flow id="JF430672" begin="600" fromJunction="J3" toJunction="J5" end="660" vehsPerHour="389.57191527472935" departLane="free"/>
  <flow id="JF430673" begin="600" fromJunction="J3" toJunction="J6" end="660" vehsPerHour="169.77023283874414" departLane="free"/>
  <flow id="JF430674" begin="600" fromJunction="J3" toJunction="J7" end="660" vehsPerHour="61.33067864583405" departLane="free"/>
  <flow id="JF430675" begin="600" fromJunction="J4" toJunction="J0" end="660" vehsPerHour="44.865186358430854" departLane="free"/>
  <flow id="JF430676" begin="600" fromJunction="J4" toJunction="J3" end="660" vehsPerHour="246.19099016564715" departLane="free"/>
  <flow id="JF430677" begin="600" fromJunction="J4" toJunction="J5" end="660" vehsPerHour="237.75149825949524" departLane="free"/>