<?xml version="1.0" encoding="UTF-8"?>
<routes xmlns:xsi="http://www.w3.org/2001/XMLSchema-instance" xsi:noNamespaceSchemaLocation="http://sumo.dlr.de/xsd/routes_file.xsd">
  <flow id="JF432166" begin="0" fromJunction="J0" toJunction="J3" end="60" vehsPerHour="180.03052353436573" departLane="free"/>
  <flow id="JF432167" begin="0" fromJunction="J0" toJunction="J4" end="60" vehsPerHour="225.29848303009774" departLane="free"/>
  <flow id="JF432168" begin="0" fromJunction="J0" toJunction="J5" end="60" vehsPerHour="105.81888917497525" departLane="free"/>
  <flow id="JF432169" begin="0" fromJunction="J0" toJunction="J6" end="60" vehsPerHour="188.75438351290393" departLane="free"/>
  <flow id="JF432170" begin="0" fromJunction="J0" toJunction="J7" end="60" vehsPerHour="110.45778604018116" departLane="free"/>
  <flow id="JF432171" begin="0" fromJunction="J3" toJunction="J6" end="60" vehsPerHour="162.65267622853156" departLane="free"/>
  <flow id="JF432172" begin="0" fromJunction="J4" toJunction="J0" end="60" vehsPerHour="142.29097449940252" departLane="free"/>
  <flow id="JF432173" begin="0" fromJunction="J4" toJunction="J3" end="60" vehsPerHour="72.68425189627051" departLane="free"/>
  <flow id="JF432174" begin="0" fromJunction="J4" toJunction="J5" end="60" vehsPerHour="157.07336562642996" departLane="free"/>
  <flow id="JF432175" begin="0" fromJunction="J4" toJunction="J7" end="60" vehsPerHour="36.61438308296334" departLane="free"/>
  <flow id="JF432176" begin="0" fromJunction="J5" toJunction="J0" end="60" vehsPerHour="132.11944212527698" departLane="free"/>
  <flow id="JF432177" begin="0" fromJunction="J5" toJunction="J3" end="60" vehsPerHour="10.838466930209648" departLane="free"/>
  <flow id="JF432178" begin="0" fromJunction="J5" toJunction="J4" end="60" vehsPerHour="140.15999528598175" departLane="free"/>
  <flow id="JF432179" begin="0" fromJunction="J5" toJunction="J7" end="60" vehsPerHour="24.325524452230137" departLane="free"/>
  <flow id="JF432180" begin="0" fromJunction="J6" toJunction="J0" end="60" vehsPerHour="224.5873489460846" departLane="free"/>
  <flow id="JF432181" begin="0" fromJunction="J6" toJunction="J3" end="60" vehsPerHour="239.14892576385208" departLane="free"/>
  <flow id="JF432182" begin="0" fromJunction="J6" toJunction="J4" end="60" vehsPerHour="249.9624201779411" departLane="free"/>
  <flow id="JF432183" begin="0" fromJunction="J6" toJunction="J5" end="60" vehsPerHour="53.306722336440004" departLane="free"/>
  <flow id="JF432184" begin="0" fromJunction="J6" toJunction="J7" end="60" vehsPerHour="55.89585525127939" departLane="free"/>
  <flow id="JF432185" begin="0" fromJunction="J7" toJunction="J0" end="60" vehsPerHour="18.36484867890975" departLane="free"/>
  <flow id="JF432186" begin="0" fromJunction="J7" toJunction="J3" end="60" vehsPerHour="255.61116351881148" departLane="free"/>
  <flow id="JF432187" begin="0" fromJunction="J7" toJunction="J5" end="60" vehsPerHour="15.563267706414802" departLane="free"/>
  <flow id="JF432188" begin="60" fromJunction="J0" toJunction="J3" end="120" vehsPerHour="208.19345707514654" departLane="free"/>
  <flow id="JF432189" begin="60" fromJunction="J0" toJunction="J5" end="120" vehsPerHour="401.43352767969077" departLane="free"/>
  <flow id="JF432190" begin="60" fromJunction="J0" toJunction="J6" end="120" vehsPerHour="114.8254978463566" departLane="free"/>
  <flow id="JF432191" begin="60" fromJunction="J0" toJunction="J7" end="120" vehsPerHour="243.49873741142693" departLane="free"/>
  <flow id="JF432192" begin="60" fromJunction="J3" toJunction="J0" end="120" vehsPerHour="320.8040110801064" departLane="free"/>
  <flow id="JF432193" begin="60" fromJunction="J3" toJunction="J4" end="120" vehsPerHour="204.88551504120215" departLane="free"/>
  <flow id="JF432194" begin="60" fromJunction="J3" toJunction="J5" end="120" vehsPerHour="344.2270166942905" departLane="free"/>
  <flow id="JF432195" begin="60" fromJunction="J3" toJunction="J6" end="120" vehsPerHour="268.64990900582654" departLane="free"/>
  <flow id="JF432196" begin="60" fromJunction="J3" toJunction="J7" end="120" vehsPerHour="135.99102023226925" departLane="free"/>
  <flow id="JF432197" begin="60" fromJunction="J4" toJunction="J0" end="120" vehsPerHour="193.28752965951375" departLane="free"/>
  <flow id="JF432198" begin="60" fromJunction="J4" toJunction="J5" end="120" vehsPerHour="202.73438147918256" departLane="free"/>
  <flow id="JF432199" begin="60" fromJunction="J4" toJunction="J6" end="120" vehsPerHour="240.34771751338317" departLane="free"/>
  <flow id="JF432200" begin="60" fromJunction="J4" toJunction="J7" end="120" vehsPerHour="133.31731131579747" departLane="free"/>
  <flow id="JF432201" begin="60" fromJunction="J5" toJunction="J0" end="120" vehsPerHour="95.74815214271919" departLane="free"/>
  <flow id="JF432202" begin="60" fromJunction="J5" toJunction="J6" end="120" vehsPerHour="264.11729196061344" departLane="free"/>
  <flow id="JF432203" begin="60" fromJunction="J5" toJunction="J7" end="120" vehsPerHour="4.130698834699561" departLane="free"/>
  <flow id="JF432204" begin="60" fromJunction="J6" toJunction="J0" end="120" vehsPerHour="50.61059597561049" departLane="free"/>
  <flow id="JF432205" begin="60" fromJunction="J7" toJunction="J0" end="120" vehsPerHour="85.97296843673703" departLane="free"/>
  <flow id="JF432206" begin="60" fromJunction="J7" toJunction="J3" end="120" vehsPerHour="173.31106929875284" departLane="free"/>
  <flow id="JF432207" begin="60" fromJunction="J7" toJunction="J4" end="120" vehsPerHour="16.05439823984482" departLane="free"/>
  <flow id="JF432208" begin="60" fromJunction="J7" toJunction="J5" end="120" vehsPerHour="76.85195374778404" departLane="free"/>
  <flow id="JF432209" begin="60" fromJunction="J7" toJunction="J6" end="120" vehsPerHour="74.63632914611772" departLane="free"/>
  <flow id="JF432210" begin="120" fromJunction="J0" toJunction="J3" end="180" vehsPerHour="132.75104499975683" departLane="free"/>
  <flow id="JF432211" begin="120" fromJunction="J0" toJunction="J4" end="180" vehsPerHour="401.751273457583" departLane="free"/>
  <flow id="JF432212" begin="120" fromJunction="J0" toJunction="J7" end="180" vehsPerHour="140.3949138419255" departLane="free"/>
  <flow id="JF432213" begin="120" fromJunction="J3" toJunction="J0" end="180" vehsPerHour="328.79450214122306" departLane="free"/>
  <flow id="JF432214" begin="120" fromJunction="J3" toJunction="J4" end="180" vehsPerHour="234.98307859634133" departLane="free"/>
  <flow id="JF432215" begin="120" fromJunction="J3" toJunction="J5" end="180" vehsPerHour="535.625935495065" departLane="free"/>
  <flow id="JF432216" begin="120" fromJunction="J3" toJunction="J7" end="180" vehsPerHour="308.23005579363627" departLane="free"/>
  <flow id="JF432217" begin="120" fromJunction="J4" toJunction="J0" end="180" vehsPerHour="156.34586383720128" departLane="free"/>
  <flow id="JF432218" begin="120" fromJunction="J4" toJunction="J3" end="180" vehsPerHour="170.76550102248476" departLane="free"/>
  <flow id="JF432219" begin="120" fromJunction="J4" toJunction="J5" end="180" vehsPerHour="103.69160655899294" departLane="free"/>
  <flow id="JF432220" begin="120" fromJunction="J5" toJunction="J3" end="180" vehsPerHour="233.83497807143206" departLane="free"/>
  <flow id="JF432221" begin="120" fromJunction="J5" toJunction="J4" end="180" vehsPerHour="193.3725426299234" departLane="free"/>
  <flow id="JF432222" begin="120" fromJunction="J5" toJunction="J6" end="180" vehsPerHour="247.11491928228756" departLane="free"/>
  <flow id="JF432223" begin="120" fromJunction="J6" toJunction="J0" end="180" vehsPerHour="32.0769248763316" departLane="free"/>
  <flow id="JF432224" begin="120" fromJunction="J6" toJunction="J4" end="180" vehsPerHour="42.186392574431" departLane="free"/>
  <flow id="JF432225" begin="120" fromJunction="J6" toJunction="J5" end="180" vehsPerHour="235.76125187507932" departLane="free"/>
  <flow id="JF432226" begin="120" fromJunction="J7" toJunction="J0" end="180" vehsPerHour="233.1780996304533" departLane="free"/>
  <flow id="JF432227" begin="120" fromJunction="J7" toJunction="J4" end="180" vehsPerHour="74.1108377724211" departLane="free"/>
  <flow id="JF432228" begin="120" fromJunction="J7" toJunction="J6" end="180" vehsPerHour="220.45504207573438" departLane="free"/>
  <flow id="JF432229" begin="180" fromJunction="J3" toJunction="J0" end="240" vehsPerHour="126.20866723057273" departLane="free"/>
  <flow id="JF432230" begin="180" fromJunction="J3" toJunction="J4" end="240" vehsPerHour="408.3868401145851" departLane="free"/>
  <flow id="JF432231" begin="180" fromJunction="J3" toJunction="J6" end="240" vehsPerHour="485.9518263332677" departLane="free"/>
  <flow id="JF432232" begin="180" fromJunction="J3" toJunction="J7" end="240" vehsPerHour="218.49450151579836" departLane="free"/>
  <flow id="JF432233" begin="180" fromJunction="J4" toJunction="J0" end="240" vehsPerHour="197.48989314308017" departLane="free"/>
  <flow id="JF432234" begin="180" fromJunction="J4" toJunction="J3" end="240" vehsPerHour="47.007122588135125" departLane="free"/>
  <flow id="JF432235" begin="180" fromJunction="J4" toJunction="J5" end="240" vehsPerHour="12.514252659596579" departLane="free"/>
  <flow id="JF432236" begin="180" fromJunction="J4" toJunction="J6" end="240" vehsPerHour="155.3174867248119" departLane="free"/>
  <flow id="JF432237" begin="180" fromJunction="J4" toJunction="J7" end="240" vehsPerHour="69.4512810294271" departLane="free"/>
  <flow id="JF432238" begin="180" fromJunction="J5" toJunction="J0" end="240" vehsPerHour="107.60636649027263" departLane="free"/>
  <flow id="JF432239" begin="180" fromJunction="J5" toJunction="J3" end="240" vehsPerHour="212.38550214791704" departLane="free"/>
  <flow id="JF432240" begin="180" fromJunction="J5" toJunction="J4" end="240" vehsPerHour="266.95869787486043" departLane="free"/>
  <flow id="JF432241" begin="180" fromJunction="J5" toJunction="J7" end="240" vehsPerHour="153.32766432044974" departLane="free"/>
  <flow id="JF432242" begin="180" fromJunction="J6" toJunction="J0" end="240" vehsPerHour="50.53269222788382" departLane="free"/>
  <flow id="JF432243" begin="180" fromJunction="J6" toJunction="J3" end="240" vehsPerHour="273.1397122666417" departLane="free"/>
  <flow id="JF432244" begin="180" fromJunction="J6" toJunction="J5" end="240" vehsPerHour="103.55069257132902" departLane="free"/>
  <flow id="JF432245" begin="180" fromJunction="J6" toJunction="J7" end="240" vehsPerHour="239.13272524798296" departLane="free"/>
  <flow id="JF432246" begin="180" fromJunction="J7" toJunction="J0" end="240" vehsPerHour="142.42273716492713" departLane="free"/>
  <flow id="JF432247" begin="180" fromJunction="J7" toJunction="J3" end="240" vehsPerHour="218.28403370719167" departLane="free"/>
  <flow id="JF432248" begin="180" fromJunction="J7" toJunction="J5" end="240" vehsPerHour="95.93141824341279" departLane="free"/>
  <flow id="JF432249" begin="240" fromJunction="J0" toJunction="J3" end="300" vehsPerHour="397.542529913706" departLane="free"/>
  <flow id="JF432250" begin="240" fromJunction="J0" toJunction="J4" end="300" vehsPerHour="301.4963587004263" departLane="free"/>
  <flow id="JF432251" begin="240" fromJunction="J0" toJunction="J6" end="300" vehsPerHour="394.6186050034111" departLane="free"/>
  <flow id="JF432252" begin="240" fromJunction="J3" toJunction="J0" end="300" vehsPerHour="474.9076605073687" departLane="free"/>
  <flow id="JF432253" begin="240" fromJunction="J3" toJunction="J4" end="300" vehsPerHour="378.9804070390509" departLane="free"/>
  <flow id="JF432254" begin="240" fromJunction="J3" toJunction="J5" end="300" vehsPerHour="0.8244570145397851" departLane="free"/>
  <flow id="JF432255" begin="240" fromJunction="J3" toJunction="J6" end="300" vehsPerHour="193.14561977809743" departLane="free"/>
  <flow id="JF432256" begin="240" fromJunction="J3" toJunction="J7" end="300" vehsPerHour="312.5887150845317" departLane="free"/>
  <flow id="JF432257" begin="240" fromJunction="J4" toJunction="J0" end="300" vehsPerHour="196.07886176546728" departLane="free"/>
  <flow id="JF432258" begin="240" fromJunction="J4" toJunction="J3" end="300" vehsPerHour="76.08611520198099" departLane="free"/>
  <flow id="JF432259" begin="240" fromJunction="J4" toJunction="J6" end="300" vehsPerHour="71.64477942496883" departLane="free"/>
  <flow id="JF432260" begin="240" fromJunction="J5" toJunction="J0" end="300" vehsPerHour="63.467423080876834" departLane="free"/>
  <flow id="JF432261" begin="240" fromJunction="J5" toJunction="J3" end="300" vehsPerHour="121.44843459948319" departLane="free"/>
  <flow id="JF432262" begin="240" fromJunction="J5" toJunction="J6" end="300" vehsPerHour="210.56855383138503" departLane="free"/>
  <flow id="JF432263" begin="240" fromJunction="J6" toJunction="J0" end="300" vehsPerHour="1.4493646055233798" departLane="free"/>
  <flow id="JF432264" begin="240" fromJunction="J6" toJunction="J3" end="300" vehsPerHour="160.21292068002393" departLane="free"/>
  <flow id="JF432265" begin="240" fromJunction="J6" toJunction="J4" end="300" vehsPerHour="168.13454692063328" departLane="free"/>
  <flow id="JF432266" begin="240" fromJunction="J6" toJunction="J5" end="300" vehsPerHour="45.248930204678835" departLane="free"/>
  <flow id="JF432267" begin="240" fromJunction="J6" toJunction="J7" end="300" vehsPerHour="180.97769078506332" departLane="free"/>
  <flow id="JF432268" begin="240" fromJunction="J7" toJunction="J0" end="300" vehsPerHour="141.45350694022932" departLane="free"/>
  <flow id="JF432269" begin="240" fromJunction="J7" toJunction="J3" end="300" vehsPerHour="98.40517809288467" departLane="free"/>
  <flow id="JF432270" begin="240" fromJunction="J7" toJunction="J4" end="300" vehsPerHour="119.12744119223989" departLane="free"/>
  <flow id="JF432271" begin="240" fromJunction="J7" toJunction="J5" end="300" vehsPerHour="61.05588016704008" departLane="free"/>
  <flow id="JF432272" begin="240" fromJunction="J7" toJunction="J6" end="300" vehsPerHour="62.19239268789385" departLane="free"/>
  <flow id="JF432273" begin="300" fromJunction="J0" toJunction="J3" end="360" vehsPerHour="105.09150252816475" departLane="free"/>
  <flow id="JF432274" begin="300" fromJunction="J0" toJunction="J4" end="360" vehsPerHour="538.0284111634861" departLane="free"/>
  <flow id="JF432275" begin="300" fromJunction="J0" toJunction="J5" end="360" vehsPerHour="153.79650422456058" departLane="free"/>
  <flow id="JF432276" begin="300" fromJunction="J0" toJunction="J6" end="360" vehsPerHour="457.918105536383" departLane="free"/>
  <flow id="JF432277" begin="300" fromJunction="J0" toJunction="J7" end="360" vehsPerHour="523.5342451855698" departLane="free"/>
  <flow id="JF432278" begin="300" fromJunction="J3" toJunction="J0" end="360" vehsPerHour="250.3595839253372" departLane="free"/>
  <flow id="JF432279" begin="300" fromJunction="J3" toJunction="J4" end="360" vehsPerHour="275.53455521738357" departLane="free"/>
  <flow id="JF432280" begin="300" fromJunction="J3" toJunction="J5" end="360" vehsPerHour="385.30656032824584" departLane="free"/>
  <flow id="JF432281" begin="300" fromJunction="J4" toJunction="J3" end="360" vehsPerHour="16.174518972648436" departLane="free"/>
  <flow id="JF432282" begin="300" fromJunction="J4" toJunction="J5" end="360" vehsPerHour="186.44527027743348" departLane="free"/>
  <flow id="JF432283" begin="300" fromJunction="J4" toJunction="J6" end="360" vehsPerHour="12.8756202112083" departLane="free"/>
  <flow id="JF432284" begin="300" fromJunction="J5" toJunction="J4" end="360" vehsPerHour="12.180779384170627" departLane="free"/>
  <flow id="JF432285" begin="300" fromJunction="J5" toJunction="J6" end="360" vehsPerHour="33.19781769537986" departLane="free"/>
  <flow id="JF432286" begin="300" fromJunction="J5" toJunction="J7" end="360" vehsPerHour="260.2370646733152" departLane="free"/>
  <flow id="JF432287" begin="300" fromJunction="J6" toJunction="J0" end="360" vehsPerHour="154.18005842703792" departLane="free"/>
  <flow id="JF432288" begin="300" fromJunction="J6" toJunction="J3" end="360" vehsPerHour="267.73125845108456" departLane="free"/>
  <flow id="JF432289" begin="300" fromJunction="J6" toJunction="J4" end="360" vehsPerHour="120.32643701991142" departLane="free"/>
  <flow id="JF432290" begin="300" fromJunction="J6" toJunction="J5" end="360" vehsPerHour="198.6760913717106" departLane="free"/>
  <flow id="JF432291" begin="300" fromJunction="J7" toJunction="J0" end="360" vehsPerHour="252.97637153544417" departLane="free"/>
  <flow id="JF432292" begin="300" fromJunction="J7" toJunction="J3" end="360" vehsPerHour="229.39317600365652" departLane="free"/>
  <flow id="JF432293" begin="300" fromJunction="J7" toJunction="J5" end="360" vehsPerHour="8.613576132285145" departLane="free"/>
  <flow id="JF432294" begin="300" fromJunction="J7" toJunction="J6" end="360" vehsPerHour="137.96712122320878" departLane="free"/>
  <flow id="JF432295" begin="360" fromJunction="J0" toJunction="J3" end="420" vehsPerHour="387.9330397432425" departLane="free"/>
  <flow id="JF432296" begin="360" fromJunction="J0" toJunction="J4" end="420" vehsPerHour="95.20777159988988" departLane="free"/>
  <flow id="JF432297" begin="360" fromJunction="J0" toJunction="J5" end="420" vehsPerHour="331.6164737511017" departLane="free"/>
  <flow id="JF432298" begin="360" fromJunction="J0" toJunction="J6" end="420" vehsPerHour="271.57280595313637" departLane="free"/>
  <flow id="JF432299" begin="360" fromJunction="J3" toJunction="J0" end="420" vehsPerHour="533.7991864829335" departLane="free"/>
  <flow id="JF432300" begin="360" fromJunction="J3" toJunction="J4" end="420" vehsPerHour="134.59549303113835" departLane="free"/>
  <flow id="JF432301" begin="360" fromJunction="J3" toJunction="J6" end="420" vehsPerHour="54.26811512678607" departLane="free"/>
  <flow id="JF432302" begin="360" fromJunction="J3" toJunction="J7" end="420" vehsPerHour="373.9333918783447" departLane="free"/>
  <flow id="JF432303" begin="360" fromJunction="J4" toJunction="J0" end="420" vehsPerHour="64.46369702858571" departLane="free"/>
  <flow id="JF432304" begin="360" fromJunction="J4" toJunction="J3" end="420" vehsPerHour="94.41637121934262" departLane="free"/>
  <flow id="JF432305" begin="360" fromJunction="J4" toJunction="J5" end="420" vehsPerHour="124.9371537636004" departLane="free"/>
  <flow id="JF432306" begin="360" fromJunction="J4" toJunction="J6" end="420" vehsPerHour="94.4738891768359" departLane="free"/>
  <flow id="JF432307" begin="360" fromJunction="J4" toJunction="J7" end="420" vehsPerHour="266.1288087433133" departLane="free"/>
  <flow id="JF432308" begin="360" fromJunction="J5" toJunction="J0" end="420" vehsPerHour="19.748100660517547" departLane="free"/>
  <flow id="JF432309" begin="360" fromJunction="J5" toJunction="J3" end="420" vehsPerHour="256.48603978417805" departLane="free"/>
  <flow id="JF432310" begin="360" fromJunction="J5" toJunction="J6" end="420" vehsPerHour="4.122094799861184" departLane="free"/>
  <flow id="JF432311" begin="360" fromJunction="J5" toJunction="J7" end="420" vehsPerHour="172.81329876502224" departLane="free"/>
  <flow id="JF432312" begin="360" fromJunction="J6" toJunction="J0" end="420" vehsPerHour="61.913985627574675" departLane="free"/>
  <flow id="JF432313" begin="360" fromJunction="J6" toJunction="J3" end="420" vehsPerHour="44.89797684089383" departLane="free"/>
  <flow id="JF432314" begin="360" fromJunction="J6" toJunction="J4" end="420" vehsPerHour="215.58228565802645" departLane="free"/>
  <flow id="JF432315" begin="360" fromJunction="J6" toJunction="J5" end="420" vehsPerHour="62.62889828165471" departLane="free"/>
  <flow id="JF432316" begin="360" fromJunction="J6" toJunction="J7" end="420" vehsPerHour="9.81490491463467" departLane="free"/>
  <flow id="JF432317" begin="360" fromJunction="J7" toJunction="J3" end="420" vehsPerHour="214.5640792285235" departLane="free"/>
  <flow id="JF432318" begin="360" fromJunction="J7" toJunction="J5" end="420" vehsPerHour="26.82042015686358" departLane="free"/>
  <flow id="JF432319" begin="420" fromJunction="J0" toJunction="J3" end="480" vehsPerHour="38.59945348435237" departLane="free"/>
  <flow id="JF432320" begin="420" fromJunction="J0" toJunction="J4" end="480" vehsPerHour="288.4890250984242" departLane="free"/>
  <flow id="JF432321" begin="420" fromJunction="J0" toJunction="J5" end="480" vehsPerHour="208.68954375463608" departLane="free"/>
  <flow id="JF432322" begin="420" fromJunction="J0" toJunction="J6" end="480" vehsPerHour="210.39768045496695" departLane="free"/>
  <flow id="JF432323" begin="420" fromJunction="J0" toJunction="J7" end="480" vehsPerHour="447.64917784117006" departLane="free"/>
  <flow id="JF432324" begin="420" fromJunction="J3" toJunction="J0" end="480" vehsPerHour="445.97859412778934" departLane="free"/>
  <flow id="JF432325" begin="420" fromJunction="J3" toJunction="J4" end="480" vehsPerHour="212.92270061348793" departLane="free"/>
  <flow id="JF432326" begin="420" fromJunction="J3" toJunction="J5" end="480" vehsPerHour="195.63077481675887" departLane="free"/>
  <flow id="JF432327" begin="420" fromJunction="J3" toJunction="J6" end="480" vehsPerHour="5.175246163427497" departLane="free"/>
  <flow id="JF432328" begin="420" fromJunction="J3" toJunction="J7" end="480" vehsPerHour="279.8665015882127" departLane="free"/>
  <flow id="JF432329" begin="420" fromJunction="J4" toJunction="J0" end="480" vehsPerHour="140.17436751352065" departLane="free"/>
  <flow id="JF432330" begin="420" fromJunction="J4" toJunction="J3" end="480" vehsPerHour="218.80861756120103" departLane="free"/>
  <flow id="JF432331" begin="420" fromJunction="J4" toJunction="J6" end="480" vehsPerHour="8.345014846964634" departLane="free"/>
  <flow id="JF432332" begin="420" fromJunction="J4" toJunction="J7" end="480" vehsPerHour="238.8616843320471" departLane="free"/>
  <flow id="JF432333" begin="420" fromJunction="J5" toJunction="J0" end="480" vehsPerHour="117.9123893073952" departLane="free"/>
  <flow id="JF432334" begin="420" fromJunction="J5" toJunction="J3" end="480" vehsPerHour="82.14143204863889" departLane="free"/>
  <flow id="JF432335" begin="420" fromJunction="J5" toJunction="J6" end="480" vehsPerHour="41.849755257841515" departLane="free"/>
  <flow id="JF432336" begin="420" fromJunction="J6" toJunction="J0" end="480" vehsPerHour="103.77272085120497" departLane="free"/>
  <flow id="JF432337" begin="420" fromJunction="J6" toJunction="J3" end="480" vehsPerHour="134.97032313663902" departLane="free"/>
  <flow id="JF432338" begin="420" fromJunction="J6" toJunction="J5" end="480" vehsPerHour="65.05355347233167" departLane="free"/>
  <flow id="JF432339" begin="420" fromJunction="J6" toJunction="J7" end="480" vehsPerHour="152.38767111788454" departLane="free"/>
  <flow id="JF432340" begin="420" fromJunction="J7" toJunction="J0" end="480" vehsPerHour="168.63447469289676" departLane="free"/>
  <flow id="JF432341" begin="420" fromJunction="J7" toJunction="J3" end="480" vehsPerHour="233.77730475956668" departLane="free"/>
  <flow id="JF432342" begin="420" fromJunction="J7" toJunction="J4" end="480" vehsPerHour="188.90496002051847" departLane="free"/>
  <flow id="JF432343" begin="420" fromJunction="J7" toJunction="J5" end="480" vehsPerHour="6.6324297524503715" departLane="free"/>
  <flow id="JF432344" begin="420" fromJunction="J7" toJunction="J6" end="480" vehsPerHour="267.66906903091007" departLane="free"/>
  <flow id="JF432345" begin="480" fromJunction="J0" toJunction="J3" end="540" vehsPerHour="67.59727315038187" departLane="free"/>
  <flow id="JF432346" begin="480" fromJunction="J0" toJunction="J4" end="540" vehsPerHour="451.2179247340854" departLane="free"/>
  <flow id="JF432347" begin="480" fromJunction="J0" toJunction="J5" end="540" vehsPerHour="458.76977422701475" departLane="free"/>
  <flow id="JF432348" begin="480" fromJunction="J0" toJunction="J6" end="540" vehsPerHour="415.41507571383084" departLane="free"/>
  <flow id="JF432349" begin="480" fromJunction="J0" toJunction="J7" end="540" vehsPerHour="304.2256689575023" departLane="free"/>
  <flow id="JF432350" begin="480" fromJunction="J3" toJunction="J4" end="540" vehsPerHour="158.46807881668553" departLane="free"/>
  <flow id="JF432351" begin="480" fromJunction="J3" toJunction="J5" end="540" vehsPerHour="248.97175108214773" departLane="free"/>
  <flow id="JF432352" begin="480" fromJunction="J3" toJunction="J6" end="540" vehsPerHour="58.8136352028673" departLane="free"/>
  <flow id="JF432353" begin="480" fromJunction="J3" toJunction="J7" end="540" vehsPerHour="483.61810362186463" departLane="free"/>
  <flow id="JF432354" begin="480" fromJunction="J4" toJunction="J0" end="540" vehsPerHour="205.5273277299407" departLane="free"/>
  <flow id="JF432355" begin="480" fromJunction="J4" toJunction="J3" end="540" vehsPerHour="103.08279884577676" departLane="free"/>
  <flow id="JF432356" begin="480" fromJunction="J4" toJunction="J6" end="540" vehsPerHour="159.8686813479438" departLane="free"/>
  <flow id="JF432357" begin="480" fromJunction="J4" toJunction="J7" end="540" vehsPerHour="67.74599002376148" departLane="free"/>
  <flow id="JF432358" begin="480" fromJunction="J5" toJunction="J0" end="540" vehsPerHour="137.5488689271123" departLane="free"/>
  <flow id="JF432359" begin="480" fromJunction="J5" toJunction="J3" end="540" vehsPerHour="168.08299016119997" departLane="free"/>
  <flow id="JF432360" begin="480" fromJunction="J5" toJunction="J4" end="540" vehsPerHour="117.48758845216159" departLane="free"/>
  <flow id="JF432361" begin="480" fromJunction="J5" toJunction="J7" end="540" vehsPerHour="10.521274492782062" departLane="free"/>
  <flow id="JF432362" begin="480" fromJunction="J6" toJunction="J0" end="540" vehsPerHour="77.68797511719517" departLane="free"/>
  <flow id="JF432363" begin="480" fromJunction="J6" toJunction="J3" end="540" vehsPerHour="121.89930942915058" departLane="free"/>
  <flow id="JF432364" begin="480" fromJunction="J6" toJunction="J4" end="540" vehsPerHour="81.51960370850884" departLane="free"/>
  <flow id="JF432365" begin="480" fromJunction="J6" toJunction="J5" end="540" vehsPerHour="44.668116473430636" departLane="free"/>
  <flow id="JF432366" begin="480" fromJunction="J6" toJunction="J7" end="540" vehsPerHour="12.63640149846177" departLane="free"/>
  <flow id="JF432367" begin="480" fromJunction="J7" toJunction="J0" end="540" vehsPerHour="165.94806943635155" departLane="free"/>
  <flow id="JF432368" begin="480" fromJunction="J7" toJunction="J3" end="540" vehsPerHour="81.4303536875348" departLane="free"/>
  <flow id="JF432369" begin="480" fromJunction="J7" toJunction="J6" end="540" vehsPerHour="133.17187796064093" departLane="free"/>
  <flow id="JF432370" begin="540" fromJunction="J0" toJunction="J3" end="600" vehsPerHour="429.19007502259416" departLane="free"/>
  <flow id="JF432371" begin="540" fromJunction="J0" toJunction="J7" end="600" vehsPerHour="316.0847320689357" departLane="free"/>
  <flow id="JF432372" begin="540" fromJunction="J3" toJunction="J0" end="600" vehsPerHour="420.6069161652114" departLane="free"/>
  <flow id="JF432373" begin="540" fromJunction="J3" toJunction="J4" end="600" vehsPerHour="151.42573869807586" departLane="free"/>
  <flow id="JF432374" begin="540" fromJunction="J4" toJunction="J0" end="600" vehsPerHour="166.79409177015268" departLane="free"/>
  <flow id="JF432375" begin="540" fromJunction="J4" toJunction="J3" end="600" vehsPerHour="94.62763146704503" departLane="free"/>
  <flow id="JF432376" begin="540" fromJunction="J4" toJunction="J5" end="600" vehsPerHour="215.90911978367032" departLane="free"/>
  <flow id="JF432377" begin="540" fromJunction="J4" toJunction="J6" end="600" vehsPerHour="64.7365960738163" departLane="free"/>
  <flow id="JF432378" begin="540" fromJunction="J4" toJunction="J7" end="600" vehsPerHour="20.607697332365653" departLane="free"/>
  <flow id="JF432379" begin="540" fromJunction="J5" toJunction="J3" end="600" vehsPerHour="136.11510681416323" departLane="free"/>
  <flow id="JF432380" begin="540" fromJunction="J5" toJunction="J4" end="600" vehsPerHour="224.72680088191754" departLane="free"/>
  <flow id="JF432381" begin="540" fromJunction="J6" toJunction="J0" end="600" vehsPerHour="79.4815603291064" departLane="free"/>
  <flow id="JF432382" begin="540" fromJunction="J6" toJunction="J3" end="600" vehsPerHour="59.92614918346339" departLane="free"/>
  <flow id="JF432383" begin="540" fromJunction="J6" toJunction="J4" end="600" vehsPerHour="249.67703104136456" departLane="free"/>
  <flow id="JF432384" begin="540" fromJunction="J6" toJunction="J5" end="600" vehsPerHour="184.754897945197" departLane="free"/>
  <flow id="JF432385" begin="540" fromJunction="J6" toJunction="J7" end="600" vehsPerHour="227.66681717293287" departLane="free"/>
  <flow id="JF432386" begin="540" fromJunction="J7" toJunction="J3" end="600" vehsPerHour="10.801999531696303" departLane="free"/>
  <flow id="JF432387" begin="540" fromJunction="J7" toJunction="J4" end="600" vehsPerHour="60.146165131481176" departLane="free"/>
  <flow id="JF432388" begin="540" fromJunction="J7" toJunction="J5" end="600" vehsPerHour="176.19692248511006" departLane="free"/>
  <flow id="JF432389" begin="600" fromJunction="J0" toJunction="J6" end="660" vehsPerHour="210.86420216186193" departLane="free"/>
  <flow id="JF432390" begin="600" fromJunction="J3" toJunction="J0" end="660" vehsPerHour="108.0718688334959" departLane="free"/>
  <flow id="JF432391" begin="600" fromJunction="J3" toJunction="J4" end="660" vehsPerHour="488.9688927689482" departLane="free"/>
  <flow id="JF432392" begin="600" fromJunction="J3" toJunction="J5" end="660" vehsPerHour="47.725225277571155" departLane="free"/>
  <flow id="JF432393" begin="600" fromJunction="J3" toJunction="J6" end="660" vehsPerHour="494.9202243958189" departLane="free"/>
  <flow id="JF432394" begin="600" fromJunction="J4" toJunction="J0" end="660" vehsPerHour="159.61809781530067" departLane="free"/>