<?xml version="1.0" encoding="UTF-8"?>
<routes xmlns:xsi="http://www.w3.org/2001/XMLSchema-instance" xsi:noNamespaceSchemaLocation="http://sumo.dlr.de/xsd/routes_file.xsd">
  <flow id="JF433946" begin="0" fromJunction="J0" toJunction="J4" end="60" vehsPerHour="396.18976664469983" departLane="free"/>
  <flow id="JF433947" begin="0" fromJunction="J0" toJunction="J5" end="60" vehsPerHour="261.6494329795695" departLane="free"/>
  <flow id="JF433948" begin="0" fromJunction="J0" toJunction="J6" end="60" vehsPerHour="1.8963258328090293" departLane="free"/>
  <flow id="JF433949" begin="0" fromJunction="J0" toJunction="J7" end="60" vehsPerHour="195.47481786412504" departLane="free"/>
  <flow id="JF433950" begin="0" fromJunction="J3" toJunction="J0" end="60" vehsPerHour="117.69221149128435" departLane="free"/>
  <flow id="JF433951" begin="0" fromJunction="J3" toJunction="J4" end="60" vehsPerHour="413.8289274559023" departLane="free"/>
  <flow id="JF433952" begin="0" fromJunction="J3" toJunction="J5" end="60" vehsPerHour="197.38332393320593" departLane="free"/>
  <flow id="JF433953" begin="0" fromJunction="J3" toJunction="J6" end="60" vehsPerHour="89.2535443001681" departLane="free"/>
  <flow id="JF433954" begin="0" fromJunction="J4" toJunction="J0" end="60" vehsPerHour="7.267381409441553" departLane="free"/>
  <flow id="JF433955" begin="0" fromJunction="J4" toJunction="J3" end="60" vehsPerHour="102.15564787371468" departLane="free"/>
  <flow id="JF433956" begin="0" fromJunction="J4" toJunction="J5" end="60" vehsPerHour="77.12197173935672" departLane="free"/>
  <flow id="JF433957" begin="0" fromJunction="J4" toJunction="J6" end="60" vehsPerHour="232.691211039221" departLane="free"/>
  <flow id="JF433958" begin="0" fromJunction="J4" toJunction="J7" end="60" vehsPerHour="1.1274903354162533" departLane="free"/>
  <flow id="JF433959" begin="0" fromJunction="J5" toJunction="J0" end="60" vehsPerHour="207.94875077017454" departLane="free"/>
  <flow id="JF433960" begin="0" fromJunction="J5" toJunction="J4" end="60" vehsPerHour="120.22240660837487" departLane="free"/>
  <flow id="JF433961" begin="0" fromJunction="J5" toJunction="J6" end="60" vehsPerHour="178.57317008262902" departLane="free"/>
  <flow id="JF433962" begin="0" fromJunction="J6" toJunction="J0" end="60" vehsPerHour="263.354171095075" departLane="free"/>
  <flow id="JF433963" begin="0" fromJunction="J6" toJunction="J3" end="60" vehsPerHour="160.9045825172878" departLane="free"/>
  <flow id="JF433964" begin="0" fromJunction="J6" toJunction="J4" end="60" vehsPerHour="29.423422011666933" departLane="free"/>
  <flow id="JF433965" begin="0" fromJunction="J6" toJunction="J5" end="60" vehsPerHour="103.61505008043902" departLane="free"/>
  <flow id="JF433966" begin="0" fromJunction="J7" toJunction="J4" end="60" vehsPerHour="106.0520162953765" departLane="free"/>
  <flow id="JF433967" begin="0" fromJunction="J7" toJunction="J5" end="60" vehsPerHour="20.367545564715577" departLane="free"/>
  <flow id="JF433968" begin="0" fromJunction="J7" toJunction="J6" end="60" vehsPerHour="127.65482155514361" departLane="free"/>
  <flow id="JF433969" begin="60" fromJunction="J0" toJunction="J3" end="120" vehsPerHour="17.66568119366401" departLane="free"/>
  <flow id="JF433970" begin="60" fromJunction="J0" toJunction="J4" end="120" vehsPerHour="422.23959148735315" departLane="free"/>
  <flow id="JF433971" begin="60" fromJunction="J0" toJunction="J6" end="120" vehsPerHour="343.2302717258344" departLane="free"/>
  <flow id="JF433972" begin="60" fromJunction="J3" toJunction="J0" end="120" vehsPerHour="463.38100514783633" departLane="free"/>
  <flow id="JF433973" begin="60" fromJunction="J3" toJunction="J4" end="120" vehsPerHour="342.4111978144554" departLane="free"/>
  <flow id="JF433974" begin="60" fromJunction="J3" toJunction="J5" end="120" vehsPerHour="15.730476242812049" departLane="free"/>
  <flow id="JF433975" begin="60" fromJunction="J3" toJunction="J6" end="120" vehsPerHour="544.743080816701" departLane="free"/>
  <flow id="JF433976" begin="60" fromJunction="J3" toJunction="J7" end="120" vehsPerHour="256.96905496089033" departLane="free"/>
  <flow id="JF433977" begin="60" fromJunction="J4" toJunction="J0" end="120" vehsPerHour="137.63134827621596" departLane="free"/>
  <flow id="JF433978" begin="60" fromJunction="J4" toJunction="J3" end="120" vehsPerHour="235.09585063268432" departLane="free"/>
  <flow id="JF433979" begin="60" fromJunction="J4" toJunction="J5" end="120" vehsPerHour="265.7961778069108" departLane="free"/>
  <flow id="JF433980" begin="60" fromJunction="J4" toJunction="J6" end="120" vehsPerHour="198.90558866082912" departLane="free"/>
  <flow id="JF433981" begin="60" fromJunction="J4" toJunction="J7" end="120" vehsPerHour="7.527039814401421" departLane="free"/>
  <flow id="JF433982" begin="60" fromJunction="J5" toJunction="J0" end="120" vehsPerHour="11.524140830372374" departLane="free"/>
  <flow id="JF433983" begin="60" fromJunction="J5" toJunction="J3" end="120" vehsPerHour="137.410702690181" departLane="free"/>
  <flow id="JF433984" begin="60" fromJunction="J5" toJunction="J4" end="120" vehsPerHour="142.49299373567285" departLane="free"/>
  <flow id="JF433985" begin="60" fromJunction="J5" toJunction="J6" end="120" vehsPerHour="50.63436735959928" departLane="free"/>
  <flow id="JF433986" begin="60" fromJunction="J5" toJunction="J7" end="120" vehsPerHour="65.22521178802792" departLane="free"/>
  <flow id="JF433987" begin="60" fromJunction="J6" toJunction="J0" end="120" vehsPerHour="109.64178255063372" departLane="free"/>
  <flow id="JF433988" begin="60" fromJunction="J6" toJunction="J4" end="120" vehsPerHour="151.61385416977566" departLane="free"/>
  <flow id="JF433989" begin="60" fromJunction="J6" toJunction="J5" end="120" vehsPerHour="185.16791446164333" departLane="free"/>
  <flow id="JF433990" begin="60" fromJunction="J6" toJunction="J7" end="120" vehsPerHour="99.06265683552849" departLane="free"/>
  <flow id="JF433991" begin="60" fromJunction="J7" toJunction="J5" end="120" vehsPerHour="200.0247431581872" departLane="free"/>
  <flow id="JF433992" begin="60" fromJunction="J7" toJunction="J6" end="120" vehsPerHour="228.28189990496847" departLane="free"/>
  <flow id="JF433993" begin="120" fromJunction="J0" toJunction="J7" end="180" vehsPerHour="418.7619990888742" departLane="free"/>
  <flow id="JF433994" begin="120" fromJunction="J3" toJunction="J0" end="180" vehsPerHour="62.06999324387832" departLane="free"/>
  <flow id="JF433995" begin="120" fromJunction="J3" toJunction="J5" end="180" vehsPerHour="36.68152668216562" departLane="free"/>
  <flow id="JF433996" begin="120" fromJunction="J3" toJunction="J6" end="180" vehsPerHour="444.90963703562863" departLane="free"/>
  <flow id="JF433997" begin="120" fromJunction="J3" toJunction="J7" end="180" vehsPerHour="238.83550833795454" departLane="free"/>
  <flow id="JF433998" begin="120" fromJunction="J4" toJunction="J0" end="180" vehsPerHour="207.94775909833277" departLane="free"/>
  <flow id="JF433999" begin="120" fromJunction="J4" toJunction="J5" end="180" vehsPerHour="146.89356268095747" departLane="free"/>
  <flow id="JF434000" begin="120" fromJunction="J4" toJunction="J7" end="180" vehsPerHour="202.95828096608273" departLane="free"/>
  <flow id="JF434001" begin="120" fromJunction="J5" toJunction="J0" end="180" vehsPerHour="3.071092821480785" departLane="free"/>
  <flow id="JF434002" begin="120" fromJunction="J5" toJunction="J6" end="180" vehsPerHour="135.31038826706495" departLane="free"/>
  <flow id="JF434003" begin="120" fromJunction="J5" toJunction="J7" end="180" vehsPerHour="249.04381557817877" departLane="free"/>
  <flow id="JF434004" begin="120" fromJunction="J6" toJunction="J3" end="180" vehsPerHour="129.57000918408102" departLane="free"/>
  <flow id="JF434005" begin="120" fromJunction="J6" toJunction="J4" end="180" vehsPerHour="137.1685039756766" departLane="free"/>
  <flow id="JF434006" begin="120" fromJunction="J6" toJunction="J5" end="180" vehsPerHour="154.7139645380831" departLane="free"/>
  <flow id="JF434007" begin="120" fromJunction="J6" toJunction="J7" end="180" vehsPerHour="46.044580415296" departLane="free"/>
  <flow id="JF434008" begin="120" fromJunction="J7" toJunction="J0" end="180" vehsPerHour="2.012875996652488" departLane="free"/>
  <flow id="JF434009" begin="120" fromJunction="J7" toJunction="J3" end="180" vehsPerHour="206.80645914541398" departLane="free"/>
  <flow id="JF434010" begin="120" fromJunction="J7" toJunction="J5" end="180" vehsPerHour="238.07469203753183" departLane="free"/>
  <flow id="JF434011" begin="120" fromJunction="J7" toJunction="J6" end="180" vehsPerHour="258.1714326790429" departLane="free"/>
  <flow id="JF434012" begin="180" fromJunction="J0" toJunction="J5" end="240" vehsPerHour="355.275523692129" departLane="free"/>
  <flow id="JF434013" begin="180" fromJunction="J3" toJunction="J4" end="240" vehsPerHour="462.2132059011659" departLane="free"/>
  <flow id="JF434014" begin="180" fromJunction="J3" toJunction="J5" end="240" vehsPerHour="260.79895076792104" departLane="free"/>
  <flow id="JF434015" begin="180" fromJunction="J3" toJunction="J6" end="240" vehsPerHour="4.151744433059599" departLane="free"/>
  <flow id="JF434016" begin="180" fromJunction="J3" toJunction="J7" end="240" vehsPerHour="255.0355575997438" departLane="free"/>
  <flow id="JF434017" begin="180" fromJunction="J4" toJunction="J0" end="240" vehsPerHour="108.31110770789215" departLane="free"/>
  <flow id="JF434018" begin="180" fromJunction="J4" toJunction="J6" end="240" vehsPerHour="172.5312106050554" departLane="free"/>
  <flow id="JF434019" begin="180" fromJunction="J4" toJunction="J7" end="240" vehsPerHour="136.80560820084716" departLane="free"/>
  <flow id="JF434020" begin="180" fromJunction="J5" toJunction="J4" end="240" vehsPerHour="151.35816246706946" departLane="free"/>
  <flow id="JF434021" begin="180" fromJunction="J5" toJunction="J6" end="240" vehsPerHour="245.95332944507973" departLane="free"/>
  <flow id="JF434022" begin="180" fromJunction="J5" toJunction="J7" end="240" vehsPerHour="82.89565261682715" departLane="free"/>
  <flow id="JF434023" begin="180" fromJunction="J6" toJunction="J0" end="240" vehsPerHour="248.1526769298494" departLane="free"/>
  <flow id="JF434024" begin="180" fromJunction="J6" toJunction="J4" end="240" vehsPerHour="153.9790286285486" departLane="free"/>
  <flow id="JF434025" begin="180" fromJunction="J7" toJunction="J0" end="240" vehsPerHour="43.60514817104778" departLane="free"/>
  <flow id="JF434026" begin="180" fromJunction="J7" toJunction="J3" end="240" vehsPerHour="73.68937481654216" departLane="free"/>
  <flow id="JF434027" begin="180" fromJunction="J7" toJunction="J5" end="240" vehsPerHour="196.64450063399477" departLane="free"/>
  <flow id="JF434028" begin="180" fromJunction="J7" toJunction="J6" end="240" vehsPerHour="126.79663642741635" departLane="free"/>
  <flow id="JF434029" begin="240" fromJunction="J0" toJunction="J3" end="300" vehsPerHour="98.72576325937136" departLane="free"/>
  <flow id="JF434030" begin="240" fromJunction="J0" toJunction="J5" end="300" vehsPerHour="209.96173797593966" departLane="free"/>
  <flow id="JF434031" begin="240" fromJunction="J3" toJunction="J6" end="300" vehsPerHour="464.81519993053433" departLane="free"/>
  <flow id="JF434032" begin="240" fromJunction="J3" toJunction="J7" end="300" vehsPerHour="116.981675514232" departLane="free"/>
  <flow id="JF434033" begin="240" fromJunction="J4" toJunction="J0" end="300" vehsPerHour="230.62425074074238" departLane="free"/>
  <flow id="JF434034" begin="240" fromJunction="J4" toJunction="J3" end="300" vehsPerHour="44.76576884083997" departLane="free"/>
  <flow id="JF434035" begin="240" fromJunction="J4" toJunction="J5" end="300" vehsPerHour="130.464256698362" departLane="free"/>
  <flow id="JF434036" begin="240" fromJunction="J4" toJunction="J7" end="300" vehsPerHour="116.13831243391976" departLane="free"/>
  <flow id="JF434037" begin="240" fromJunction="J5" toJunction="J3" end="300" vehsPerHour="58.857739959956305" departLane="free"/>
  <flow id="JF434038" begin="240" fromJunction="J5" toJunction="J4" end="300" vehsPerHour="268.8243304223044" departLane="free"/>
  <flow id="JF434039" begin="240" fromJunction="J5" toJunction="J7" end="300" vehsPerHour="218.79427559045644" departLane="free"/>
  <flow id="JF434040" begin="240" fromJunction="J6" toJunction="J0" end="300" vehsPerHour="207.32939312163626" departLane="free"/>
  <flow id="JF434041" begin="240" fromJunction="J6" toJunction="J3" end="300" vehsPerHour="149.12099829556743" departLane="free"/>
  <flow id="JF434042" begin="240" fromJunction="J6" toJunction="J4" end="300" vehsPerHour="61.43609991149719" departLane="free"/>
  <flow id="JF434043" begin="240" fromJunction="J6" toJunction="J5" end="300" vehsPerHour="123.25736853679058" departLane="free"/>
  <flow id="JF434044" begin="240" fromJunction="J6" toJunction="J7" end="300" vehsPerHour="59.97111300156209" departLane="free"/>
  <flow id="JF434045" begin="240" fromJunction="J7" toJunction="J0" end="300" vehsPerHour="259.48969719867836" departLane="free"/>
  <flow id="JF434046" begin="240" fromJunction="J7" toJunction="J4" end="300" vehsPerHour="163.5113183372363" departLane="free"/>
  <flow id="JF434047" begin="240" fromJunction="J7" toJunction="J6" end="300" vehsPerHour="262.2645016282815" departLane="free"/>
  <flow id="JF434048" begin="300" fromJunction="J0" toJunction="J4" end="360" vehsPerHour="430.6259664186698" departLane="free"/>
  <flow id="JF434049" begin="300" fromJunction="J0" toJunction="J5" end="360" vehsPerHour="137.7644307560577" departLane="free"/>
  <flow id="JF434050" begin="300" fromJunction="J0" toJunction="J6" end="360" vehsPerHour="380.4324068839703" departLane="free"/>
  <flow id="JF434051" begin="300" fromJunction="J3" toJunction="J0" end="360" vehsPerHour="35.01390584843586" departLane="free"/>
  <flow id="JF434052" begin="300" fromJunction="J3" toJunction="J4" end="360" vehsPerHour="134.47665340189337" departLane="free"/>
  <flow id="JF434053" begin="300" fromJunction="J3" toJunction="J5" end="360" vehsPerHour="538.7350140530158" departLane="free"/>
  <flow id="JF434054" begin="300" fromJunction="J3" toJunction="J6" end="360" vehsPerHour="498.8568450338605" departLane="free"/>
  <flow id="JF434055" begin="300" fromJunction="J3" toJunction="J7" end="360" vehsPerHour="25.50578496097344" departLane="free"/>
  <flow id="JF434056" begin="300" fromJunction="J4" toJunction="J3" end="360" vehsPerHour="11.83727130416835" departLane="free"/>
  <flow id="JF434057" begin="300" fromJunction="J4" toJunction="J5" end="360" vehsPerHour="117.73974717551026" departLane="free"/>
  <flow id="JF434058" begin="300" fromJunction="J4" toJunction="J6" end="360" vehsPerHour="94.17081225262139" departLane="free"/>
  <flow id="JF434059" begin="300" fromJunction="J5" toJunction="J0" end="360" vehsPerHour="130.37376392485115" departLane="free"/>
  <flow id="JF434060" begin="300" fromJunction="J5" toJunction="J6" end="360" vehsPerHour="31.126685042580334" departLane="free"/>
  <flow id="JF434061" begin="300" fromJunction="J5" toJunction="J7" end="360" vehsPerHour="206.7805165735962" departLane="free"/>
  <flow id="JF434062" begin="300" fromJunction="J6" toJunction="J0" end="360" vehsPerHour="260.7912189700338" departLane="free"/>
  <flow id="JF434063" begin="300" fromJunction="J6" toJunction="J3" end="360" vehsPerHour="115.81814593355514" departLane="free"/>
  <flow id="JF434064" begin="300" fromJunction="J6" toJunction="J4" end="360" vehsPerHour="190.86286935533764" departLane="free"/>
  <flow id="JF434065" begin="300" fromJunction="J6" toJunction="J5" end="360" vehsPerHour="198.44199863445775" departLane="free"/>
  <flow id="JF434066" begin="300" fromJunction="J7" toJunction="J0" end="360" vehsPerHour="6.503762592201966" departLane="free"/>
  <flow id="JF434067" begin="300" fromJunction="J7" toJunction="J5" end="360" vehsPerHour="192.30196633390244" departLane="free"/>
  <flow id="JF434068" begin="360" fromJunction="J0" toJunction="J3" end="420" vehsPerHour="469.9898755968611" departLane="free"/>
  <flow id="JF434069" begin="360" fromJunction="J0" toJunction="J4" end="420" vehsPerHour="356.0778491876648" departLane="free"/>
  <flow id="JF434070" begin="360" fromJunction="J0" toJunction="J6" end="420" vehsPerHour="478.79049754993076" departLane="free"/>
  <flow id="JF434071" begin="360" fromJunction="J0" toJunction="J7" end="420" vehsPerHour="221.1863708601799" departLane="free"/>
  <flow id="JF434072" begin="360" fromJunction="J3" toJunction="J0" end="420" vehsPerHour="521.3739838534351" departLane="free"/>
  <flow id="JF434073" begin="360" fromJunction="J3" toJunction="J5" end="420" vehsPerHour="448.7022506497485" departLane="free"/>
  <flow id="JF434074" begin="360" fromJunction="J3" toJunction="J6" end="420" vehsPerHour="482.1857656712145" departLane="free"/>
  <flow id="JF434075" begin="360" fromJunction="J3" toJunction="J7" end="420" vehsPerHour="286.4032808314437" departLane="free"/>
  <flow id="JF434076" begin="360" fromJunction="J4" toJunction="J0" end="420" vehsPerHour="2.3364362189524464" departLane="free"/>
  <flow id="JF434077" begin="360" fromJunction="J4" toJunction="J6" end="420" vehsPerHour="202.51855312126838" departLane="free"/>
  <flow id="JF434078" begin="360" fromJunction="J4" toJunction="J7" end="420" vehsPerHour="18.10815167097891" departLane="free"/>
  <flow id="JF434079" begin="360" fromJunction="J5" toJunction="J3" end="420" vehsPerHour="165.30225006165537" departLane="free"/>
  <flow id="JF434080" begin="360" fromJunction="J5" toJunction="J7" end="420" vehsPerHour="197.44524444582817" departLane="free"/>
  <flow id="JF434081" begin="360" fromJunction="J6" toJunction="J0" end="420" vehsPerHour="267.8505201068703" departLane="free"/>
  <flow id="JF434082" begin="360" fromJunction="J6" toJunction="J3" end="420" vehsPerHour="65.16001828424001" departLane="free"/>
  <flow id="JF434083" begin="360" fromJunction="J6" toJunction="J4" end="420" vehsPerHour="104.89799747171574" departLane="free"/>
  <flow id="JF434084" begin="360" fromJunction="J6" toJunction="J5" end="420" vehsPerHour="177.3114145713682" departLane="free"/>
  <flow id="JF434085" begin="360" fromJunction="J6" toJunction="J7" end="420" vehsPerHour="253.39191592385782" departLane="free"/>
  <flow id="JF434086" begin="360" fromJunction="J7" toJunction="J0" end="420" vehsPerHour="120.56448166075712" departLane="free"/>
  <flow id="JF434087" begin="360" fromJunction="J7" toJunction="J5" end="420" vehsPerHour="92.8397790405284" departLane="free"/>
  <flow id="JF434088" begin="420" fromJunction="J0" toJunction="J3" end="480" vehsPerHour="395.7586500976058" departLane="free"/>
  <flow id="JF434089" begin="420" fromJunction="J0" toJunction="J6" end="480" vehsPerHour="235.35247601868318" departLane="free"/>
  <flow id="JF434090" begin="420" fromJunction="J0" toJunction="J7" end="480" vehsPerHour="538.9208907895664" departLane="free"/>
  <flow id="JF434091" begin="420" fromJunction="J3" toJunction="J0" end="480" vehsPerHour="156.46814713875517" departLane="free"/>
  <flow id="JF434092" begin="420" fromJunction="J3" toJunction="J6" end="480" vehsPerHour="33.027622796818235" departLane="free"/>
  <flow id="JF434093" begin="420" fromJunction="J3" toJunction="J7" end="480" vehsPerHour="304.0064550364866" departLane="free"/>
  <flow id="JF434094" begin="420" fromJunction="J4" toJunction="J0" end="480" vehsPerHour="74.44498960854759" departLane="free"/>
  <flow id="JF434095" begin="420" fromJunction="J4" toJunction="J3" end="480" vehsPerHour="205.2059870029423" departLane="free"/>
  <flow id="JF434096" begin="420" fromJunction="J4" toJunction="J5" end="480" vehsPerHour="221.37582134865502" departLane="free"/>
  <flow id="JF434097" begin="420" fromJunction="J4" toJunction="J6" end="480" vehsPerHour="97.10577744991545" departLane="free"/>
  <flow id="JF434098" begin="420" fromJunction="J4" toJunction="J7" end="480" vehsPerHour="74.67862253897349" departLane="free"/>
  <flow id="JF434099" begin="420" fromJunction="J5" toJunction="J3" end="480" vehsPerHour="112.52737114252992" departLane="free"/>
  <flow id="JF434100" begin="420" fromJunction="J5" toJunction="J6" end="480" vehsPerHour="148.13717706343874" departLane="free"/>
  <flow id="JF434101" begin="420" fromJunction="J5" toJunction="J7" end="480" vehsPerHour="216.73246945776535" departLane="free"/>
  <flow id="JF434102" begin="420" fromJunction="J6" toJunction="J4" end="480" vehsPerHour="98.27087184307695" departLane="free"/>
  <flow id="JF434103" begin="420" fromJunction="J6" toJunction="J5" end="480" vehsPerHour="99.47648608020938" departLane="free"/>
  <flow id="JF434104" begin="420" fromJunction="J6" toJunction="J7" end="480" vehsPerHour="5.030174944321262" departLane="free"/>
  <flow id="JF434105" begin="420" fromJunction="J7" toJunction="J0" end="480" vehsPerHour="242.05682810567026" departLane="free"/>
  <flow id="JF434106" begin="420" fromJunction="J7" toJunction="J3" end="480" vehsPerHour="190.10316832630232" departLane="free"/>
  <flow id="JF434107" begin="420" fromJunction="J7" toJunction="J4" end="480" vehsPerHour="137.2161999705954" departLane="free"/>
  <flow id="JF434108" begin="480" fromJunction="J0" toJunction="J3" end="540" vehsPerHour="338.2803559336424" departLane="free"/>
  <flow id="JF434109" begin="480" fromJunction="J0" toJunction="J4" end="540" vehsPerHour="377.05849661028225" departLane="free"/>
  <flow id="JF434110" begin="480" fromJunction="J0" toJunction="J6" end="540" vehsPerHour="195.22785611200433" departLane="free"/>
  <flow id="JF434111" begin="480" fromJunction="J0" toJunction="J7" end="540" vehsPerHour="354.14969765186413" departLane="free"/>
  <flow id="JF434112" begin="480" fromJunction="J3" toJunction="J0" end="540" vehsPerHour="385.0880606739926" departLane="free"/>
  <flow id="JF434113" begin="480" fromJunction="J3" toJunction="J4" end="540" vehsPerHour="470.1321964509806" departLane="free"/>
  <flow id="JF434114" begin="480" fromJunction="J3" toJunction="J5" end="540" vehsPerHour="511.2141523586226" departLane="free"/>
  <flow id="JF434115" begin="480" fromJunction="J3" toJunction="J6" end="540" vehsPerHour="100.010019414915" departLane="free"/>
  <flow id="JF434116" begin="480" fromJunction="J4" toJunction="J0" end="540" vehsPerHour="226.9261890005035" departLane="free"/>
  <flow id="JF434117" begin="480" fromJunction="J4" toJunction="J3" end="540" vehsPerHour="7.0353657656845785" departLane="free"/>
  <flow id="JF434118" begin="480" fromJunction="J4" toJunction="J5" end="540" vehsPerHour="183.7094434222114" departLane="free"/>
  <flow id="JF434119" begin="480" fromJunction="J4" toJunction="J6" end="540" vehsPerHour="33.339950355129496" departLane="free"/>
  <flow id="JF434120" begin="480" fromJunction="J5" toJunction="J3" end="540" vehsPerHour="31.500821296121906" departLane="free"/>
  <flow id="JF434121" begin="480" fromJunction="J5" toJunction="J4" end="540" vehsPerHour="146.44709495155786" departLane="free"/>
  <flow id="JF434122" begin="480" fromJunction="J5" toJunction="J6" end="540" vehsPerHour="119.55316502202213" departLane="free"/>
  <flow id="JF434123" begin="480" fromJunction="J6" toJunction="J0" end="540" vehsPerHour="20.55730411965928" departLane="free"/>
  <flow id="JF434124" begin="480" fromJunction="J6" toJunction="J3" end="540" vehsPerHour="57.12196156121288" departLane="free"/>
  <flow id="JF434125" begin="480" fromJunction="J6" toJunction="J4" end="540" vehsPerHour="195.91128011522898" departLane="free"/>
  <flow id="JF434126" begin="480" fromJunction="J6" toJunction="J5" end="540" vehsPerHour="142.68872423767013" departLane="free"/>
  <flow id="JF434127" begin="480" fromJunction="J7" toJunction="J4" end="540" vehsPerHour="141.37826279679436" departLane="free"/>
  <flow id="JF434128" begin="480" fromJunction="J7" toJunction="J5" end="540" vehsPerHour="226.09018575449048" departLane="free"/>
  <flow id="JF434129" begin="480" fromJunction="J7" toJunction="J6" end="540" vehsPerHour="257.05162798761967" departLane="free"/>
  <flow id="JF434130" begin="540" fromJunction="J0" toJunction="J3" end="600" vehsPerHour="461.98129555070835" departLane="free"/>
  <flow id="JF434131" begin="540" fromJunction="J0" toJunction="J4" end="600" vehsPerHour="435.36305992272537" departLane="free"/>
  <flow id="JF434132" begin="540" fromJunction="J0" toJunction="J5" end="600" vehsPerHour="514.3692247146414" departLane="free"/>
  <flow id="JF434133" begin="540" fromJunction="J0" toJunction="J6" end="600" vehsPerHour="346.94383480072645" departLane="free"/>
  <flow id="JF434134" begin="540" fromJunction="J3" toJunction="J0" end="600" vehsPerHour="260.3983502950984" departLane="free"/>
  <flow id="JF434135" begin="540" fromJunction="J3" toJunction="J4" end="600" vehsPerHour="101.75576201040036" departLane="free"/>
  <flow id="JF434136" begin="540" fromJunction="J3" toJunction="J5" end="600" vehsPerHour="54.90384345990824" departLane="free"/>
  <flow id="JF434137" begin="540" fromJunction="J3" toJunction="J7" end="600" vehsPerHour="381.5797886291322" departLane="free"/>
  <flow id="JF434138" begin="540" fromJunction="J4" toJunction="J3" end="600" vehsPerHour="60.09315530557359" departLane="free"/>
  <flow id="JF434139" begin="540" fromJunction="J4" toJunction="J5" end="600" vehsPerHour="239.67157468343987" departLane="free"/>
  <flow id="JF434140" begin="540" fromJunction="J4" toJunction="J6" end="600" vehsPerHour="232.7733709538552" departLane="free"/>
  <flow id="JF434141" begin="540" fromJunction="J5" toJunction="J3" end="600" vehsPerHour="165.49079801322824" departLane="free"/>
  <flow id="JF434142" begin="540" fromJunction="J5" toJunction="J6" end="600" vehsPerHour="136.85660408464614" departLane="free"/>
  <flow id="JF434143" begin="540" fromJunction="J5" toJunction="J7" end="600" vehsPerHour="19.717666527047317" departLane="free"/>
  <flow id="JF434144" begin="540" fromJunction="J6" toJunction="J0" end="600" vehsPerHour="113.69532321202577" departLane="free"/>
  <flow id="JF434145" begin="540" fromJunction="J6" toJunction="J4" end="600" vehsPerHour="271.4927578006975" departLane="free"/>
  <flow id="JF434146" begin="540" fromJunction="J6" toJunction="J5" end="600" vehsPerHour="152.91137889914327" departLane="free"/>
  <flow id="JF434147" begin="540" fromJunction="J7" toJunction="J0" end="600" vehsPerHour="204.2570222681128" departLane="free"/>
  <flow id="JF434148" begin="540" fromJunction="J7" toJunction="J3" end="600" vehsPerHour="228.64642002060282" departLane="free"/>
  <flow id="JF434149" begin="540" fromJunction="J7" toJunction="J4" end="600" vehsPerHour="149.84175525930894" departLane="free"/>
  <flow id="JF434150" begin="600" fromJunction="J0" toJunction="J3" end="660" vehsPerHour="215.8829456679737" departLane="free"/>
  <flow id="JF434151" begin="600" fromJunction="J0" toJunction="J4" end="660" vehsPerHour="245.64901247310644" departLane="free"/>
  <flow id="JF434152" begin="600" fromJunction="J0" toJunction="J5" end="660" vehsPerHour="381.61119787417573" departLane="free"/>
  <flow id="JF434153" begin="600" fromJunction="J0" toJunction="J6" end="660" vehsPerHour="327.3614587747127" departLane="free"/>
  <flow id="JF434154" begin="600" fromJunction="J3" toJunction="J0" end="660" vehsPerHour="190.38910975026266" departLane="free"/>
  <flow id="JF434155" begin="600" fromJunction="J3" toJunction="J7" end="660" vehsPerHour="471.46819592733056" departLane="free"/>
  <flow id="JF434156" begin="600" fromJunction="J4" toJunction="J0" end="660" vehsPerHour="263.01167534491725" departLane="free"/>
  <flow id="JF434157" begin="600" fromJunction="J4" toJunction="J3" end="660" vehsPerHour="186.18865171013692" departLane="free"/>
  <flow id="JF434158" begin="600" fromJunction="J4" toJunction="J5" end="660" vehsPerHour="199.4751882653784" departLane="free"/>
  <flow id="JF434159" begin="600" fromJunction="J4" toJunction="J6" end="660" vehsPerHour="149.61942952100864" departLane="free"/>
  <flow id="JF434160" begin="600" fromJunction="J4" toJunction="J7" end="660" vehsPerHour="127.01474106101742" departLane="free"/>
  <flow id="JF434161" begin="600" fromJunction="J5" toJunction="J0" end="660" vehsPerHour="54.151014483575935" departLane="free"/>
  <flow id="JF434162" begin="600" fromJunction="J5" toJunction="J3" end="660" vehsPerHour="143.4659827499137" departLane="free"/>
  <flow id="JF434163" begin="600" fromJunction="J5" toJunction="J6" end="660" vehsPerHour="149.49450453196346" departLane="free"/>
  <flow id="JF434164" begin="600" fromJunction="J5" toJunction="J7" end="660" vehsPerHour="259.9896622774492" departLane="free"/>
  <flow id="JF434165" begin="600" fromJunction="J6" toJunction="J3" end="660" vehsPerHour="187.89268360280767" departLane="free"/>
  <flow id="JF434166" begin="600" fromJunction="J6" toJunction="J5" end="660" vehsPerHour="1.0043704761814196" departLane="free"/>
  <flow id="JF434167" begin="600" fromJunction="J6" toJunction="J7" end="660" vehsPerHour="37.48754593777634" departLane="free"/>
  <flow id="JF434168" begin="600" fromJunction="J7" toJunction="J0" end="660" vehsPerHour="18.235409733825605" departLane="free"/>
  <flow id="JF434169" begin="600" fromJunction="J7" toJunction="J3" end="660" vehsPerHour="69.02118293059563" departLane="free"/>
  <flow id="JF434170" begin="600" fromJunction="J7" toJunction="J4" end="660" vehsPerHour="127.69302606312485" departLane="free"/>
  <flow id="JF434171" begin="600" fromJunction="J7" toJunction="J6" end="660" vehsPerHour="30.706589957791383" departLane="free"/>
  <flow id="JF434172" begin="660" fromJunction="J0" toJunction="J4" end="720" vehsPerHour="214.54427586167571" departLane="free"/>
  <flow id="JF434173" begin="660" fromJunction="J0" toJunction="J5" end="720" vehsPerHour="66.86271018982788" departLane="free"/>
  <flow id="JF434174" begin="660" fromJunction="J0" toJunction="J6" end="720" vehsPerHour="434.59559372509216" departLane="free"/>