<?xml version="1.0" encoding="UTF-8"?>
<routes xmlns:xsi="http://www.w3.org/2001/XMLSchema-instance" xsi:noNamespaceSchemaLocation="http://sumo.dlr.de/xsd/routes_file.xsd">
  <flow id="JF428684" begin="0" fromJunction="J0" toJunction="J3" end="60" vehsPerHour="25.720199506613653" departLane="free"/>
  <flow id="JF428685" begin="0" fromJunction="J0" toJunction="J6" end="60" vehsPerHour="399.1123344461314" departLane="free"/>
  <flow id="JF428686" begin="0" fromJunction="J0" toJunction="J7" end="60" vehsPerHour="417.99919341625707" departLane="free"/>
  <flow id="JF428687" begin="0" fromJunction="J3" toJunction="J5" end="60" vehsPerHour="132.97958644638024" departLane="free"/>
  <flow id="JF428688" begin="0" fromJunction="J3" toJunction="J6" end="60" vehsPerHour="125.6582060564045" departLane="free"/>
  <flow id="JF428689" begin="0" fromJunction="J4" toJunction="J0" end="60" vehsPerHour="203.62067458536512" departLane="free"/>
  <flow id="JF428690" begin="0" fromJunction="J4" toJunction="J3" end="60" vehsPerHour="0.2703057074487136" departLane="free"/>
  <flow id="JF428691" begin="0" fromJunction="J4" toJunction="J5" end="60" vehsPerHour="85.87738883128026" departLane="free"/>
  <flow id="JF428692" begin="0" fromJunction="J4" toJunction="J6" end="60" vehsPerHour="96.50882665907838" departLane="free"/>
  <flow id="JF428693" begin="0" fromJunction="J4" toJunction="J7" end="60" vehsPerHour="36.342604783712446" departLane="free"/>
  <flow id="JF428694" begin="0" fromJunction="J5" toJunction="J0" end="60" vehsPerHour="239.03462917969253" departLane="free"/>
  <flow id="JF428695" begin="0" fromJunction="J5" toJunction="J4" end="60" vehsPerHour="151.6283123960835" departLane="free"/>
  <flow id="JF428696" begin="0" fromJunction="J6" toJunction="J0" end="60" vehsPerHour="180.70514231218408" departLane="free"/>
  <flow id="JF428697" begin="0" fromJunction="J6" toJunction="J3" end="60" vehsPerHour="249.77648402813827" departLane="free"/>
  <flow id="JF428698" begin="0" fromJunction="J6" toJunction="J4" end="60" vehsPerHour="6.509443494524985" departLane="free"/>
  <flow id="JF428699" begin="0" fromJunction="J6" toJunction="J5" end="60" vehsPerHour="123.93917250677517" departLane="free"/>
  <flow id="JF428700" begin="0" fromJunction="J6" toJunction="J7" end="60" vehsPerHour="241.4677705046249" departLane="free"/>
  <flow id="JF428701" begin="0" fromJunction="J7" toJunction="J3" end="60" vehsPerHour="101.66918589664809" departLane="free"/>
  <flow id="JF428702" begin="0" fromJunction="J7" toJunction="J5" end="60" vehsPerHour="197.9701376389107" departLane="free"/>
  <flow id="JF428703" begin="0" fromJunction="J7" toJunction="J6" end="60" vehsPerHour="121.07590099189565" departLane="free"/>
  <flow id="JF428704" begin="60" fromJunction="J0" toJunction="J4" end="120" vehsPerHour="426.02332241398767" departLane="free"/>
  <flow id="JF428705" begin="60" fromJunction="J0" toJunction="J5" end="120" vehsPerHour="344.6345034001882" departLane="free"/>
  <flow id="JF428706" begin="60" fromJunction="J0" toJunction="J6" end="120" vehsPerHour="305.34681093699214" departLane="free"/>
  <flow id="JF428707" begin="60" fromJunction="J0" toJunction="J7" end="120" vehsPerHour="53.38951203048915" departLane="free"/>
  <flow id="JF428708" begin="60" fromJunction="J3" toJunction="J5" end="120" vehsPerHour="371.8940047593062" departLane="free"/>
  <flow id="JF428709" begin="60" fromJunction="J3" toJunction="J6" end="120" vehsPerHour="164.84145070631277" departLane="free"/>
  <flow id="JF428710" begin="60" fromJunction="J4" toJunction="J0" end="120" vehsPerHour="262.6938332354349" departLane="free"/>
  <flow id="JF428711" begin="60" fromJunction="J4" toJunction="J3" end="120" vehsPerHour="97.17036831108294" departLane="free"/>
  <flow id="JF428712" begin="60" fromJunction="J4" toJunction="J6" end="120" vehsPerHour="200.01805019246913" departLane="free"/>
  <flow id="JF428713" begin="60" fromJunction="J5" toJunction="J3" end="120" vehsPerHour="233.57584093527612" departLane="free"/>
  <flow id="JF428714" begin="60" fromJunction="J5" toJunction="J6" end="120" vehsPerHour="53.87295707915316" departLane="free"/>
  <flow id="JF428715" begin="60" fromJunction="J5" toJunction="J7" end="120" vehsPerHour="156.21586781551608" departLane="free"/>
  <flow id="JF428716" begin="60" fromJunction="J6" toJunction="J0" end="120" vehsPerHour="125.98092334720961" departLane="free"/>
  <flow id="JF428717" begin="60" fromJunction="J6" toJunction="J3" end="120" vehsPerHour="162.65543146848566" departLane="free"/>
  <flow id="JF428718" begin="60" fromJunction="J6" toJunction="J5" end="120" vehsPerHour="166.96776094782825" departLane="free"/>
  <flow id="JF428719" begin="60" fromJunction="J6" toJunction="J7" end="120" vehsPerHour="1.099322840584798" departLane="free"/>
  <flow id="JF428720" begin="60" fromJunction="J7" toJunction="J3" end="120" vehsPerHour="79.24167735244461" departLane="free"/>
  <flow id="JF428721" begin="60" fromJunction="J7" toJunction="J4" end="120" vehsPerHour="85.52828068232364" departLane="free"/>
  <flow id="JF428722" begin="60" fromJunction="J7" toJunction="J5" end="120" vehsPerHour="68.52881898141129" departLane="free"/>
  <flow id="JF428723" begin="60" fromJunction="J7" toJunction="J6" end="120" vehsPerHour="206.83285865892626" departLane="free"/>
  <flow id="JF428724" begin="120" fromJunction="J0" toJunction="J4" end="180" vehsPerHour="60.22410338435746" departLane="free"/>
  <flow id="JF428725" begin="120" fromJunction="J0" toJunction="J5" end="180" vehsPerHour="39.19272849179587" departLane="free"/>
  <flow id="JF428726" begin="120" fromJunction="J0" toJunction="J6" end="180" vehsPerHour="486.2981387148081" departLane="free"/>
  <flow id="JF428727" begin="120" fromJunction="J3" toJunction="J0" end="180" vehsPerHour="41.65518784522114" departLane="free"/>
  <flow id="JF428728" begin="120" fromJunction="J3" toJunction="J5" end="180" vehsPerHour="87.19140832186837" departLane="free"/>
  <flow id="JF428729" begin="120" fromJunction="J3" toJunction="J7" end="180" vehsPerHour="309.24620643342786" departLane="free"/>
  <flow id="JF428730" begin="120" fromJunction="J4" toJunction="J3" end="180" vehsPerHour="187.77253816724277" departLane="free"/>
  <flow id="JF428731" begin="120" fromJunction="J4" toJunction="J6" end="180" vehsPerHour="221.8813995402227" departLane="free"/>
  <flow id="JF428732" begin="120" fromJunction="J4" toJunction="J7" end="180" vehsPerHour="70.54983172535604" departLane="free"/>
  <flow id="JF428733" begin="120" fromJunction="J5" toJunction="J3" end="180" vehsPerHour="216.02241553156202" departLane="free"/>
  <flow id="JF428734" begin="120" fromJunction="J5" toJunction="J4" end="180" vehsPerHour="203.11745217239564" departLane="free"/>
  <flow id="JF428735" begin="120" fromJunction="J6" toJunction="J0" end="180" vehsPerHour="18.010193542387565" departLane="free"/>
  <flow id="JF428736" begin="120" fromJunction="J6" toJunction="J5" end="180" vehsPerHour="147.52532677059276" departLane="free"/>
  <flow id="JF428737" begin="120" fromJunction="J6" toJunction="J7" end="180" vehsPerHour="265.7621284144133" departLane="free"/>
  <flow id="JF428738" begin="120" fromJunction="J7" toJunction="J0" end="180" vehsPerHour="261.68161306862413" departLane="free"/>
  <flow id="JF428739" begin="120" fromJunction="J7" toJunction="J3" end="180" vehsPerHour="160.26987728689488" departLane="free"/>
  <flow id="JF428740" begin="120" fromJunction="J7" toJunction="J5" end="180" vehsPerHour="69.36337653469279" departLane="free"/>
  <flow id="JF428741" begin="120" fromJunction="J7" toJunction="J6" end="180" vehsPerHour="83.50599270900099" departLane="free"/>
  <flow id="JF428742" begin="180" fromJunction="J0" toJunction="J3" end="240" vehsPerHour="173.68045826181392" departLane="free"/>
  <flow id="JF428743" begin="180" fromJunction="J0" toJunction="J4" end="240" vehsPerHour="65.77475502743235" departLane="free"/>
  <flow id="JF428744" begin="180" fromJunction="J0" toJunction="J6" end="240" vehsPerHour="135.79599649032795" departLane="free"/>
  <flow id="JF428745" begin="180" fromJunction="J0" toJunction="J7" end="240" vehsPerHour="545.0415268096309" departLane="free"/>
  <flow id="JF428746" begin="180" fromJunction="J3" toJunction="J0" end="240" vehsPerHour="392.7251206432887" departLane="free"/>
  <flow id="JF428747" begin="180" fromJunction="J3" toJunction="J4" end="240" vehsPerHour="34.88708971456883" departLane="free"/>
  <flow id="JF428748" begin="180" fromJunction="J3" toJunction="J5" end="240" vehsPerHour="254.71285681093022" departLane="free"/>
  <flow id="JF428749" begin="180" fromJunction="J3" toJunction="J6" end="240" vehsPerHour="413.65946090595884" departLane="free"/>
  <flow id="JF428750" begin="180" fromJunction="J3" toJunction="J7" end="240" vehsPerHour="298.86854199792833" departLane="free"/>
  <flow id="JF428751" begin="180" fromJunction="J4" toJunction="J0" end="240" vehsPerHour="175.88612297611013" departLane="free"/>
  <flow id="JF428752" begin="180" fromJunction="J4" toJunction="J5" end="240" vehsPerHour="28.072260328798812" departLane="free"/>
  <flow id="JF428753" begin="180" fromJunction="J4" toJunction="J7" end="240" vehsPerHour="165.98548532624508" departLane="free"/>
  <flow id="JF428754" begin="180" fromJunction="J5" toJunction="J0" end="240" vehsPerHour="194.13053796161284" departLane="free"/>
  <flow id="JF428755" begin="180" fromJunction="J5" toJunction="J3" end="240" vehsPerHour="65.83777353000659" departLane="free"/>
  <flow id="JF428756" begin="180" fromJunction="J5" toJunction="J4" end="240" vehsPerHour="50.83464621136597" departLane="free"/>
  <flow id="JF428757" begin="180" fromJunction="J5" toJunction="J6" end="240" vehsPerHour="265.96962586886735" departLane="free"/>
  <flow id="JF428758" begin="180" fromJunction="J6" toJunction="J4" end="240" vehsPerHour="140.8619652137589" departLane="free"/>
  <flow id="JF428759" begin="180" fromJunction="J6" toJunction="J5" end="240" vehsPerHour="263.00023116413706" departLane="free"/>
  <flow id="JF428760" begin="180" fromJunction="J7" toJunction="J0" end="240" vehsPerHour="169.73736824047708" departLane="free"/>
  <flow id="JF428761" begin="180" fromJunction="J7" toJunction="J3" end="240" vehsPerHour="215.56396485178325" departLane="free"/>
  <flow id="JF428762" begin="180" fromJunction="J7" toJunction="J4" end="240" vehsPerHour="171.92519855733042" departLane="free"/>
  <flow id="JF428763" begin="180" fromJunction="J7" toJunction="J5" end="240" vehsPerHour="227.97343936049052" departLane="free"/>
  <flow id="JF428764" begin="180" fromJunction="J7" toJunction="J6" end="240" vehsPerHour="198.6739584484813" departLane="free"/>
  <flow id="JF428765" begin="240" fromJunction="J0" toJunction="J4" end="300" vehsPerHour="522.6680971774048" departLane="free"/>
  <flow id="JF428766" begin="240" fromJunction="J0" toJunction="J6" end="300" vehsPerHour="529.5841250176591" departLane="free"/>
  <flow id="JF428767" begin="240" fromJunction="J0" toJunction="J7" end="300" vehsPerHour="167.7005874715998" departLane="free"/>
  <flow id="JF428768" begin="240" fromJunction="J3" toJunction="J0" end="300" vehsPerHour="354.88519909056686" departLane="free"/>
  <flow id="JF428769" begin="240" fromJunction="J3" toJunction="J4" end="300" vehsPerHour="6.422644511870264" departLane="free"/>
  <flow id="JF428770" begin="240" fromJunction="J3" toJunction="J5" end="300" vehsPerHour="135.35764970632002" departLane="free"/>
  <flow id="JF428771" begin="240" fromJunction="J3" toJunction="J6" end="300" vehsPerHour="287.2917838778055" departLane="free"/>
  <flow id="JF428772" begin="240" fromJunction="J4" toJunction="J0" end="300" vehsPerHour="227.72198970585833" departLane="free"/>
  <flow id="JF428773" begin="240" fromJunction="J4" toJunction="J3" end="300" vehsPerHour="52.442109688688056" departLane="free"/>
  <flow id="JF428774" begin="240" fromJunction="J4" toJunction="J5" end="300" vehsPerHour="105.23819703601505" departLane="free"/>
  <flow id="JF428775" begin="240" fromJunction="J4" toJunction="J6" end="300" vehsPerHour="214.457506965818" departLane="free"/>
  <flow id="JF428776" begin="240" fromJunction="J4" toJunction="J7" end="300" vehsPerHour="183.5109797555417" departLane="free"/>
  <flow id="JF428777" begin="240" fromJunction="J5" toJunction="J3" end="300" vehsPerHour="12.690850866198963" departLane="free"/>
  <flow id="JF428778" begin="240" fromJunction="J5" toJunction="J4" end="300" vehsPerHour="113.50473876929745" departLane="free"/>
  <flow id="JF428779" begin="240" fromJunction="J5" toJunction="J6" end="300" vehsPerHour="117.41030996182052" departLane="free"/>
  <flow id="JF428780" begin="240" fromJunction="J6" toJunction="J0" end="300" vehsPerHour="116.11777787443259" departLane="free"/>
  <flow id="JF428781" begin="240" fromJunction="J6" toJunction="J3" end="300" vehsPerHour="108.33477668788895" departLane="free"/>
  <flow id="JF428782" begin="240" fromJunction="J6" toJunction="J4" end="300" vehsPerHour="129.7395603665248" departLane="free"/>
  <flow id="JF428783" begin="240" fromJunction="J6" toJunction="J7" end="300" vehsPerHour="170.59536799502183" departLane="free"/>
  <flow id="JF428784" begin="240" fromJunction="J7" toJunction="J0" end="300" vehsPerHour="63.653447064508434" departLane="free"/>
  <flow id="JF428785" begin="240" fromJunction="J7" toJunction="J4" end="300" vehsPerHour="181.82376799456685" departLane="free"/>
  <flow id="JF428786" begin="240" fromJunction="J7" toJunction="J5" end="300" vehsPerHour="189.29471949422467" departLane="free"/>
  <flow id="JF428787" begin="240" fromJunction="J7" toJunction="J6" end="300" vehsPerHour="262.37306644024744" departLane="free"/>
  <flow id="JF428788" begin="300" fromJunction="J0" toJunction="J3" end="360" vehsPerHour="490.77413501047727" departLane="free"/>
  <flow id="JF428789" begin="300" fromJunction="J0" toJunction="J4" end="360" vehsPerHour="408.80516027268385" departLane="free"/>
  <flow id="JF428790" begin="300" fromJunction="J0" toJunction="J5" end="360" vehsPerHour="388.506533911489" departLane="free"/>
  <flow id="JF428791" begin="300" fromJunction="J0" toJunction="J6" end="360" vehsPerHour="538.4065959338694" departLane="free"/>
  <flow id="JF428792" begin="300" fromJunction="J3" toJunction="J0" end="360" vehsPerHour="473.0469768848342" departLane="free"/>
  <flow id="JF428793" begin="300" fromJunction="J3" toJunction="J4" end="360" vehsPerHour="151.57020777517582" departLane="free"/>
  <flow id="JF428794" begin="300" fromJunction="J3" toJunction="J5" end="360" vehsPerHour="59.32728562405495" departLane="free"/>
  <flow id="JF428795" begin="300" fromJunction="J3" toJunction="J7" end="360" vehsPerHour="458.88968488357034" departLane="free"/>
  <flow id="JF428796" begin="300" fromJunction="J4" toJunction="J0" end="360" vehsPerHour="25.60165185123716" departLane="free"/>
  <flow id="JF428797" begin="300" fromJunction="J4" toJunction="J6" end="360" vehsPerHour="177.76380511522555" departLane="free"/>
  <flow id="JF428798" begin="300" fromJunction="J4" toJunction="J7" end="360" vehsPerHour="219.37912962744602" departLane="free"/>
  <flow id="JF428799" begin="300" fromJunction="J5" toJunction="J0" end="360" vehsPerHour="260.47550909351065" departLane="free"/>
  <flow id="JF428800" begin="300" fromJunction="J5" toJunction="J3" end="360" vehsPerHour="110.46893489056033" departLane="free"/>
  <flow id="JF428801" begin="300" fromJunction="J5" toJunction="J4" end="360" vehsPerHour="127.25838651413007" departLane="free"/>
  <flow id="JF428802" begin="300" fromJunction="J5" toJunction="J6" end="360" vehsPerHour="22.260582722945564" departLane="free"/>
  <flow id="JF428803" begin="300" fromJunction="J5" toJunction="J7" end="360" vehsPerHour="199.81098261937007" departLane="free"/>
  <flow id="JF428804" begin="300" fromJunction="J6" toJunction="J4" end="360" vehsPerHour="219.62150504147107" departLane="free"/>
  <flow id="JF428805" begin="300" fromJunction="J6" toJunction="J5" end="360" vehsPerHour="77.66140899779933" departLane="free"/>
  <flow id="JF428806" begin="300" fromJunction="J6" toJunction="J7" end="360" vehsPerHour="271.3885052017225" departLane="free"/>
  <flow id="JF428807" begin="300" fromJunction="J7" toJunction="J3" end="360" vehsPerHour="56.82749800585796" departLane="free"/>
  <flow id="JF428808" begin="300" fromJunction="J7" toJunction="J4" end="360" vehsPerHour="45.72391362328293" departLane="free"/>
  <flow id="JF428809" begin="300" fromJunction="J7" toJunction="J5" end="360" vehsPerHour="77.20363961435125" departLane="free"/>
  <flow id="JF428810" begin="300" fromJunction="J7" toJunction="J6" end="360" vehsPerHour="89.60136872334843" departLane="free"/>
  <flow id="JF428811" begin="360" fromJunction="J0" toJunction="J3" end="420" vehsPerHour="156.24342402216448" departLane="free"/>
  <flow id="JF428812" begin="360" fromJunction="J0" toJunction="J4" end="420" vehsPerHour="18.84923469000508" departLane="free"/>
  <flow id="JF428813" begin="360" fromJunction="J0" toJunction="J5" end="420" vehsPerHour="10.15354658665484" departLane="free"/>
  <flow id="JF428814" begin="360" fromJunction="J0" toJunction="J6" end="420" vehsPerHour="408.10357220871697" departLane="free"/>
  <flow id="JF428815" begin="360" fromJunction="J0" toJunction="J7" end="420" vehsPerHour="305.93777123490753" departLane="free"/>
  <flow id="JF428816" begin="360" fromJunction="J3" toJunction="J0" end="420" vehsPerHour="77.49624262040928" departLane="free"/>
  <flow id="JF428817" begin="360" fromJunction="J3" toJunction="J4" end="420" vehsPerHour="342.31395617660894" departLane="free"/>
  <flow id="JF428818" begin="360" fromJunction="J3" toJunction="J5" end="420" vehsPerHour="168.42359584099853" departLane="free"/>
  <flow id="JF428819" begin="360" fromJunction="J3" toJunction="J6" end="420" vehsPerHour="546.0636345134955" departLane="free"/>
  <flow id="JF428820" begin="360" fromJunction="J3" toJunction="J7" end="420" vehsPerHour="523.7468161092145" departLane="free"/>
  <flow id="JF428821" begin="360" fromJunction="J4" toJunction="J0" end="420" vehsPerHour="8.128779155412358" departLane="free"/>
  <flow id="JF428822" begin="360" fromJunction="J4" toJunction="J3" end="420" vehsPerHour="89.31665253873916" departLane="free"/>
  <flow id="JF428823" begin="360" fromJunction="J4" toJunction="J5" end="420" vehsPerHour="123.16071523385129" departLane="free"/>
  <flow id="JF428824" begin="360" fromJunction="J4" toJunction="J6" end="420" vehsPerHour="146.60838933093493" departLane="free"/>
  <flow id="JF428825" begin="360" fromJunction="J5" toJunction="J0" end="420" vehsPerHour="45.1807616083343" departLane="free"/>
  <flow id="JF428826" begin="360" fromJunction="J5" toJunction="J4" end="420" vehsPerHour="171.85421162334669" departLane="free"/>
  <flow id="JF428827" begin="360" fromJunction="J5" toJunction="J6" end="420" vehsPerHour="12.505934576465398" departLane="free"/>
  <flow id="JF428828" begin="360" fromJunction="J5" toJunction="J7" end="420" vehsPerHour="50.08772546914986" departLane="free"/>
  <flow id="JF428829" begin="360" fromJunction="J6" toJunction="J3" end="420" vehsPerHour="154.19935625615534" departLane="free"/>
  <flow id="JF428830" begin="360" fromJunction="J6" toJunction="J4" end="420" vehsPerHour="143.62227897782176" departLane="free"/>
  <flow id="JF428831" begin="360" fromJunction="J6" toJunction="J5" end="420" vehsPerHour="31.83458561818568" departLane="free"/>
  <flow id="JF428832" begin="360" fromJunction="J6" toJunction="J7" end="420" vehsPerHour="240.92667464359644" departLane="free"/>
  <flow id="JF428833" begin="360" fromJunction="J7" toJunction="J3" end="420" vehsPerHour="173.42879729192842" departLane="free"/>
  <flow id="JF428834" begin="360" fromJunction="J7" toJunction="J4" end="420" vehsPerHour="89.12475516901505" departLane="free"/>
  <flow id="JF428835" begin="360" fromJunction="J7" toJunction="J5" end="420" vehsPerHour="112.9820222671173" departLane="free"/>
  <flow id="JF428836" begin="360" fromJunction="J7" toJunction="J6" end="420" vehsPerHour="64.37972859232319" departLane="free"/>
  <flow id="JF428837" begin="420" fromJunction="J0" toJunction="J3" end="480" vehsPerHour="297.7348034493119" departLane="free"/>
  <flow id="JF428838" begin="420" fromJunction="J0" toJunction="J4" end="480" vehsPerHour="306.05463443233947" departLane="free"/>
  <flow id="JF428839" begin="420" fromJunction="J0" toJunction="J5" end="480" vehsPerHour="463.35221245730844" departLane="free"/>
  <flow id="JF428840" begin="420" fromJunction="J0" toJunction="J6" end="480" vehsPerHour="333.2398152898492" departLane="free"/>
  <flow id="JF428841" begin="420" fromJunction="J3" toJunction="J5" end="480" vehsPerHour="214.85600688531954" departLane="free"/>
  <flow id="JF428842" begin="420" fromJunction="J3" toJunction="J6" end="480" vehsPerHour="540.249042109669" departLane="free"/>
  <flow id="JF428843" begin="420" fromJunction="J3" toJunction="J7" end="480" vehsPerHour="295.5714791561086" departLane="free"/>
  <flow id="JF428844" begin="420" fromJunction="J4" toJunction="J0" end="480" vehsPerHour="200.90237436343514" departLane="free"/>
  <flow id="JF428845" begin="420" fromJunction="J4" toJunction="J5" end="480" vehsPerHour="272.04230165015946" departLane="free"/>
  <flow id="JF428846" begin="420" fromJunction="J4" toJunction="J6" end="480" vehsPerHour="142.54482601442646" departLane="free"/>
  <flow id="JF428847" begin="420" fromJunction="J4" toJunction="J7" end="480" vehsPerHour="76.95844595937358" departLane="free"/>
  <flow id="JF428848" begin="420" fromJunction="J5" toJunction="J0" end="480" vehsPerHour="218.2179257861097" departLane="free"/>
  <flow id="JF428849" begin="420" fromJunction="J5" toJunction="J4" end="480" vehsPerHour="208.55347887607158" departLane="free"/>
  <flow id="JF428850" begin="420" fromJunction="J5" toJunction="J6" end="480" vehsPerHour="220.53024145282035" departLane="free"/>
  <flow id="JF428851" begin="420" fromJunction="J6" toJunction="J3" end="480" vehsPerHour="187.57722444992805" departLane="free"/>
  <flow id="JF428852" begin="420" fromJunction="J6" toJunction="J4" end="480" vehsPerHour="32.85750634983966" departLane="free"/>
  <flow id="JF428853" begin="420" fromJunction="J6" toJunction="J7" end="480" vehsPerHour="108.09223948903411" departLane="free"/>
  <flow id="JF428854" begin="420" fromJunction="J7" toJunction="J0" end="480" vehsPerHour="29.42033496490448" departLane="free"/>
  <flow id="JF428855" begin="420" fromJunction="J7" toJunction="J3" end="480" vehsPerHour="51.67680769824394" departLane="free"/>
  <flow id="JF428856" begin="420" fromJunction="J7" toJunction="J4" end="480" vehsPerHour="156.31350706693758" departLane="free"/>
  <flow id="JF428857" begin="420" fromJunction="J7" toJunction="J5" end="480" vehsPerHour="234.11733120963802" departLane="free"/>
  <flow id="JF428858" begin="420" fromJunction="J7" toJunction="J6" end="480" vehsPerHour="215.67311982074452" departLane="free"/>
  <flow id="JF428859" begin="480" fromJunction="J0" toJunction="J3" end="540" vehsPerHour="428.90657066094485" departLane="free"/>
  <flow id="JF428860" begin="480" fromJunction="J0" toJunction="J4" end="540" vehsPerHour="521.0637319372607" departLane="free"/>
  <flow id="JF428861" begin="480" fromJunction="J0" toJunction="J5" end="540" vehsPerHour="472.5384918214921" departLane="free"/>
  <flow id="JF428862" begin="480" fromJunction="J0" toJunction="J6" end="540" vehsPerHour="407.74262038338964" departLane="free"/>
  <flow id="JF428863" begin="480" fromJunction="J0" toJunction="J7" end="540" vehsPerHour="303.0414953667776" departLane="free"/>
  <flow id="JF428864" begin="480" fromJunction="J3" toJunction="J0" end="540" vehsPerHour="324.4183119616674" departLane="free"/>
  <flow id="JF428865" begin="480" fromJunction="J3" toJunction="J5" end="540" vehsPerHour="361.7492729416133" departLane="free"/>
  <flow id="JF428866" begin="480" fromJunction="J3" toJunction="J6" end="540" vehsPerHour="444.9886797126046" departLane="free"/>
  <flow id="JF428867" begin="480" fromJunction="J3" toJunction="J7" end="540" vehsPerHour="101.19927398483912" departLane="free"/>
  <flow id="JF428868" begin="480" fromJunction="J4" toJunction="J0" end="540" vehsPerHour="122.47520936788239" departLane="free"/>
  <flow id="JF428869" begin="480" fromJunction="J4" toJunction="J3" end="540" vehsPerHour="171.95675920716312" departLane="free"/>
  <flow id="JF428870" begin="480" fromJunction="J4" toJunction="J5" end="540" vehsPerHour="212.44598273966471" departLane="free"/>
  <flow id="JF428871" begin="480" fromJunction="J4" toJunction="J6" end="540" vehsPerHour="148.67175512520654" departLane="free"/>
  <flow id="JF428872" begin="480" fromJunction="J5" toJunction="J0" end="540" vehsPerHour="219.04844956381095" departLane="free"/>
  <flow id="JF428873" begin="480" fromJunction="J5" toJunction="J3" end="540" vehsPerHour="60.08487989483448" departLane="free"/>
  <flow id="JF428874" begin="480" fromJunction="J5" toJunction="J4" end="540" vehsPerHour="267.70580661342797" departLane="free"/>
  <flow id="JF428875" begin="480" fromJunction="J5" toJunction="J6" end="540" vehsPerHour="153.79156533473054" departLane="free"/>
  <flow id="JF428876" begin="480" fromJunction="J5" toJunction="J7" end="540" vehsPerHour="125.73679074597699" departLane="free"/>
  <flow id="JF428877" begin="480" fromJunction="J6" toJunction="J3" end="540" vehsPerHour="109.403712027866" departLane="free"/>
  <flow id="JF428878" begin="480" fromJunction="J6" toJunction="J4" end="540" vehsPerHour="95.06476642502848" departLane="free"/>
  <flow id="JF428879" begin="480" fromJunction="J6" toJunction="J7" end="540" vehsPerHour="215.33633249460675" departLane="free"/>
  <flow id="JF428880" begin="480" fromJunction="J7" toJunction="J0" end="540" vehsPerHour="58.27685853248786" departLane="free"/>
  <flow id="JF428881" begin="480" fromJunction="J7" toJunction="J3" end="540" vehsPerHour="10.687386399539529" departLane="free"/>
  <flow id="JF428882" begin="480" fromJunction="J7" toJunction="J4" end="540" vehsPerHour="264.1911443413041" departLane="free"/>
  <flow id="JF428883" begin="480" fromJunction="J7" toJunction="J5" end="540" vehsPerHour="192.30567712310545" departLane="free"/>
  <flow id="JF428884" begin="480" fromJunction="J7" toJunction="J6" end="540" vehsPerHour="79.02492741081419" departLane="free"/>
  <flow id="JF428885" begin="540" fromJunction="J0" toJunction="J3" end="600" vehsPerHour="187.6537151697528" departLane="free"/>
  <flow id="JF428886" begin="540" fromJunction="J0" toJunction="J4" end="600" vehsPerHour="134.73881235709933" departLane="free"/>
  <flow id="JF428887" begin="540" fromJunction="J0" toJunction="J5" end="600" vehsPerHour="281.53790873512503" departLane="free"/>
  <flow id="JF428888" begin="540" fromJunction="J0" toJunction="J6" end="600" vehsPerHour="64.00596690454127" departLane="free"/>
  <flow id="JF428889" begin="540" fromJunction="J0" toJunction="J7" end="600" vehsPerHour="483.3408845358126" departLane="free"/>
  <flow id="JF428890" begin="540" fromJunction="J3" toJunction="J4" end="600" vehsPerHour="540.527745043109" departLane="free"/>
  <flow id="JF428891" begin="540" fromJunction="J3" toJunction="J6" end="600" vehsPerHour="288.28214724036786" departLane="free"/>
  <flow id="JF428892" begin="540" fromJunction="J4" toJunction="J0" end="600" vehsPerHour="224.60544522068537" departLane="free"/>
  <flow id="JF428893" begin="540" fromJunction="J4" toJunction="J3" end="600" vehsPerHour="173.9868721544209" departLane="free"/>
  <flow id="JF428894" begin="540" fromJunction="J4" toJunction="J6" end="600" vehsPerHour="161.67370426667335" departLane="free"/>
  <flow id="JF428895" begin="540" fromJunction="J5" toJunction="J6" end="600" vehsPerHour="15.970165299276097" departLane="free"/>
  <flow id="JF428896" begin="540" fromJunction="J6" toJunction="J3" end="600" vehsPerHour="49.75349878190197" departLane="free"/>
  <flow id="JF428897" begin="540" fromJunction="J6" toJunction="J7" end="600" vehsPerHour="212.29779113869054" departLane="free"/>
  <flow id="JF428898" begin="540" fromJunction="J7" toJunction="J3" end="600" vehsPerHour="181.7507167614344" departLane="free"/>
  <flow id="JF428899" begin="540" fromJunction="J7" toJunction="J4" end="600" vehsPerHour="172.63921993201842" departLane="free"/>
  <flow id="JF428900" begin="540" fromJunction="J7" toJunction="J5" end="600" vehsPerHour="230.22992751418184" departLane="free"/>
  <flow id="JF428901" begin="540" fromJunction="J7" toJunction="J6" end="600" vehsPerHour="264.1243168437497" departLane="free"/>
  <flow id="JF428902" begin="600" fromJunction="J0" toJunction="J3" end="660" vehsPerHour="136.19199173939978" departLane="free"/>
  <flow id="JF428903" begin="600" fromJunction="J0" toJunction="J4" end="660" vehsPerHour="266.01112863894895" departLane="free"/>
  <flow id="JF428904" begin="600" fromJunction="J0" toJunction="J6" end="660" vehsPerHour="166.30870690624855" departLane="free"/>
  <flow id="JF428905" begin="600" fromJunction="J0" toJunction="J7" end="660" vehsPerHour="131.90559463283415" departLane="free"/>
  <flow id="JF428906" begin="600" fromJunction="J3" toJunction="J0" end="660" vehsPerHour="388.1693236517123" departLane="free"/>
  <flow id="JF428907" begin="600" fromJunction="J3" toJunction="J4" end="660" vehsPerHour="67.59834469706017" departLane="free"/>
  <flow id="JF428908" begin="600" fromJunction="J3" toJunction="J5" end="660" vehsPerHour="34.12893875152947" departLane="free"/>
  <flow id="JF428909" begin="600" fromJunction="J3" toJunction="J6" end="660" vehsPerHour="351.009606675263" departLane="free"/>
  <flow id="JF428910" begin="600" fromJunction="J3" toJunction="J7" end="660" vehsPerHour="51.0114750504853" departLane="free"/>
  <flow id="JF428911" begin="600" fromJunction="J4" toJunction="J0" end="660" vehsPerHour="79.86580186788491" departLane="free"/>
  <flow id="JF428912" begin="600" fromJunction="J4" toJunction="J3" end="660" vehsPerHour="70.12573343536393" departLane="free"/>