<?xml version="1.0" encoding="UTF-8"?>
<routes xmlns:xsi="http://www.w3.org/2001/XMLSchema-instance" xsi:noNamespaceSchemaLocation="http://sumo.dlr.de/xsd/routes_file.xsd">
  <flow id="JF3980" begin="0" fromJunction="J0" toJunction="J3" end="60" vehsPerHour="123.6711457000978" departLane="free"/>
  <flow id="JF3981" begin="0" fromJunction="J3" toJunction="J0" end="60" vehsPerHour="15.056121940584655" departLane="free"/>
  <flow id="JF3982" begin="0" fromJunction="J0" toJunction="J5" end="60" vehsPerHour="42.4388619786885" departLane="free"/>
  <flow id="JF3983" begin="0" fromJunction="J0" toJunction="J7" end="60" vehsPerHour="115.87727920207453" departLane="free"/>
  <flow id="JF3984" begin="0" fromJunction="J0" toJunction="J6" end="60" vehsPerHour="68.4872418021583" departLane="free"/>
  <flow id="JF3985" begin="0" fromJunction="J0" toJunction="J4" end="60" vehsPerHour="38.57393015610783" departLane="free"/>
  <flow id="JF3986" begin="0" fromJunction="J3" toJunction="J5" end="60" vehsPerHour="129.91530276476476" departLane="free"/>
  <flow id="JF3987" begin="0" fromJunction="J3" toJunction="J7" end="60" vehsPerHour="31.049455542577366" departLane="free"/>
  <flow id="JF3988" begin="0" fromJunction="J3" toJunction="J6" end="60" vehsPerHour="132.89391431556618" departLane="free"/>
  <flow id="JF3989" begin="0" fromJunction="J3" toJunction="J4" end="60" vehsPerHour="44.76258295414676" departLane="free"/>
  <flow id="JF3990" begin="0" fromJunction="J5" toJunction="J7" end="60" vehsPerHour="24.85581017530314" departLane="free"/>
  <flow id="JF3991" begin="0" fromJunction="J5" toJunction="J6" end="60" vehsPerHour="18.05369412863045" departLane="free"/>
  <flow id="JF3992" begin="0" fromJunction="J5" toJunction="J4" end="60" vehsPerHour="36.84126046219632" departLane="free"/>
  <flow id="JF3993" begin="0" fromJunction="J7" toJunction="J5" end="60" vehsPerHour="29.644767142330796" departLane="free"/>
  <flow id="JF3994" begin="0" fromJunction="J7" toJunction="J6" end="60" vehsPerHour="37.55169243256268" departLane="free"/>
  <flow id="JF3995" begin="0" fromJunction="J7" toJunction="J4" end="60" vehsPerHour="19.103910503809203" departLane="free"/>
  <flow id="JF3996" begin="0" fromJunction="J6" toJunction="J5" end="60" vehsPerHour="29.927409782628256" departLane="free"/>
  <flow id="JF3997" begin="0" fromJunction="J6" toJunction="J7" end="60" vehsPerHour="25.335802788767655" departLane="free"/>
  <flow id="JF3998" begin="0" fromJunction="J6" toJunction="J4" end="60" vehsPerHour="29.328625658625132" departLane="free"/>
  <flow id="JF3999" begin="0" fromJunction="J4" toJunction="J5" end="60" vehsPerHour="55.93328267818912" departLane="free"/>
  <flow id="JF4000" begin="0" fromJunction="J4" toJunction="J7" end="60" vehsPerHour="47.576684034189654" departLane="free"/>
  <flow id="JF4001" begin="0" fromJunction="J4" toJunction="J6" end="60" vehsPerHour="38.87862450689689" departLane="free"/>
  <flow id="JF4002" begin="0" fromJunction="J5" toJunction="J0" end="60" vehsPerHour="36.37796253624818" departLane="free"/>
  <flow id="JF4003" begin="0" fromJunction="J5" toJunction="J3" end="60" vehsPerHour="23.907032018863585" departLane="free"/>
  <flow id="JF4004" begin="0" fromJunction="J7" toJunction="J0" end="60" vehsPerHour="5.834760691269575" departLane="free"/>
  <flow id="JF4005" begin="0" fromJunction="J7" toJunction="J3" end="60" vehsPerHour="67.56809786564766" departLane="free"/>
  <flow id="JF4006" begin="0" fromJunction="J6" toJunction="J0" end="60" vehsPerHour="61.2519610411307" departLane="free"/>
  <flow id="JF4007" begin="0" fromJunction="J6" toJunction="J3" end="60" vehsPerHour="48.03651136857215" departLane="free"/>
  <flow id="JF4008" begin="0" fromJunction="J4" toJunction="J0" end="60" vehsPerHour="11.941113621225558" departLane="free"/>
  <flow id="JF4009" begin="0" fromJunction="J4" toJunction="J3" end="60" vehsPerHour="12.078743077634007" departLane="free"/>
  <flow id="JF4010" begin="60" fromJunction="J0" toJunction="J3" end="120" vehsPerHour="121.79029717152405" departLane="free"/>
  <flow id="JF4011" begin="60" fromJunction="J3" toJunction="J0" end="120" vehsPerHour="93.67485728142555" departLane="free"/>
  <flow id="JF4012" begin="60" fromJunction="J0" toJunction="J5" end="120" vehsPerHour="110.59203113276241" departLane="free"/>
  <flow id="JF4013" begin="60" fromJunction="J0" toJunction="J7" end="120" vehsPerHour="25.85785619116498" departLane="free"/>
  <flow id="JF4014" begin="60" fromJunction="J0" toJunction="J6" end="120" vehsPerHour="117.94483379589299" departLane="free"/>
  <flow id="JF4015" begin="60" fromJunction="J0" toJunction="J4" end="120" vehsPerHour="129.40170625398852" departLane="free"/>
  <flow id="JF4016" begin="60" fromJunction="J3" toJunction="J5" end="120" vehsPerHour="42.34107845179018" departLane="free"/>
  <flow id="JF4017" begin="60" fromJunction="J3" toJunction="J7" end="120" vehsPerHour="45.68909978662097" departLane="free"/>
  <flow id="JF4018" begin="60" fromJunction="J3" toJunction="J6" end="120" vehsPerHour="68.64075135574812" departLane="free"/>
  <flow id="JF4019" begin="60" fromJunction="J3" toJunction="J4" end="120" vehsPerHour="98.06067966208136" departLane="free"/>
  <flow id="JF4020" begin="60" fromJunction="J5" toJunction="J7" end="120" vehsPerHour="0.7428967447492557" departLane="free"/>
  <flow id="JF4021" begin="60" fromJunction="J5" toJunction="J6" end="120" vehsPerHour="4.389774967028121" departLane="free"/>
  <flow id="JF4022" begin="60" fromJunction="J5" toJunction="J4" end="120" vehsPerHour="11.34036415221521" departLane="free"/>
  <flow id="JF4023" begin="60" fromJunction="J7" toJunction="J5" end="120" vehsPerHour="43.23389761245606" departLane="free"/>
  <flow id="JF4024" begin="60" fromJunction="J7" toJunction="J6" end="120" vehsPerHour="10.998585415894876" departLane="free"/>
  <flow id="JF4025" begin="60" fromJunction="J7" toJunction="J4" end="120" vehsPerHour="56.343831701348826" departLane="free"/>
  <flow id="JF4026" begin="60" fromJunction="J6" toJunction="J5" end="120" vehsPerHour="29.5252410446686" departLane="free"/>
  <flow id="JF4027" begin="60" fromJunction="J6" toJunction="J7" end="120" vehsPerHour="0.9051213012882227" departLane="free"/>
  <flow id="JF4028" begin="60" fromJunction="J6" toJunction="J4" end="120" vehsPerHour="3.1284284330804444" departLane="free"/>
  <flow id="JF4029" begin="60" fromJunction="J4" toJunction="J5" end="120" vehsPerHour="64.88619040166923" departLane="free"/>
  <flow id="JF4030" begin="60" fromJunction="J4" toJunction="J7" end="120" vehsPerHour="8.722966642883232" departLane="free"/>
  <flow id="JF4031" begin="60" fromJunction="J4" toJunction="J6" end="120" vehsPerHour="25.971143655200216" departLane="free"/>
  <flow id="JF4032" begin="60" fromJunction="J5" toJunction="J0" end="120" vehsPerHour="33.07398173069536" departLane="free"/>
  <flow id="JF4033" begin="60" fromJunction="J5" toJunction="J3" end="120" vehsPerHour="50.3124240472691" departLane="free"/>
  <flow id="JF4034" begin="60" fromJunction="J7" toJunction="J0" end="120" vehsPerHour="5.417805893957666" departLane="free"/>
  <flow id="JF4035" begin="60" fromJunction="J7" toJunction="J3" end="120" vehsPerHour="5.553164501403872" departLane="free"/>
  <flow id="JF4036" begin="60" fromJunction="J6" toJunction="J0" end="120" vehsPerHour="29.138280544944795" departLane="free"/>
  <flow id="JF4037" begin="60" fromJunction="J6" toJunction="J3" end="120" vehsPerHour="6.763668600706462" departLane="free"/>
  <flow id="JF4038" begin="60" fromJunction="J4" toJunction="J0" end="120" vehsPerHour="54.15727522158216" departLane="free"/>
  <flow id="JF4039" begin="60" fromJunction="J4" toJunction="J3" end="120" vehsPerHour="9.444152969563014" departLane="free"/>
  <flow id="JF4040" begin="120" fromJunction="J0" toJunction="J3" end="180" vehsPerHour="127.6475118915111" departLane="free"/>
  <flow id="JF4041" begin="120" fromJunction="J3" toJunction="J0" end="180" vehsPerHour="43.754607770200415" departLane="free"/>
  <flow id="JF4042" begin="120" fromJunction="J0" toJunction="J5" end="180" vehsPerHour="32.0679468912877" departLane="free"/>
  <flow id="JF4043" begin="120" fromJunction="J0" toJunction="J7" end="180" vehsPerHour="35.08227162577133" departLane="free"/>
  <flow id="JF4044" begin="120" fromJunction="J0" toJunction="J6" end="180" vehsPerHour="80.74325934468156" departLane="free"/>
  <flow id="JF4045" begin="120" fromJunction="J0" toJunction="J4" end="180" vehsPerHour="20.425941563773986" departLane="free"/>
  <flow id="JF4046" begin="120" fromJunction="J3" toJunction="J5" end="180" vehsPerHour="88.54207623388177" departLane="free"/>
  <flow id="JF4047" begin="120" fromJunction="J3" toJunction="J7" end="180" vehsPerHour="20.146488312737507" departLane="free"/>
  <flow id="JF4048" begin="120" fromJunction="J3" toJunction="J6" end="180" vehsPerHour="22.289257551000823" departLane="free"/>
  <flow id="JF4049" begin="120" fromJunction="J3" toJunction="J4" end="180" vehsPerHour="34.122507345743145" departLane="free"/>
  <flow id="JF4050" begin="120" fromJunction="J5" toJunction="J7" end="180" vehsPerHour="56.615670210615505" departLane="free"/>
  <flow id="JF4051" begin="120" fromJunction="J5" toJunction="J6" end="180" vehsPerHour="9.727454510227272" departLane="free"/>
  <flow id="JF4052" begin="120" fromJunction="J5" toJunction="J4" end="180" vehsPerHour="36.29477213852635" departLane="free"/>
  <flow id="JF4053" begin="120" fromJunction="J7" toJunction="J5" end="180" vehsPerHour="37.62402085795784" departLane="free"/>
  <flow id="JF4054" begin="120" fromJunction="J7" toJunction="J6" end="180" vehsPerHour="68.21103654275389" departLane="free"/>
  <flow id="JF4055" begin="120" fromJunction="J7" toJunction="J4" end="180" vehsPerHour="31.213307632832215" departLane="free"/>
  <flow id="JF4056" begin="120" fromJunction="J6" toJunction="J5" end="180" vehsPerHour="68.23689041894754" departLane="free"/>
  <flow id="JF4057" begin="120" fromJunction="J6" toJunction="J7" end="180" vehsPerHour="8.464070953638716" departLane="free"/>
  <flow id="JF4058" begin="120" fromJunction="J6" toJunction="J4" end="180" vehsPerHour="39.68046387141381" departLane="free"/>
  <flow id="JF4059" begin="120" fromJunction="J4" toJunction="J5" end="180" vehsPerHour="30.410074149019646" departLane="free"/>
  <flow id="JF4060" begin="120" fromJunction="J4" toJunction="J7" end="180" vehsPerHour="32.61719045904637" departLane="free"/>
  <flow id="JF4061" begin="120" fromJunction="J4" toJunction="J6" end="180" vehsPerHour="65.19348872359352" departLane="free"/>
  <flow id="JF4062" begin="120" fromJunction="J5" toJunction="J0" end="180" vehsPerHour="15.732199129989173" departLane="free"/>
  <flow id="JF4063" begin="120" fromJunction="J5" toJunction="J3" end="180" vehsPerHour="56.94861479554992" departLane="free"/>
  <flow id="JF4064" begin="120" fromJunction="J7" toJunction="J0" end="180" vehsPerHour="35.04003561502437" departLane="free"/>
  <flow id="JF4065" begin="120" fromJunction="J7" toJunction="J3" end="180" vehsPerHour="43.66728707445962" departLane="free"/>
  <flow id="JF4066" begin="120" fromJunction="J6" toJunction="J0" end="180" vehsPerHour="19.95063107171701" departLane="free"/>
  <flow id="JF4067" begin="120" fromJunction="J6" toJunction="J3" end="180" vehsPerHour="2.940439663981569" departLane="free"/>
  <flow id="JF4068" begin="120" fromJunction="J4" toJunction="J0" end="180" vehsPerHour="62.937787146603185" departLane="free"/>
  <flow id="JF4069" begin="120" fromJunction="J4" toJunction="J3" end="180" vehsPerHour="63.6182432015094" departLane="free"/>
  <flow id="JF4070" begin="180" fromJunction="J0" toJunction="J3" end="240" vehsPerHour="49.44636216366617" departLane="free"/>
  <flow id="JF4071" begin="180" fromJunction="J3" toJunction="J0" end="240" vehsPerHour="128.0265858948381" departLane="free"/>
  <flow id="JF4072" begin="180" fromJunction="J0" toJunction="J5" end="240" vehsPerHour="131.08234513015591" departLane="free"/>
  <flow id="JF4073" begin="180" fromJunction="J0" toJunction="J7" end="240" vehsPerHour="93.18360475384263" departLane="free"/>
  <flow id="JF4074" begin="180" fromJunction="J0" toJunction="J6" end="240" vehsPerHour="41.285420923695064" departLane="free"/>
  <flow id="JF4075" begin="180" fromJunction="J0" toJunction="J4" end="240" vehsPerHour="42.67118106900886" departLane="free"/>
  <flow id="JF4076" begin="180" fromJunction="J3" toJunction="J5" end="240" vehsPerHour="28.993805712642292" departLane="free"/>
  <flow id="JF4077" begin="180" fromJunction="J3" toJunction="J7" end="240" vehsPerHour="83.2965674370836" departLane="free"/>
  <flow id="JF4078" begin="180" fromJunction="J3" toJunction="J6" end="240" vehsPerHour="87.90759649411655" departLane="free"/>
  <flow id="JF4079" begin="180" fromJunction="J3" toJunction="J4" end="240" vehsPerHour="53.72747329508031" departLane="free"/>
  <flow id="JF4080" begin="180" fromJunction="J5" toJunction="J7" end="240" vehsPerHour="4.626537563040685" departLane="free"/>
  <flow id="JF4081" begin="180" fromJunction="J5" toJunction="J6" end="240" vehsPerHour="3.6501875110298165" departLane="free"/>
  <flow id="JF4082" begin="180" fromJunction="J5" toJunction="J4" end="240" vehsPerHour="34.65022383276523" departLane="free"/>
  <flow id="JF4083" begin="180" fromJunction="J7" toJunction="J5" end="240" vehsPerHour="18.526044497558146" departLane="free"/>
  <flow id="JF4084" begin="180" fromJunction="J7" toJunction="J6" end="240" vehsPerHour="18.854234719032608" departLane="free"/>
  <flow id="JF4085" begin="180" fromJunction="J7" toJunction="J4" end="240" vehsPerHour="48.39975985998876" departLane="free"/>
  <flow id="JF4086" begin="180" fromJunction="J6" toJunction="J5" end="240" vehsPerHour="18.501928560553033" departLane="free"/>
  <flow id="JF4087" begin="180" fromJunction="J6" toJunction="J7" end="240" vehsPerHour="58.78480606782055" departLane="free"/>
  <flow id="JF4088" begin="180" fromJunction="J6" toJunction="J4" end="240" vehsPerHour="68.07210556136424" departLane="free"/>
  <flow id="JF4089" begin="180" fromJunction="J4" toJunction="J5" end="240" vehsPerHour="32.746766529588626" departLane="free"/>
  <flow id="JF4090" begin="180" fromJunction="J4" toJunction="J7" end="240" vehsPerHour="19.117129445384432" departLane="free"/>
  <flow id="JF4091" begin="180" fromJunction="J4" toJunction="J6" end="240" vehsPerHour="43.658871327228475" departLane="free"/>
  <flow id="JF4092" begin="180" fromJunction="J5" toJunction="J0" end="240" vehsPerHour="6.084577513544774" departLane="free"/>
  <flow id="JF4093" begin="180" fromJunction="J5" toJunction="J3" end="240" vehsPerHour="61.899892844661814" departLane="free"/>
  <flow id="JF4094" begin="180" fromJunction="J7" toJunction="J0" end="240" vehsPerHour="5.124139764760095" departLane="free"/>
  <flow id="JF4095" begin="180" fromJunction="J7" toJunction="J3" end="240" vehsPerHour="28.65659092835464" departLane="free"/>
  <flow id="JF4096" begin="180" fromJunction="J6" toJunction="J0" end="240" vehsPerHour="19.11364324209336" departLane="free"/>
  <flow id="JF4097" begin="180" fromJunction="J6" toJunction="J3" end="240" vehsPerHour="50.306651000901496" departLane="free"/>
  <flow id="JF4098" begin="180" fromJunction="J4" toJunction="J0" end="240" vehsPerHour="60.799816066515966" departLane="free"/>
  <flow id="JF4099" begin="180" fromJunction="J4" toJunction="J3" end="240" vehsPerHour="41.06107924957619" departLane="free"/>
  <flow id="JF4100" begin="240" fromJunction="J0" toJunction="J3" end="300" vehsPerHour="83.8332326827201" departLane="free"/>
  <flow id="JF4101" begin="240" fromJunction="J3" toJunction="J0" end="300" vehsPerHour="40.68472364520719" departLane="free"/>
  <flow id="JF4102" begin="240" fromJunction="J0" toJunction="J5" end="300" vehsPerHour="90.44294563199469" departLane="free"/>
  <flow id="JF4103" begin="240" fromJunction="J0" toJunction="J7" end="300" vehsPerHour="102.411697980512" departLane="free"/>
  <flow id="JF4104" begin="240" fromJunction="J0" toJunction="J6" end="300" vehsPerHour="116.23829005080738" departLane="free"/>
  <flow id="JF4105" begin="240" fromJunction="J0" toJunction="J4" end="300" vehsPerHour="37.353480728768815" departLane="free"/>
  <flow id="JF4106" begin="240" fromJunction="J3" toJunction="J5" end="300" vehsPerHour="52.18286550186153" departLane="free"/>
  <flow id="JF4107" begin="240" fromJunction="J3" toJunction="J7" end="300" vehsPerHour="75.35666610704185" departLane="free"/>
  <flow id="JF4108" begin="240" fromJunction="J3" toJunction="J6" end="300" vehsPerHour="118.51720550974957" departLane="free"/>
  <flow id="JF4109" begin="240" fromJunction="J3" toJunction="J4" end="300" vehsPerHour="15.587122140891747" departLane="free"/>
  <flow id="JF4110" begin="240" fromJunction="J5" toJunction="J7" end="300" vehsPerHour="0.7927336554731497" departLane="free"/>
  <flow id="JF4111" begin="240" fromJunction="J5" toJunction="J6" end="300" vehsPerHour="23.404032010903776" departLane="free"/>
  <flow id="JF4112" begin="240" fromJunction="J5" toJunction="J4" end="300" vehsPerHour="4.088250255670409" departLane="free"/>
  <flow id="JF4113" begin="240" fromJunction="J7" toJunction="J5" end="300" vehsPerHour="63.17966679824634" departLane="free"/>
  <flow id="JF4114" begin="240" fromJunction="J7" toJunction="J6" end="300" vehsPerHour="17.107057100069603" departLane="free"/>
  <flow id="JF4115" begin="240" fromJunction="J7" toJunction="J4" end="300" vehsPerHour="41.58940741094528" departLane="free"/>
  <flow id="JF4116" begin="240" fromJunction="J6" toJunction="J5" end="300" vehsPerHour="28.19217458599119" departLane="free"/>
  <flow id="JF4117" begin="240" fromJunction="J6" toJunction="J7" end="300" vehsPerHour="40.60124443586443" departLane="free"/>
  <flow id="JF4118" begin="240" fromJunction="J6" toJunction="J4" end="300" vehsPerHour="22.153154036486917" departLane="free"/>
  <flow id="JF4119" begin="240" fromJunction="J4" toJunction="J5" end="300" vehsPerHour="12.102004699865862" departLane="free"/>
  <flow id="JF4120" begin="240" fromJunction="J4" toJunction="J7" end="300" vehsPerHour="46.396801811417916" departLane="free"/>
  <flow id="JF4121" begin="240" fromJunction="J4" toJunction="J6" end="300" vehsPerHour="4.901224851383223" departLane="free"/>
  <flow id="JF4122" begin="240" fromJunction="J5" toJunction="J0" end="300" vehsPerHour="24.716179368160116" departLane="free"/>
  <flow id="JF4123" begin="240" fromJunction="J5" toJunction="J3" end="300" vehsPerHour="52.978883406245764" departLane="free"/>
  <flow id="JF4124" begin="240" fromJunction="J7" toJunction="J0" end="300" vehsPerHour="52.63988325194324" departLane="free"/>
  <flow id="JF4125" begin="240" fromJunction="J7" toJunction="J3" end="300" vehsPerHour="58.54863872234535" departLane="free"/>
  <flow id="JF4126" begin="240" fromJunction="J6" toJunction="J0" end="300" vehsPerHour="45.63788980609538" departLane="free"/>
  <flow id="JF4127" begin="240" fromJunction="J6" toJunction="J3" end="300" vehsPerHour="2.445177898117292" departLane="free"/>
  <flow id="JF4128" begin="240" fromJunction="J4" toJunction="J0" end="300" vehsPerHour="58.55176215485883" departLane="free"/>
  <flow id="JF4129" begin="240" fromJunction="J4" toJunction="J3" end="300" vehsPerHour="33.264877514194474" departLane="free"/>
  <flow id="JF4130" begin="300" fromJunction="J0" toJunction="J3" end="360" vehsPerHour="115.66904295556532" departLane="free"/>
  <flow id="JF4131" begin="300" fromJunction="J3" toJunction="J0" end="360" vehsPerHour="12.187510212073747" departLane="free"/>
  <flow id="JF4132" begin="300" fromJunction="J0" toJunction="J5" end="360" vehsPerHour="23.3579196937914" departLane="free"/>
  <flow id="JF4133" begin="300" fromJunction="J0" toJunction="J7" end="360" vehsPerHour="128.89011736363554" departLane="free"/>
  <flow id="JF4134" begin="300" fromJunction="J0" toJunction="J6" end="360" vehsPerHour="95.94385610181897" departLane="free"/>
  <flow id="JF4135" begin="300" fromJunction="J0" toJunction="J4" end="360" vehsPerHour="92.05584342846201" departLane="free"/>
  <flow id="JF4136" begin="300" fromJunction="J3" toJunction="J5" end="360" vehsPerHour="87.60510516859809" departLane="free"/>
  <flow id="JF4137" begin="300" fromJunction="J3" toJunction="J7" end="360" vehsPerHour="63.303279074372846" departLane="free"/>
  <flow id="JF4138" begin="300" fromJunction="J3" toJunction="J6" end="360" vehsPerHour="70.14477912340115" departLane="free"/>
  <flow id="JF4139" begin="300" fromJunction="J3" toJunction="J4" end="360" vehsPerHour="76.07347601739124" departLane="free"/>
  <flow id="JF4140" begin="300" fromJunction="J5" toJunction="J7" end="360" vehsPerHour="29.927668386090247" departLane="free"/>
  <flow id="JF4141" begin="300" fromJunction="J5" toJunction="J6" end="360" vehsPerHour="44.575920009853995" departLane="free"/>
  <flow id="JF4142" begin="300" fromJunction="J5" toJunction="J4" end="360" vehsPerHour="4.046451248838213" departLane="free"/>
  <flow id="JF4143" begin="300" fromJunction="J7" toJunction="J5" end="360" vehsPerHour="9.861469446635752" departLane="free"/>
  <flow id="JF4144" begin="300" fromJunction="J7" toJunction="J6" end="360" vehsPerHour="2.075149928754111" departLane="free"/>
  <flow id="JF4145" begin="300" fromJunction="J7" toJunction="J4" end="360" vehsPerHour="57.319314908026385" departLane="free"/>
  <flow id="JF4146" begin="300" fromJunction="J6" toJunction="J5" end="360" vehsPerHour="39.10059555893203" departLane="free"/>
  <flow id="JF4147" begin="300" fromJunction="J6" toJunction="J7" end="360" vehsPerHour="1.8454257041632325" departLane="free"/>
  <flow id="JF4148" begin="300" fromJunction="J6" toJunction="J4" end="360" vehsPerHour="41.59035573365971" departLane="free"/>
  <flow id="JF4149" begin="300" fromJunction="J4" toJunction="J5" end="360" vehsPerHour="20.31756909784113" departLane="free"/>
  <flow id="JF4150" begin="300" fromJunction="J4" toJunction="J7" end="360" vehsPerHour="65.55211196734236" departLane="free"/>
  <flow id="JF4151" begin="300" fromJunction="J4" toJunction="J6" end="360" vehsPerHour="59.21237091330432" departLane="free"/>
  <flow id="JF4152" begin="300" fromJunction="J5" toJunction="J0" end="360" vehsPerHour="7.158818821362122" departLane="free"/>
  <flow id="JF4153" begin="300" fromJunction="J5" toJunction="J3" end="360" vehsPerHour="24.107658224117387" departLane="free"/>
  <flow id="JF4154" begin="300" fromJunction="J7" toJunction="J0" end="360" vehsPerHour="4.219382435764452" departLane="free"/>
  <flow id="JF4155" begin="300" fromJunction="J7" toJunction="J3" end="360" vehsPerHour="4.872636470467985" departLane="free"/>
  <flow id="JF4156" begin="300" fromJunction="J6" toJunction="J0" end="360" vehsPerHour="53.15073266829818" departLane="free"/>
  <flow id="JF4157" begin="300" fromJunction="J6" toJunction="J3" end="360" vehsPerHour="32.93769800961295" departLane="free"/>
  <flow id="JF4158" begin="300" fromJunction="J4" toJunction="J0" end="360" vehsPerHour="50.31831821425098" departLane="free"/>
  <flow id="JF4159" begin="300" fromJunction="J4" toJunction="J3" end="360" vehsPerHour="56.47071537076002" departLane="free"/>
  <flow id="JF4160" begin="360" fromJunction="J0" toJunction="J3" end="420" vehsPerHour="63.521012789612776" departLane="free"/>
  <flow id="JF4161" begin="360" fromJunction="J3" toJunction="J0" end="420" vehsPerHour="64.15453225513284" departLane="free"/>
  <flow id="JF4162" begin="360" fromJunction="J0" toJunction="J5" end="420" vehsPerHour="91.06824525140895" departLane="free"/>
  <flow id="JF4163" begin="360" fromJunction="J0" toJunction="J7" end="420" vehsPerHour="107.29064534299097" departLane="free"/>
  <flow id="JF4164" begin="360" fromJunction="J0" toJunction="J6" end="420" vehsPerHour="43.26462587774303" departLane="free"/>
  <flow id="JF4165" begin="360" fromJunction="J0" toJunction="J4" end="420" vehsPerHour="1.1672525080099818" departLane="free"/>
  <flow id="JF4166" begin="360" fromJunction="J3" toJunction="J5" end="420" vehsPerHour="135.65626084416579" departLane="free"/>
  <flow id="JF4167" begin="360" fromJunction="J3" toJunction="J7" end="420" vehsPerHour="78.72446068256049" departLane="free"/>
  <flow id="JF4168" begin="360" fromJunction="J3" toJunction="J6" end="420" vehsPerHour="104.9541395821275" departLane="free"/>
  <flow id="JF4169" begin="360" fromJunction="J3" toJunction="J4" end="420" vehsPerHour="8.51279164002453" departLane="free"/>
  <flow id="JF4170" begin="420" fromJunction="J0" toJunction="J3" end="480" vehsPerHour="95.96483452138776" departLane="free"/>
  <flow id="JF4171" begin="420" fromJunction="J3" toJunction="J0" end="480" vehsPerHour="55.82841354385423" departLane="free"/>
  <flow id="JF4172" begin="420" fromJunction="J0" toJunction="J5" end="480" vehsPerHour="74.10196248938185" departLane="free"/>
  <flow id="JF4173" begin="420" fromJunction="J0" toJunction="J7" end="480" vehsPerHour="64.82795060851733" departLane="free"/>
  <flow id="JF4174" begin="420" fromJunction="J0" toJunction="J6" end="480" vehsPerHour="79.56933508234731" departLane="free"/>
  <flow id="JF4175" begin="420" fromJunction="J0" toJunction="J4" end="480" vehsPerHour="40.674855089895104" departLane="free"/>
  <flow id="JF4176" begin="420" fromJunction="J3" toJunction="J5" end="480" vehsPerHour="135.2803563955431" departLane="free"/>
  <flow id="JF4177" begin="420" fromJunction="J3" toJunction="J7" end="480" vehsPerHour="10.88471305110623" departLane="free"/>
  <flow id="JF4178" begin="420" fromJunction="J3" toJunction="J6" end="480" vehsPerHour="73.03692324505727" departLane="free"/>
  <flow id="JF4179" begin="420" fromJunction="J3" toJunction="J4" end="480" vehsPerHour="46.94018621103663" departLane="free"/>
  <flow id="JF4180" begin="420" fromJunction="J5" toJunction="J7" end="480" vehsPerHour="46.154507090771254" departLane="free"/>
  <flow id="JF4181" begin="420" fromJunction="J5" toJunction="J6" end="480" vehsPerHour="53.43760288780909" departLane="free"/>
  <flow id="JF4182" begin="420" fromJunction="J5" toJunction="J4" end="480" vehsPerHour="63.202651196328915" departLane="free"/>
  <flow id="JF4183" begin="420" fromJunction="J7" toJunction="J5" end="480" vehsPerHour="23.809638188712267" departLane="free"/>
  <flow id="JF4184" begin="420" fromJunction="J7" toJunction="J6" end="480" vehsPerHour="15.21489943822183" departLane="free"/>
  <flow id="JF4185" begin="420" fromJunction="J7" toJunction="J4" end="480" vehsPerHour="46.872676262394656" departLane="free"/>
  <flow id="JF4186" begin="420" fromJunction="J6" toJunction="J5" end="480" vehsPerHour="40.258914224718986" departLane="free"/>
  <flow id="JF4187" begin="420" fromJunction="J6" toJunction="J7" end="480" vehsPerHour="15.106056873310408" departLane="free"/>
  <flow id="JF4188" begin="420" fromJunction="J6" toJunction="J4" end="480" vehsPerHour="57.04980813548543" departLane="free"/>
  <flow id="JF4189" begin="420" fromJunction="J4" toJunction="J5" end="480" vehsPerHour="59.491616859721134" departLane="free"/>
  <flow id="JF4190" begin="420" fromJunction="J4" toJunction="J7" end="480" vehsPerHour="25.16170607734392" departLane="free"/>
  <flow id="JF4191" begin="420" fromJunction="J4" toJunction="J6" end="480" vehsPerHour="48.07279451940814" departLane="free"/>
  <flow id="JF4192" begin="420" fromJunction="J5" toJunction="J0" end="480" vehsPerHour="44.16313241124983" departLane="free"/>
  <flow id="JF4193" begin="420" fromJunction="J5" toJunction="J3" end="480" vehsPerHour="16.551700369352915" departLane="free"/>
  <flow id="JF4194" begin="420" fromJunction="J7" toJunction="J0" end="480" vehsPerHour="14.739297870789642" departLane="free"/>
  <flow id="JF4195" begin="420" fromJunction="J7" toJunction="J3" end="480" vehsPerHour="31.232512396212833" departLane="free"/>
  <flow id="JF4196" begin="420" fromJunction="J6" toJunction="J0" end="480" vehsPerHour="32.954397579702494" departLane="free"/>
  <flow id="JF4197" begin="420" fromJunction="J6" toJunction="J3" end="480" vehsPerHour="20.213309450277" departLane="free"/>
  <flow id="JF4198" begin="420" fromJunction="J4" toJunction="J0" end="480" vehsPerHour="29.259193895832617" departLane="free"/>
  <flow id="JF4199" begin="420" fromJunction="J4" toJunction="J3" end="480" vehsPerHour="42.500547857530876" departLane="free"/>
  <flow id="JF4200" begin="480" fromJunction="J0" toJunction="J3" end="540" vehsPerHour="77.76087469348398" departLane="free"/>
  <flow id="JF4201" begin="480" fromJunction="J3" toJunction="J0" end="540" vehsPerHour="130.40094855491247" departLane="free"/>
  <flow id="JF4202" begin="480" fromJunction="J0" toJunction="J5" end="540" vehsPerHour="38.8385659147422" departLane="free"/>
  <flow id="JF4203" begin="480" fromJunction="J0" toJunction="J7" end="540" vehsPerHour="1.2902277453408657" departLane="free"/>
  <flow id="JF4204" begin="480" fromJunction="J0" toJunction="J6" end="540" vehsPerHour="18.80249971739351" departLane="free"/>
  <flow id="JF4205" begin="480" fromJunction="J0" toJunction="J4" end="540" vehsPerHour="71.19946596445295" departLane="free"/>
  <flow id="JF4206" begin="480" fromJunction="J3" toJunction="J5" end="540" vehsPerHour="46.02014428413222" departLane="free"/>
  <flow id="JF4207" begin="480" fromJunction="J3" toJunction="J7" end="540" vehsPerHour="13.07723863108484" departLane="free"/>
  <flow id="JF4208" begin="480" fromJunction="J3" toJunction="J6" end="540" vehsPerHour="16.595595623492393" departLane="free"/>
  <flow id="JF4209" begin="480" fromJunction="J3" toJunction="J4" end="540" vehsPerHour="70.6838199796092" departLane="free"/>
  <flow id="JF4210" begin="480" fromJunction="J5" toJunction="J7" end="540" vehsPerHour="60.570362762293875" departLane="free"/>
  <flow id="JF4211" begin="480" fromJunction="J5" toJunction="J6" end="540" vehsPerHour="28.070286398189825" departLane="free"/>
  <flow id="JF4212" begin="480" fromJunction="J5" toJunction="J4" end="540" vehsPerHour="8.450777389027444" departLane="free"/>