<?xml version="1.0" encoding="UTF-8"?>
<routes xmlns:xsi="http://www.w3.org/2001/XMLSchema-instance" xsi:noNamespaceSchemaLocation="http://sumo.dlr.de/xsd/routes_file.xsd">
  <flow id="JF107615" begin="0" fromJunction="J0" toJunction="J5" end="60" vehsPerHour="12.276810839034498"/>
  <flow id="JF107616" begin="0" fromJunction="J0" toJunction="J7" end="60" vehsPerHour="63.473748459897664"/>
  <flow id="JF107617" begin="0" fromJunction="J3" toJunction="J0" end="60" vehsPerHour="37.37237953396652"/>
  <flow id="JF107618" begin="0" fromJunction="J3" toJunction="J4" end="60" vehsPerHour="89.25713256757261"/>
  <flow id="JF107619" begin="0" fromJunction="J3" toJunction="J5" end="60" vehsPerHour="115.79086141779247"/>
  <flow id="JF107620" begin="0" fromJunction="J3" toJunction="J6" end="60" vehsPerHour="90.48105723544398"/>
  <flow id="JF107621" begin="0" fromJunction="J3" toJunction="J7" end="60" vehsPerHour="60.65304200202259"/>
  <flow id="JF107622" begin="0" fromJunction="J4" toJunction="J0" end="60" vehsPerHour="67.04626751117071"/>
  <flow id="JF107623" begin="0" fromJunction="J4" toJunction="J3" end="60" vehsPerHour="39.02628136889242"/>
  <flow id="JF107624" begin="0" fromJunction="J4" toJunction="J5" end="60" vehsPerHour="14.648177426236465"/>
  <flow id="JF107625" begin="0" fromJunction="J4" toJunction="J6" end="60" vehsPerHour="57.75235453474154"/>
  <flow id="JF107626" begin="0" fromJunction="J4" toJunction="J7" end="60" vehsPerHour="11.22127778938305"/>
  <flow id="JF107627" begin="0" fromJunction="J5" toJunction="J0" end="60" vehsPerHour="25.224691976624175"/>
  <flow id="JF107628" begin="0" fromJunction="J5" toJunction="J3" end="60" vehsPerHour="29.19672376444383"/>
  <flow id="JF107629" begin="0" fromJunction="J5" toJunction="J4" end="60" vehsPerHour="66.24155306836387"/>
  <flow id="JF107630" begin="0" fromJunction="J6" toJunction="J0" end="60" vehsPerHour="16.61674363674427"/>
  <flow id="JF107631" begin="0" fromJunction="J6" toJunction="J3" end="60" vehsPerHour="34.315722164492165"/>
  <flow id="JF107632" begin="0" fromJunction="J6" toJunction="J4" end="60" vehsPerHour="42.026264210980784"/>
  <flow id="JF107633" begin="0" fromJunction="J6" toJunction="J5" end="60" vehsPerHour="54.575478154630126"/>
  <flow id="JF107634" begin="0" fromJunction="J7" toJunction="J3" end="60" vehsPerHour="55.24974813456164"/>
  <flow id="JF107635" begin="0" fromJunction="J7" toJunction="J4" end="60" vehsPerHour="6.810986760663499"/>
  <flow id="JF107636" begin="0" fromJunction="J7" toJunction="J5" end="60" vehsPerHour="29.348355282721826"/>
  <flow id="JF107637" begin="0" fromJunction="J7" toJunction="J6" end="60" vehsPerHour="65.02908374418779"/>
  <flow id="JF107638" begin="60" fromJunction="J0" toJunction="J4" end="120" vehsPerHour="35.69246359844428"/>
  <flow id="JF107639" begin="60" fromJunction="J0" toJunction="J5" end="120" vehsPerHour="104.45048330136186"/>
  <flow id="JF107640" begin="60" fromJunction="J0" toJunction="J6" end="120" vehsPerHour="7.673542121981735"/>
  <flow id="JF107641" begin="60" fromJunction="J0" toJunction="J7" end="120" vehsPerHour="59.447704357637015"/>
  <flow id="JF107642" begin="60" fromJunction="J3" toJunction="J0" end="120" vehsPerHour="125.43414485808914"/>
  <flow id="JF107643" begin="60" fromJunction="J3" toJunction="J6" end="120" vehsPerHour="47.139356811295876"/>
  <flow id="JF107644" begin="60" fromJunction="J4" toJunction="J0" end="120" vehsPerHour="5.393210097670355"/>
  <flow id="JF107645" begin="60" fromJunction="J4" toJunction="J3" end="120" vehsPerHour="9.624470440355163"/>
  <flow id="JF107646" begin="60" fromJunction="J4" toJunction="J5" end="120" vehsPerHour="20.745211124597628"/>
  <flow id="JF107647" begin="60" fromJunction="J4" toJunction="J6" end="120" vehsPerHour="39.03029104460606"/>
  <flow id="JF107648" begin="60" fromJunction="J4" toJunction="J7" end="120" vehsPerHour="22.505774084555583"/>
  <flow id="JF107649" begin="60" fromJunction="J5" toJunction="J4" end="120" vehsPerHour="4.033190901562076"/>
  <flow id="JF107650" begin="60" fromJunction="J5" toJunction="J6" end="120" vehsPerHour="33.42698184728683"/>
  <flow id="JF107651" begin="60" fromJunction="J5" toJunction="J7" end="120" vehsPerHour="2.5235586843035835"/>
  <flow id="JF107652" begin="60" fromJunction="J6" toJunction="J0" end="120" vehsPerHour="29.953960059554824"/>
  <flow id="JF107653" begin="60" fromJunction="J6" toJunction="J3" end="120" vehsPerHour="44.563461293231555"/>
  <flow id="JF107654" begin="60" fromJunction="J6" toJunction="J5" end="120" vehsPerHour="13.321152683509554"/>
  <flow id="JF107655" begin="60" fromJunction="J6" toJunction="J7" end="120" vehsPerHour="6.040111338456795"/>
  <flow id="JF107656" begin="60" fromJunction="J7" toJunction="J0" end="120" vehsPerHour="0.6528986548152276"/>
  <flow id="JF107657" begin="60" fromJunction="J7" toJunction="J5" end="120" vehsPerHour="22.939859167683988"/>
  <flow id="JF107658" begin="60" fromJunction="J7" toJunction="J6" end="120" vehsPerHour="68.37159495761793"/>
  <flow id="JF107659" begin="120" fromJunction="J0" toJunction="J3" end="180" vehsPerHour="112.43730272056128"/>
  <flow id="JF107660" begin="120" fromJunction="J0" toJunction="J6" end="180" vehsPerHour="21.860615385296953"/>
  <flow id="JF107661" begin="120" fromJunction="J0" toJunction="J7" end="180" vehsPerHour="91.6322543311475"/>
  <flow id="JF107662" begin="120" fromJunction="J3" toJunction="J0" end="180" vehsPerHour="71.77431492623349"/>
  <flow id="JF107663" begin="120" fromJunction="J3" toJunction="J4" end="180" vehsPerHour="49.191450277935765"/>
  <flow id="JF107664" begin="120" fromJunction="J3" toJunction="J6" end="180" vehsPerHour="20.235421550506633"/>
  <flow id="JF107665" begin="120" fromJunction="J3" toJunction="J7" end="180" vehsPerHour="137.16885177047212"/>
  <flow id="JF107666" begin="120" fromJunction="J4" toJunction="J0" end="180" vehsPerHour="39.4795393676896"/>
  <flow id="JF107667" begin="120" fromJunction="J4" toJunction="J5" end="180" vehsPerHour="34.22028815719111"/>
  <flow id="JF107668" begin="120" fromJunction="J4" toJunction="J6" end="180" vehsPerHour="62.897293066076884"/>
  <flow id="JF107669" begin="120" fromJunction="J4" toJunction="J7" end="180" vehsPerHour="52.54075508526599"/>
  <flow id="JF107670" begin="120" fromJunction="J5" toJunction="J4" end="180" vehsPerHour="67.29570003226982"/>
  <flow id="JF107671" begin="120" fromJunction="J5" toJunction="J6" end="180" vehsPerHour="41.168344544564874"/>
  <flow id="JF107672" begin="120" fromJunction="J5" toJunction="J7" end="180" vehsPerHour="7.519391612511279"/>
  <flow id="JF107673" begin="120" fromJunction="J6" toJunction="J0" end="180" vehsPerHour="23.047776506974923"/>
  <flow id="JF107674" begin="120" fromJunction="J6" toJunction="J4" end="180" vehsPerHour="52.17319949277524"/>
  <flow id="JF107675" begin="120" fromJunction="J6" toJunction="J7" end="180" vehsPerHour="68.44479884225122"/>
  <flow id="JF107676" begin="120" fromJunction="J7" toJunction="J0" end="180" vehsPerHour="63.205034345010596"/>
  <flow id="JF107677" begin="120" fromJunction="J7" toJunction="J3" end="180" vehsPerHour="55.35763899495888"/>
  <flow id="JF107678" begin="120" fromJunction="J7" toJunction="J4" end="180" vehsPerHour="62.0815033005992"/>
  <flow id="JF107679" begin="120" fromJunction="J7" toJunction="J5" end="180" vehsPerHour="60.493827270576396"/>
  <flow id="JF107680" begin="180" fromJunction="J0" toJunction="J4" end="240" vehsPerHour="58.780392095619774"/>
  <flow id="JF107681" begin="180" fromJunction="J0" toJunction="J5" end="240" vehsPerHour="134.08785597934013"/>
  <flow id="JF107682" begin="180" fromJunction="J0" toJunction="J6" end="240" vehsPerHour="52.09855925900082"/>
  <flow id="JF107683" begin="180" fromJunction="J0" toJunction="J7" end="240" vehsPerHour="13.803170974731179"/>
  <flow id="JF107684" begin="180" fromJunction="J3" toJunction="J0" end="240" vehsPerHour="137.0101584772729"/>
  <flow id="JF107685" begin="180" fromJunction="J3" toJunction="J5" end="240" vehsPerHour="42.865546508010304"/>
  <flow id="JF107686" begin="180" fromJunction="J3" toJunction="J7" end="240" vehsPerHour="59.02261001574181"/>
  <flow id="JF107687" begin="180" fromJunction="J4" toJunction="J0" end="240" vehsPerHour="38.14751014350394"/>
  <flow id="JF107688" begin="180" fromJunction="J4" toJunction="J3" end="240" vehsPerHour="46.990291716693605"/>
  <flow id="JF107689" begin="180" fromJunction="J4" toJunction="J5" end="240" vehsPerHour="39.61601229320507"/>
  <flow id="JF107690" begin="180" fromJunction="J4" toJunction="J6" end="240" vehsPerHour="57.31842363355417"/>
  <flow id="JF107691" begin="180" fromJunction="J5" toJunction="J0" end="240" vehsPerHour="50.85144496634147"/>
  <flow id="JF107692" begin="180" fromJunction="J5" toJunction="J3" end="240" vehsPerHour="62.87294606089542"/>
  <flow id="JF107693" begin="180" fromJunction="J5" toJunction="J4" end="240" vehsPerHour="3.2832116932905375"/>
  <flow id="JF107694" begin="180" fromJunction="J5" toJunction="J6" end="240" vehsPerHour="63.19049144975736"/>
  <flow id="JF107695" begin="180" fromJunction="J5" toJunction="J7" end="240" vehsPerHour="37.521251401300916"/>
  <flow id="JF107696" begin="180" fromJunction="J6" toJunction="J0" end="240" vehsPerHour="6.981696991154615"/>
  <flow id="JF107697" begin="180" fromJunction="J6" toJunction="J5" end="240" vehsPerHour="52.40578265454195"/>
  <flow id="JF107698" begin="180" fromJunction="J6" toJunction="J7" end="240" vehsPerHour="43.89166164194763"/>
  <flow id="JF107699" begin="180" fromJunction="J7" toJunction="J3" end="240" vehsPerHour="48.86409545589131"/>
  <flow id="JF107700" begin="180" fromJunction="J7" toJunction="J4" end="240" vehsPerHour="45.03648700705282"/>
  <flow id="JF107701" begin="180" fromJunction="J7" toJunction="J5" end="240" vehsPerHour="33.31670660221601"/>
  <flow id="JF107702" begin="180" fromJunction="J7" toJunction="J6" end="240" vehsPerHour="10.309154133944434"/>
  <flow id="JF107703" begin="240" fromJunction="J0" toJunction="J5" end="300" vehsPerHour="106.60838481915029"/>
  <flow id="JF107704" begin="240" fromJunction="J0" toJunction="J7" end="300" vehsPerHour="67.32044440659502"/>
  <flow id="JF107705" begin="240" fromJunction="J3" toJunction="J4" end="300" vehsPerHour="38.03435189965268"/>
  <flow id="JF107706" begin="240" fromJunction="J3" toJunction="J5" end="300" vehsPerHour="25.220838224755795"/>
  <flow id="JF107707" begin="240" fromJunction="J4" toJunction="J0" end="300" vehsPerHour="10.95425630353723"/>
  <flow id="JF107708" begin="240" fromJunction="J4" toJunction="J5" end="300" vehsPerHour="41.15317261533908"/>
  <flow id="JF107709" begin="240" fromJunction="J4" toJunction="J7" end="300" vehsPerHour="60.48144743892356"/>
  <flow id="JF107710" begin="240" fromJunction="J5" toJunction="J0" end="300" vehsPerHour="16.191716654343903"/>
  <flow id="JF107711" begin="240" fromJunction="J5" toJunction="J3" end="300" vehsPerHour="54.931507103479206"/>
  <flow id="JF107712" begin="240" fromJunction="J5" toJunction="J4" end="300" vehsPerHour="25.144528714094676"/>
  <flow id="JF107713" begin="240" fromJunction="J5" toJunction="J7" end="300" vehsPerHour="35.44349960851336"/>
  <flow id="JF107714" begin="240" fromJunction="J6" toJunction="J0" end="300" vehsPerHour="49.26969738198884"/>
  <flow id="JF107715" begin="240" fromJunction="J6" toJunction="J3" end="300" vehsPerHour="66.19618432044818"/>
  <flow id="JF107716" begin="240" fromJunction="J6" toJunction="J4" end="300" vehsPerHour="34.31043629651422"/>
  <flow id="JF107717" begin="240" fromJunction="J6" toJunction="J5" end="300" vehsPerHour="67.18584406166872"/>
  <flow id="JF107718" begin="240" fromJunction="J6" toJunction="J7" end="300" vehsPerHour="52.07260247278765"/>
  <flow id="JF107719" begin="240" fromJunction="J7" toJunction="J0" end="300" vehsPerHour="57.59465106581713"/>
  <flow id="JF107720" begin="240" fromJunction="J7" toJunction="J4" end="300" vehsPerHour="34.305764999260695"/>
  <flow id="JF107721" begin="240" fromJunction="J7" toJunction="J5" end="300" vehsPerHour="43.397935161776324"/>
  <flow id="JF107722" begin="240" fromJunction="J7" toJunction="J6" end="300" vehsPerHour="39.06963968248003"/>
  <flow id="JF107723" begin="300" fromJunction="J0" toJunction="J3" end="360" vehsPerHour="35.35590607013474"/>
  <flow id="JF107724" begin="300" fromJunction="J0" toJunction="J5" end="360" vehsPerHour="8.190414502198681"/>
  <flow id="JF107725" begin="300" fromJunction="J0" toJunction="J6" end="360" vehsPerHour="111.37057134387068"/>
  <flow id="JF107726" begin="300" fromJunction="J3" toJunction="J4" end="360" vehsPerHour="131.6951729621668"/>
  <flow id="JF107727" begin="300" fromJunction="J3" toJunction="J6" end="360" vehsPerHour="103.70899094567726"/>
  <flow id="JF107728" begin="300" fromJunction="J3" toJunction="J7" end="360" vehsPerHour="95.40442426717107"/>
  <flow id="JF107729" begin="300" fromJunction="J4" toJunction="J5" end="360" vehsPerHour="67.64055325994212"/>
  <flow id="JF107730" begin="300" fromJunction="J4" toJunction="J6" end="360" vehsPerHour="60.37667895451813"/>
  <flow id="JF107731" begin="300" fromJunction="J4" toJunction="J7" end="360" vehsPerHour="60.909410730429194"/>
  <flow id="JF107732" begin="300" fromJunction="J5" toJunction="J3" end="360" vehsPerHour="56.21936713268019"/>
  <flow id="JF107733" begin="300" fromJunction="J5" toJunction="J4" end="360" vehsPerHour="44.196949966616025"/>
  <flow id="JF107734" begin="300" fromJunction="J5" toJunction="J7" end="360" vehsPerHour="55.32534741837737"/>
  <flow id="JF107735" begin="300" fromJunction="J6" toJunction="J0" end="360" vehsPerHour="23.371562587164952"/>
  <flow id="JF107736" begin="300" fromJunction="J6" toJunction="J3" end="360" vehsPerHour="42.926832684129224"/>
  <flow id="JF107737" begin="300" fromJunction="J6" toJunction="J4" end="360" vehsPerHour="58.03296570270425"/>
  <flow id="JF107738" begin="300" fromJunction="J6" toJunction="J5" end="360" vehsPerHour="1.2065718839780653"/>
  <flow id="JF107739" begin="300" fromJunction="J6" toJunction="J7" end="360" vehsPerHour="43.600581195300975"/>
  <flow id="JF107740" begin="300" fromJunction="J7" toJunction="J0" end="360" vehsPerHour="49.28735681055091"/>
  <flow id="JF107741" begin="300" fromJunction="J7" toJunction="J4" end="360" vehsPerHour="53.71645586894863"/>
  <flow id="JF107742" begin="300" fromJunction="J7" toJunction="J6" end="360" vehsPerHour="10.342868619434944"/>
  <flow id="JF107743" begin="360" fromJunction="J0" toJunction="J7" end="420" vehsPerHour="93.6700519918542"/>
  <flow id="JF107744" begin="360" fromJunction="J3" toJunction="J4" end="420" vehsPerHour="2.674404268087143"/>
  <flow id="JF107745" begin="360" fromJunction="J3" toJunction="J6" end="420" vehsPerHour="53.993760413434046"/>
  <flow id="JF107746" begin="360" fromJunction="J4" toJunction="J0" end="420" vehsPerHour="48.09645759064563"/>
  <flow id="JF107747" begin="360" fromJunction="J4" toJunction="J3" end="420" vehsPerHour="27.446428798999406"/>
  <flow id="JF107748" begin="360" fromJunction="J4" toJunction="J6" end="420" vehsPerHour="62.94576266856612"/>
  <flow id="JF107749" begin="360" fromJunction="J5" toJunction="J0" end="420" vehsPerHour="47.14610416250687"/>
  <flow id="JF107750" begin="360" fromJunction="J5" toJunction="J3" end="420" vehsPerHour="51.194885425987"/>
  <flow id="JF107751" begin="360" fromJunction="J5" toJunction="J4" end="420" vehsPerHour="41.449865062381285"/>
  <flow id="JF107752" begin="360" fromJunction="J6" toJunction="J0" end="420" vehsPerHour="66.65813837305012"/>
  <flow id="JF107753" begin="360" fromJunction="J6" toJunction="J3" end="420" vehsPerHour="45.83306690017638"/>
  <flow id="JF107754" begin="360" fromJunction="J6" toJunction="J7" end="420" vehsPerHour="19.17376402081654"/>
  <flow id="JF107755" begin="360" fromJunction="J7" toJunction="J0" end="420" vehsPerHour="62.91912245197714"/>
  <flow id="JF107756" begin="360" fromJunction="J7" toJunction="J3" end="420" vehsPerHour="31.2249702549653"/>
  <flow id="JF107757" begin="360" fromJunction="J7" toJunction="J4" end="420" vehsPerHour="61.82302634792448"/>
  <flow id="JF107758" begin="360" fromJunction="J7" toJunction="J5" end="420" vehsPerHour="64.17350017916456"/>
  <flow id="JF107759" begin="360" fromJunction="J7" toJunction="J6" end="420" vehsPerHour="32.577218810161064"/>
  <flow id="JF107760" begin="420" fromJunction="J0" toJunction="J6" end="480" vehsPerHour="37.248785488706375"/>
  <flow id="JF107761" begin="420" fromJunction="J0" toJunction="J7" end="480" vehsPerHour="105.56964550505893"/>
  <flow id="JF107762" begin="420" fromJunction="J3" toJunction="J0" end="480" vehsPerHour="111.73235148953638"/>
  <flow id="JF107763" begin="420" fromJunction="J3" toJunction="J4" end="480" vehsPerHour="106.1527955079667"/>
  <flow id="JF107764" begin="420" fromJunction="J3" toJunction="J6" end="480" vehsPerHour="44.243885959588106"/>
  <flow id="JF107765" begin="420" fromJunction="J4" toJunction="J0" end="480" vehsPerHour="46.14873597761905"/>
  <flow id="JF107766" begin="420" fromJunction="J4" toJunction="J3" end="480" vehsPerHour="35.19126800957075"/>
  <flow id="JF107767" begin="420" fromJunction="J4" toJunction="J5" end="480" vehsPerHour="25.3142012133582"/>
  <flow id="JF107768" begin="420" fromJunction="J4" toJunction="J7" end="480" vehsPerHour="21.52873708008561"/>
  <flow id="JF107769" begin="420" fromJunction="J5" toJunction="J3" end="480" vehsPerHour="31.390731747492957"/>
  <flow id="JF107770" begin="420" fromJunction="J5" toJunction="J4" end="480" vehsPerHour="22.312448863028486"/>
  <flow id="JF107771" begin="420" fromJunction="J5" toJunction="J7" end="480" vehsPerHour="9.55993887960331"/>
  <flow id="JF107772" begin="420" fromJunction="J6" toJunction="J0" end="480" vehsPerHour="38.310101320767906"/>
  <flow id="JF107773" begin="420" fromJunction="J6" toJunction="J5" end="480" vehsPerHour="49.22683976664812"/>
  <flow id="JF107774" begin="420" fromJunction="J6" toJunction="J7" end="480" vehsPerHour="20.997825265048185"/>
  <flow id="JF107775" begin="420" fromJunction="J7" toJunction="J0" end="480" vehsPerHour="46.82446377482619"/>
  <flow id="JF107776" begin="420" fromJunction="J7" toJunction="J3" end="480" vehsPerHour="22.231904656955518"/>
  <flow id="JF107777" begin="420" fromJunction="J7" toJunction="J4" end="480" vehsPerHour="50.90954983822135"/>
  <flow id="JF107778" begin="420" fromJunction="J7" toJunction="J5" end="480" vehsPerHour="11.5648609253092"/>
  <flow id="JF107779" begin="480" fromJunction="J0" toJunction="J3" end="540" vehsPerHour="71.37055108924241"/>
  <flow id="JF107780" begin="480" fromJunction="J0" toJunction="J4" end="540" vehsPerHour="91.72685459527054"/>
  <flow id="JF107781" begin="480" fromJunction="J0" toJunction="J5" end="540" vehsPerHour="31.828393395934754"/>
  <flow id="JF107782" begin="480" fromJunction="J0" toJunction="J6" end="540" vehsPerHour="111.28641349246962"/>
  <flow id="JF107783" begin="480" fromJunction="J3" toJunction="J0" end="540" vehsPerHour="81.27109780678876"/>
  <flow id="JF107784" begin="480" fromJunction="J3" toJunction="J4" end="540" vehsPerHour="13.44390931732534"/>
  <flow id="JF107785" begin="480" fromJunction="J3" toJunction="J5" end="540" vehsPerHour="123.9796205744304"/>
  <flow id="JF107786" begin="480" fromJunction="J3" toJunction="J6" end="540" vehsPerHour="51.68483386843361"/>
  <flow id="JF107787" begin="480" fromJunction="J3" toJunction="J7" end="540" vehsPerHour="60.63748316377121"/>
  <flow id="JF107788" begin="480" fromJunction="J4" toJunction="J0" end="540" vehsPerHour="41.2046682671587"/>
  <flow id="JF107789" begin="480" fromJunction="J4" toJunction="J5" end="540" vehsPerHour="38.23487524816156"/>
  <flow id="JF107790" begin="480" fromJunction="J4" toJunction="J6" end="540" vehsPerHour="2.198639338431694"/>
  <flow id="JF107791" begin="480" fromJunction="J5" toJunction="J3" end="540" vehsPerHour="5.2141780553264345"/>
  <flow id="JF107792" begin="480" fromJunction="J5" toJunction="J4" end="540" vehsPerHour="35.86956944953318"/>
  <flow id="JF107793" begin="480" fromJunction="J5" toJunction="J7" end="540" vehsPerHour="0.9132049326711718"/>
  <flow id="JF107794" begin="480" fromJunction="J6" toJunction="J3" end="540" vehsPerHour="7.8661713961041855"/>
  <flow id="JF107795" begin="480" fromJunction="J6" toJunction="J4" end="540" vehsPerHour="53.22792080626872"/>
  <flow id="JF107796" begin="480" fromJunction="J6" toJunction="J5" end="540" vehsPerHour="8.217537625387045"/>
  <flow id="JF107797" begin="480" fromJunction="J7" toJunction="J4" end="540" vehsPerHour="49.481843866208386"/>
  <flow id="JF107798" begin="480" fromJunction="J7" toJunction="J5" end="540" vehsPerHour="29.106859511351992"/>
  <flow id="JF107799" begin="480" fromJunction="J7" toJunction="J6" end="540" vehsPerHour="20.971450730613405"/>
  <flow id="JF107800" begin="540" fromJunction="J0" toJunction="J3" end="600" vehsPerHour="63.970062441928974"/>
  <flow id="JF107801" begin="540" fromJunction="J0" toJunction="J4" end="600" vehsPerHour="131.6424130866907"/>
  <flow id="JF107802" begin="540" fromJunction="J0" toJunction="J5" end="600" vehsPerHour="64.94496208835199"/>
  <flow id="JF107803" begin="540" fromJunction="J3" toJunction="J4" end="600" vehsPerHour="23.775161226627596"/>
  <flow id="JF107804" begin="540" fromJunction="J3" toJunction="J5" end="600" vehsPerHour="1.480902908083587"/>
  <flow id="JF107805" begin="540" fromJunction="J3" toJunction="J6" end="600" vehsPerHour="102.28382556131726"/>
  <flow id="JF107806" begin="540" fromJunction="J3" toJunction="J7" end="600" vehsPerHour="34.18072614248841"/>
  <flow id="JF107807" begin="540" fromJunction="J4" toJunction="J0" end="600" vehsPerHour="12.830395098020606"/>
  <flow id="JF107808" begin="540" fromJunction="J4" toJunction="J3" end="600" vehsPerHour="7.216417902958995"/>
  <flow id="JF107809" begin="540" fromJunction="J4" toJunction="J6" end="600" vehsPerHour="17.47528582971154"/>
  <flow id="JF107810" begin="540" fromJunction="J4" toJunction="J7" end="600" vehsPerHour="34.816167360127686"/>
  <flow id="JF107811" begin="540" fromJunction="J5" toJunction="J3" end="600" vehsPerHour="12.409867768044567"/>
  <flow id="JF107812" begin="540" fromJunction="J5" toJunction="J6" end="600" vehsPerHour="16.523357849650704"/>
  <flow id="JF107813" begin="540" fromJunction="J6" toJunction="J3" end="600" vehsPerHour="46.67639878326626"/>
  <flow id="JF107814" begin="540" fromJunction="J6" toJunction="J5" end="600" vehsPerHour="59.74203633987004"/>
  <flow id="JF107815" begin="540" fromJunction="J6" toJunction="J7" end="600" vehsPerHour="64.95375709275407"/>
  <flow id="JF107816" begin="540" fromJunction="J7" toJunction="J0" end="600" vehsPerHour="29.65747507353657"/>
  <flow id="JF107817" begin="540" fromJunction="J7" toJunction="J3" end="600" vehsPerHour="3.223465466620456"/>
  <flow id="JF107818" begin="540" fromJunction="J7" toJunction="J5" end="600" vehsPerHour="58.17846855059399"/>
  <flow id="JF107819" begin="540" fromJunction="J7" toJunction="J6" end="600" vehsPerHour="20.229783737270704"/>
  <flow id="JF107820" begin="600" fromJunction="J0" toJunction="J4" end="660" vehsPerHour="7.558644448900129"/>
  <flow id="JF107821" begin="600" fromJunction="J0" toJunction="J5" end="660" vehsPerHour="30.652724912572307"/>
  <flow id="JF107822" begin="600" fromJunction="J0" toJunction="J6" end="660" vehsPerHour="11.466024603588549"/>
  <flow id="JF107823" begin="600" fromJunction="J0" toJunction="J7" end="660" vehsPerHour="72.94888304760218"/>
  <flow id="JF107824" begin="600" fromJunction="J3" toJunction="J0" end="660" vehsPerHour="60.76856914199865"/>
  <flow id="JF107825" begin="600" fromJunction="J3" toJunction="J4" end="660" vehsPerHour="109.57667816029723"/>
  <flow id="JF107826" begin="600" fromJunction="J3" toJunction="J7" end="660" vehsPerHour="131.96469992094652"/>
  <flow id="JF107827" begin="600" fromJunction="J4" toJunction="J5" end="660" vehsPerHour="9.553207726349948"/>
  <flow id="JF107828" begin="600" fromJunction="J4" toJunction="J6" end="660" vehsPerHour="50.75763897018941"/>
  <flow id="JF107829" begin="600" fromJunction="J4" toJunction="J7" end="660" vehsPerHour="2.1926380551583224"/>
  <flow id="JF107830" begin="600" fromJunction="J5" toJunction="J3" end="660" vehsPerHour="17.647128348094093"/>
  <flow id="JF107831" begin="600" fromJunction="J5" toJunction="J4" end="660" vehsPerHour="63.001400672972885"/>
  <flow id="JF107832" begin="600" fromJunction="J5" toJunction="J7" end="660" vehsPerHour="68.35041110387353"/>
  <flow id="JF107833" begin="600" fromJunction="J6" toJunction="J0" end="660" vehsPerHour="33.83912352869154"/>
  <flow id="JF107834" begin="600" fromJunction="J6" toJunction="J4" end="660" vehsPerHour="59.35777417585186"/>
  <flow id="JF107835" begin="600" fromJunction="J6" toJunction="J5" end="660" vehsPerHour="3.571142619934233"/>
  <flow id="JF107836" begin="600" fromJunction="J6" toJunction="J7" end="660" vehsPerHour="36.81811198544469"/>
  <flow id="JF107837" begin="600" fromJunction="J7" toJunction="J0" end="660" vehsPerHour="55.17163643358647"/>
  <flow id="JF107838" begin="600" fromJunction="J7" toJunction="J3" end="660" vehsPerHour="65.63442649821201"/>
  <flow id="JF107839" begin="600" fromJunction="J7" toJunction="J4" end="660" vehsPerHour="11.476628513503446"/>
  <flow id="JF107840" begin="600" fromJunction="J7" toJunction="J5" end="660" vehsPerHour="35.932751844794176"/>
  <flow id="JF107841" begin="600" fromJunction="J7" toJunction="J6" end="660" vehsPerHour="28.482507950036315"/>
  <flow id="JF107842" begin="660" fromJunction="J0" toJunction="J4" end="720" vehsPerHour="39.96028380500482"/>
  <flow id="JF107843" begin="660" fromJunction="J0" toJunction="J5" end="720" vehsPerHour="59.9901068464906"/>
  <flow id="JF107844" begin="660" fromJunction="J0" toJunction="J7" end="720" vehsPerHour="95.23475405401209"/>
  <flow id="JF107845" begin="660" fromJunction="J3" toJunction="J0" end="720" vehsPerHour="78.02665001362641"/>
  <flow id="JF107846" begin="660" fromJunction="J3" toJunction="J4" end="720" vehsPerHour="119.42594599344243"/>
  <flow id="JF107847" begin="660" fromJunction="J3" toJunction="J6" end="720" vehsPerHour="32.19687126799736"/>
  <flow id="JF107848" begin="660" fromJunction="J3" toJunction="J7" end="720" vehsPerHour="26.824728212025114"/>
  <flow id="JF107849" begin="660" fromJunction="J4" toJunction="J0" end="720" vehsPerHour="13.423931954584425"/>
  <flow id="JF107850" begin="660" fromJunction="J4" toJunction="J3" end="720" vehsPerHour="0.770108739431353"/>
  <flow id="JF107851" begin="660" fromJunction="J4" toJunction="J6" end="720" vehsPerHour="33.168095284163826"/>
  <flow id="JF107852" begin="660" fromJunction="J5" toJunction="J0" end="720" vehsPerHour="39.99682920973226"/>
  <flow id="JF107853" begin="660" fromJunction="J5" toJunction="J3" end="720" vehsPerHour="4.234843310432668"/>
  <flow id="JF107854" begin="660" fromJunction="J5" toJunction="J7" end="720" vehsPerHour="23.496821119168338"/>
  <flow id="JF107855" begin="660" fromJunction="J6" toJunction="J0" end="720" vehsPerHour="51.52709759134622"/>
  <flow id="JF107856" begin="660" fromJunction="J6" toJunction="J3" end="720" vehsPerHour="23.672543637495934"/>
  <flow id="JF107857" begin="660" fromJunction="J6" toJunction="J4" end="720" vehsPerHour="49.184255965421805"/>
  <flow id="JF107858" begin="660" fromJunction="J7" toJunction="J3" end="720" vehsPerHour="30.44357300829471"/>
  <flow id="JF107859" begin="660" fromJunction="J7" toJunction="J4" end="720" vehsPerHour="16.934248609673084"/>
  <flow id="JF107860" begin="660" fromJunction="J7" toJunction="J5" end="720" vehsPerHour="8.808848649825954"/>
  <flow id="JF107861" begin="660" fromJunction="J7" toJunction="J6" end="720" vehsPerHour="25.784409967885903"/>
  <flow id="JF107862" begin="720" fromJunction="J0" toJunction="J3" end="780" vehsPerHour="18.029140352690444"/>
  <flow id="JF107863" begin="720" fromJunction="J0" toJunction="J4" end="780" vehsPerHour="53.555746211012995"/>
  <flow id="JF107864" begin="720" fromJunction="J0" toJunction="J5" end="780" vehsPerHour="12.194127357357864"/>
  <flow id="JF107865" begin="720" fromJunction="J0" toJunction="J6" end="780" vehsPerHour="60.97617461141876"/>
  <flow id="JF107866" begin="720" fromJunction="J3" toJunction="J0" end="780" vehsPerHour="22.83538813078253"/>
  <flow id="JF107867" begin="720" fromJunction="J3" toJunction="J4" end="780" vehsPerHour="43.003174241844796"/>
  <flow id="JF107868" begin="720" fromJunction="J3" toJunction="J5" end="780" vehsPerHour="78.10343636943188"/>
  <flow id="JF107869" begin="720" fromJunction="J3" toJunction="J6" end="780" vehsPerHour="65.10470684034271"/>
  <flow id="JF107870" begin="720" fromJunction="J4" toJunction="J0" end="780" vehsPerHour="65.40660284259125"/>
  <flow id="JF107871" begin="720" fromJunction="J5" toJunction="J0" end="780" vehsPerHour="27.93912490101712"/>
  <flow id="JF107872" begin="720" fromJunction="J5" toJunction="J3" end="780" vehsPerHour="8.080207752398179"/>
  <flow id="JF107873" begin="720" fromJunction="J5" toJunction="J4" end="780" vehsPerHour="35.92884472328975"/>
  <flow id="JF107874" begin="720" fromJunction="J5" toJunction="J6" end="780" vehsPerHour="38.64216629644497"/>
  <flow id="JF107875" begin="720" fromJunction="J6" toJunction="J4" end="780" vehsPerHour="27.571192624159153"/>
  <flow id="JF107876" begin="720" fromJunction="J6" toJunction="J5" end="780" vehsPerHour="32.86279065275973"/>
  <flow id="JF107877" begin="720" fromJunction="J6" toJunction="J7" end="780" vehsPerHour="47.71366524156546"/>
  <flow id="JF107878" begin="720" fromJunction="J7" toJunction="J3" end="780" vehsPerHour="14.738161300688443"/>
  <flow id="JF107879" begin="720" fromJunction="J7" toJunction="J4" end="780" vehsPerHour="20.936721005840152"/>
  <flow id="JF107880" begin="720" fromJunction="J7" toJunction="J5" end="780" vehsPerHour="31.42003397980745"/>