<?xml version="1.0" encoding="UTF-8"?>
<routes xmlns:xsi="http://www.w3.org/2001/XMLSchema-instance" xsi:noNamespaceSchemaLocation="http://sumo.dlr.de/xsd/routes_file.xsd">
  <flow id="JF115131" begin="0" fromJunction="J0" toJunction="J3" end="60" vehsPerHour="21.81032147724131"/>
  <flow id="JF115132" begin="0" fromJunction="J0" toJunction="J4" end="60" vehsPerHour="121.05832947209842"/>
  <flow id="JF115133" begin="0" fromJunction="J0" toJunction="J6" end="60" vehsPerHour="109.86527483693293"/>
  <flow id="JF115134" begin="0" fromJunction="J0" toJunction="J7" end="60" vehsPerHour="93.96034087165543"/>
  <flow id="JF115135" begin="0" fromJunction="J3" toJunction="J0" end="60" vehsPerHour="29.32347995353636"/>
  <flow id="JF115136" begin="0" fromJunction="J3" toJunction="J4" end="60" vehsPerHour="95.98771711895034"/>
  <flow id="JF115137" begin="0" fromJunction="J3" toJunction="J6" end="60" vehsPerHour="72.46898721711041"/>
  <flow id="JF115138" begin="0" fromJunction="J3" toJunction="J7" end="60" vehsPerHour="44.27720564593932"/>
  <flow id="JF115139" begin="0" fromJunction="J4" toJunction="J5" end="60" vehsPerHour="32.80730782478741"/>
  <flow id="JF115140" begin="0" fromJunction="J4" toJunction="J6" end="60" vehsPerHour="32.116811700239154"/>
  <flow id="JF115141" begin="0" fromJunction="J4" toJunction="J7" end="60" vehsPerHour="53.03080460395902"/>
  <flow id="JF115142" begin="0" fromJunction="J5" toJunction="J0" end="60" vehsPerHour="24.966826817669297"/>
  <flow id="JF115143" begin="0" fromJunction="J5" toJunction="J4" end="60" vehsPerHour="49.76478413551294"/>
  <flow id="JF115144" begin="0" fromJunction="J5" toJunction="J6" end="60" vehsPerHour="10.239627763746835"/>
  <flow id="JF115145" begin="0" fromJunction="J6" toJunction="J5" end="60" vehsPerHour="50.9435008659127"/>
  <flow id="JF115146" begin="0" fromJunction="J6" toJunction="J7" end="60" vehsPerHour="43.37787865983745"/>
  <flow id="JF115147" begin="0" fromJunction="J7" toJunction="J0" end="60" vehsPerHour="40.08040661198904"/>
  <flow id="JF115148" begin="0" fromJunction="J7" toJunction="J3" end="60" vehsPerHour="25.510046206179258"/>
  <flow id="JF115149" begin="0" fromJunction="J7" toJunction="J4" end="60" vehsPerHour="13.729285056430882"/>
  <flow id="JF115150" begin="60" fromJunction="J0" toJunction="J3" end="120" vehsPerHour="53.982991006883154"/>
  <flow id="JF115151" begin="60" fromJunction="J0" toJunction="J5" end="120" vehsPerHour="9.501569477761187"/>
  <flow id="JF115152" begin="60" fromJunction="J0" toJunction="J7" end="120" vehsPerHour="123.68994188340413"/>
  <flow id="JF115153" begin="60" fromJunction="J3" toJunction="J0" end="120" vehsPerHour="113.3112137881613"/>
  <flow id="JF115154" begin="60" fromJunction="J3" toJunction="J4" end="120" vehsPerHour="32.45522536842539"/>
  <flow id="JF115155" begin="60" fromJunction="J3" toJunction="J6" end="120" vehsPerHour="134.34702614431598"/>
  <flow id="JF115156" begin="60" fromJunction="J3" toJunction="J7" end="120" vehsPerHour="58.960918759855495"/>
  <flow id="JF115157" begin="60" fromJunction="J4" toJunction="J0" end="120" vehsPerHour="4.381419572114802"/>
  <flow id="JF115158" begin="60" fromJunction="J4" toJunction="J3" end="120" vehsPerHour="19.391746860511308"/>
  <flow id="JF115159" begin="60" fromJunction="J4" toJunction="J6" end="120" vehsPerHour="39.999272615818455"/>
  <flow id="JF115160" begin="60" fromJunction="J5" toJunction="J0" end="120" vehsPerHour="25.390651264189966"/>
  <flow id="JF115161" begin="60" fromJunction="J5" toJunction="J3" end="120" vehsPerHour="64.10128556363199"/>
  <flow id="JF115162" begin="60" fromJunction="J5" toJunction="J4" end="120" vehsPerHour="27.97393232782577"/>
  <flow id="JF115163" begin="60" fromJunction="J5" toJunction="J6" end="120" vehsPerHour="53.75052203721773"/>
  <flow id="JF115164" begin="60" fromJunction="J6" toJunction="J5" end="120" vehsPerHour="21.380265000334308"/>
  <flow id="JF115165" begin="60" fromJunction="J6" toJunction="J7" end="120" vehsPerHour="49.95714367175817"/>
  <flow id="JF115166" begin="60" fromJunction="J7" toJunction="J0" end="120" vehsPerHour="66.9359859300237"/>
  <flow id="JF115167" begin="60" fromJunction="J7" toJunction="J5" end="120" vehsPerHour="66.42525891118376"/>
  <flow id="JF115168" begin="60" fromJunction="J7" toJunction="J6" end="120" vehsPerHour="54.12401470311123"/>
  <flow id="JF115169" begin="120" fromJunction="J0" toJunction="J3" end="180" vehsPerHour="125.76534841177222"/>
  <flow id="JF115170" begin="120" fromJunction="J0" toJunction="J4" end="180" vehsPerHour="120.04345543271683"/>
  <flow id="JF115171" begin="120" fromJunction="J0" toJunction="J6" end="180" vehsPerHour="130.2125377793448"/>
  <flow id="JF115172" begin="120" fromJunction="J0" toJunction="J7" end="180" vehsPerHour="129.8081541255596"/>
  <flow id="JF115173" begin="120" fromJunction="J3" toJunction="J0" end="180" vehsPerHour="58.606976529477556"/>
  <flow id="JF115174" begin="120" fromJunction="J3" toJunction="J4" end="180" vehsPerHour="110.77194727767015"/>
  <flow id="JF115175" begin="120" fromJunction="J3" toJunction="J5" end="180" vehsPerHour="59.52516727373255"/>
  <flow id="JF115176" begin="120" fromJunction="J3" toJunction="J7" end="180" vehsPerHour="75.76898199174572"/>
  <flow id="JF115177" begin="120" fromJunction="J4" toJunction="J0" end="180" vehsPerHour="61.50372683370539"/>
  <flow id="JF115178" begin="120" fromJunction="J4" toJunction="J3" end="180" vehsPerHour="8.113843319784516"/>
  <flow id="JF115179" begin="120" fromJunction="J4" toJunction="J5" end="180" vehsPerHour="11.33840770255508"/>
  <flow id="JF115180" begin="120" fromJunction="J4" toJunction="J6" end="180" vehsPerHour="7.396409177068052"/>
  <flow id="JF115181" begin="120" fromJunction="J6" toJunction="J0" end="180" vehsPerHour="38.172278462396584"/>
  <flow id="JF115182" begin="120" fromJunction="J6" toJunction="J5" end="180" vehsPerHour="42.309681406286536"/>
  <flow id="JF115183" begin="120" fromJunction="J6" toJunction="J7" end="180" vehsPerHour="6.48000517211267"/>
  <flow id="JF115184" begin="120" fromJunction="J7" toJunction="J3" end="180" vehsPerHour="53.88025030460808"/>
  <flow id="JF115185" begin="120" fromJunction="J7" toJunction="J4" end="180" vehsPerHour="60.000518124560514"/>
  <flow id="JF115186" begin="120" fromJunction="J7" toJunction="J5" end="180" vehsPerHour="59.342246506558034"/>
  <flow id="JF115187" begin="120" fromJunction="J7" toJunction="J6" end="180" vehsPerHour="55.355775310082834"/>
  <flow id="JF115188" begin="180" fromJunction="J0" toJunction="J3" end="240" vehsPerHour="26.856748032772924"/>
  <flow id="JF115189" begin="180" fromJunction="J0" toJunction="J5" end="240" vehsPerHour="135.76741200085743"/>
  <flow id="JF115190" begin="180" fromJunction="J3" toJunction="J4" end="240" vehsPerHour="30.095164483876758"/>
  <flow id="JF115191" begin="180" fromJunction="J3" toJunction="J5" end="240" vehsPerHour="92.81000502137398"/>
  <flow id="JF115192" begin="180" fromJunction="J3" toJunction="J6" end="240" vehsPerHour="41.449453894182085"/>
  <flow id="JF115193" begin="180" fromJunction="J3" toJunction="J7" end="240" vehsPerHour="94.69487125671132"/>
  <flow id="JF115194" begin="180" fromJunction="J4" toJunction="J0" end="240" vehsPerHour="28.593405549543434"/>
  <flow id="JF115195" begin="180" fromJunction="J4" toJunction="J5" end="240" vehsPerHour="27.708174899974438"/>
  <flow id="JF115196" begin="180" fromJunction="J4" toJunction="J6" end="240" vehsPerHour="61.022066581675126"/>
  <flow id="JF115197" begin="180" fromJunction="J4" toJunction="J7" end="240" vehsPerHour="24.105823206843663"/>
  <flow id="JF115198" begin="180" fromJunction="J5" toJunction="J3" end="240" vehsPerHour="48.38374405586489"/>
  <flow id="JF115199" begin="180" fromJunction="J5" toJunction="J4" end="240" vehsPerHour="0.7597505626706775"/>
  <flow id="JF115200" begin="180" fromJunction="J5" toJunction="J6" end="240" vehsPerHour="64.88583006753139"/>
  <flow id="JF115201" begin="180" fromJunction="J5" toJunction="J7" end="240" vehsPerHour="43.2603274772393"/>
  <flow id="JF115202" begin="180" fromJunction="J6" toJunction="J0" end="240" vehsPerHour="62.411678747579586"/>
  <flow id="JF115203" begin="180" fromJunction="J6" toJunction="J3" end="240" vehsPerHour="1.1384954984801963"/>
  <flow id="JF115204" begin="180" fromJunction="J6" toJunction="J4" end="240" vehsPerHour="56.4517213024157"/>
  <flow id="JF115205" begin="180" fromJunction="J6" toJunction="J5" end="240" vehsPerHour="36.339579094461314"/>
  <flow id="JF115206" begin="180" fromJunction="J7" toJunction="J0" end="240" vehsPerHour="33.025731146260426"/>
  <flow id="JF115207" begin="180" fromJunction="J7" toJunction="J5" end="240" vehsPerHour="17.854810159316127"/>
  <flow id="JF115208" begin="180" fromJunction="J7" toJunction="J6" end="240" vehsPerHour="54.12029237033507"/>
  <flow id="JF115209" begin="240" fromJunction="J0" toJunction="J3" end="300" vehsPerHour="63.00292973215988"/>
  <flow id="JF115210" begin="240" fromJunction="J0" toJunction="J4" end="300" vehsPerHour="129.7319879627119"/>
  <flow id="JF115211" begin="240" fromJunction="J0" toJunction="J5" end="300" vehsPerHour="25.725055599302202"/>
  <flow id="JF115212" begin="240" fromJunction="J0" toJunction="J6" end="300" vehsPerHour="113.86818113199132"/>
  <flow id="JF115213" begin="240" fromJunction="J0" toJunction="J7" end="300" vehsPerHour="69.65146605333894"/>
  <flow id="JF115214" begin="240" fromJunction="J3" toJunction="J0" end="300" vehsPerHour="5.212340603005219"/>
  <flow id="JF115215" begin="240" fromJunction="J3" toJunction="J4" end="300" vehsPerHour="0.8394168259664724"/>
  <flow id="JF115216" begin="240" fromJunction="J3" toJunction="J5" end="300" vehsPerHour="118.0328675555004"/>
  <flow id="JF115217" begin="240" fromJunction="J3" toJunction="J6" end="300" vehsPerHour="7.399120786856923"/>
  <flow id="JF115218" begin="240" fromJunction="J3" toJunction="J7" end="300" vehsPerHour="25.996338878637825"/>
  <flow id="JF115219" begin="240" fromJunction="J4" toJunction="J3" end="300" vehsPerHour="26.39775332044684"/>
  <flow id="JF115220" begin="240" fromJunction="J4" toJunction="J5" end="300" vehsPerHour="12.558437015499111"/>
  <flow id="JF115221" begin="240" fromJunction="J4" toJunction="J6" end="300" vehsPerHour="0.05891843900016628"/>
  <flow id="JF115222" begin="240" fromJunction="J4" toJunction="J7" end="300" vehsPerHour="60.00030369058319"/>
  <flow id="JF115223" begin="240" fromJunction="J5" toJunction="J0" end="300" vehsPerHour="20.5086039462118"/>
  <flow id="JF115224" begin="240" fromJunction="J5" toJunction="J3" end="300" vehsPerHour="15.66292205345127"/>
  <flow id="JF115225" begin="240" fromJunction="J5" toJunction="J4" end="300" vehsPerHour="29.392957857751043"/>
  <flow id="JF115226" begin="240" fromJunction="J5" toJunction="J6" end="300" vehsPerHour="9.086636681956994"/>
  <flow id="JF115227" begin="240" fromJunction="J5" toJunction="J7" end="300" vehsPerHour="2.3367212176338854"/>
  <flow id="JF115228" begin="240" fromJunction="J6" toJunction="J0" end="300" vehsPerHour="7.552647556391227"/>
  <flow id="JF115229" begin="240" fromJunction="J6" toJunction="J4" end="300" vehsPerHour="11.474570552730789"/>
  <flow id="JF115230" begin="240" fromJunction="J6" toJunction="J5" end="300" vehsPerHour="31.420303009862312"/>
  <flow id="JF115231" begin="240" fromJunction="J7" toJunction="J0" end="300" vehsPerHour="6.754017236868655"/>
  <flow id="JF115232" begin="240" fromJunction="J7" toJunction="J3" end="300" vehsPerHour="47.38056619352154"/>
  <flow id="JF115233" begin="240" fromJunction="J7" toJunction="J5" end="300" vehsPerHour="51.0490918362538"/>
  <flow id="JF115234" begin="240" fromJunction="J7" toJunction="J6" end="300" vehsPerHour="7.6472894247669565"/>
  <flow id="JF115235" begin="300" fromJunction="J0" toJunction="J3" end="360" vehsPerHour="18.276804553234914"/>
  <flow id="JF115236" begin="300" fromJunction="J0" toJunction="J4" end="360" vehsPerHour="12.896875268779164"/>
  <flow id="JF115237" begin="300" fromJunction="J0" toJunction="J5" end="360" vehsPerHour="74.43457062148254"/>
  <flow id="JF115238" begin="300" fromJunction="J0" toJunction="J6" end="360" vehsPerHour="94.42076697778566"/>
  <flow id="JF115239" begin="300" fromJunction="J3" toJunction="J0" end="360" vehsPerHour="1.9007249303485132"/>
  <flow id="JF115240" begin="300" fromJunction="J3" toJunction="J4" end="360" vehsPerHour="72.32335428116227"/>
  <flow id="JF115241" begin="300" fromJunction="J3" toJunction="J5" end="360" vehsPerHour="30.639353270543037"/>
  <flow id="JF115242" begin="300" fromJunction="J3" toJunction="J7" end="360" vehsPerHour="87.58984118880753"/>
  <flow id="JF115243" begin="300" fromJunction="J4" toJunction="J0" end="360" vehsPerHour="50.84629165970728"/>
  <flow id="JF115244" begin="300" fromJunction="J4" toJunction="J3" end="360" vehsPerHour="35.68540195065117"/>
  <flow id="JF115245" begin="300" fromJunction="J4" toJunction="J5" end="360" vehsPerHour="48.29216554410539"/>
  <flow id="JF115246" begin="300" fromJunction="J4" toJunction="J6" end="360" vehsPerHour="26.76456519629225"/>
  <flow id="JF115247" begin="300" fromJunction="J4" toJunction="J7" end="360" vehsPerHour="63.92467466824837"/>
  <flow id="JF115248" begin="300" fromJunction="J5" toJunction="J3" end="360" vehsPerHour="30.93266736204891"/>
  <flow id="JF115249" begin="300" fromJunction="J5" toJunction="J4" end="360" vehsPerHour="60.561905798887864"/>
  <flow id="JF115250" begin="300" fromJunction="J5" toJunction="J7" end="360" vehsPerHour="37.581072956893124"/>
  <flow id="JF115251" begin="300" fromJunction="J6" toJunction="J0" end="360" vehsPerHour="13.087081328033712"/>
  <flow id="JF115252" begin="300" fromJunction="J6" toJunction="J5" end="360" vehsPerHour="33.82045547447181"/>
  <flow id="JF115253" begin="300" fromJunction="J6" toJunction="J7" end="360" vehsPerHour="26.711123988073194"/>
  <flow id="JF115254" begin="300" fromJunction="J7" toJunction="J0" end="360" vehsPerHour="22.744167304440428"/>
  <flow id="JF115255" begin="300" fromJunction="J7" toJunction="J4" end="360" vehsPerHour="38.50853841993741"/>
  <flow id="JF115256" begin="300" fromJunction="J7" toJunction="J6" end="360" vehsPerHour="8.455848378201406"/>
  <flow id="JF115257" begin="360" fromJunction="J0" toJunction="J3" end="420" vehsPerHour="128.54322376855518"/>
  <flow id="JF115258" begin="360" fromJunction="J0" toJunction="J5" end="420" vehsPerHour="125.64056738317473"/>
  <flow id="JF115259" begin="360" fromJunction="J0" toJunction="J6" end="420" vehsPerHour="81.46769580070863"/>
  <flow id="JF115260" begin="360" fromJunction="J0" toJunction="J7" end="420" vehsPerHour="46.63166694948533"/>
  <flow id="JF115261" begin="360" fromJunction="J3" toJunction="J0" end="420" vehsPerHour="127.8693149764202"/>
  <flow id="JF115262" begin="360" fromJunction="J3" toJunction="J4" end="420" vehsPerHour="112.47287875739569"/>
  <flow id="JF115263" begin="360" fromJunction="J3" toJunction="J5" end="420" vehsPerHour="90.46135144667605"/>
  <flow id="JF115264" begin="360" fromJunction="J3" toJunction="J7" end="420" vehsPerHour="52.99584721967433"/>
  <flow id="JF115265" begin="360" fromJunction="J4" toJunction="J0" end="420" vehsPerHour="38.24687901478941"/>
  <flow id="JF115266" begin="360" fromJunction="J4" toJunction="J3" end="420" vehsPerHour="25.224312197164352"/>
  <flow id="JF115267" begin="360" fromJunction="J4" toJunction="J5" end="420" vehsPerHour="40.30273465132055"/>
  <flow id="JF115268" begin="360" fromJunction="J4" toJunction="J6" end="420" vehsPerHour="26.900173197442513"/>
  <flow id="JF115269" begin="360" fromJunction="J4" toJunction="J7" end="420" vehsPerHour="54.59653778558013"/>
  <flow id="JF115270" begin="360" fromJunction="J5" toJunction="J0" end="420" vehsPerHour="41.4473167301822"/>
  <flow id="JF115271" begin="360" fromJunction="J5" toJunction="J3" end="420" vehsPerHour="27.427509308349695"/>
  <flow id="JF115272" begin="360" fromJunction="J5" toJunction="J4" end="420" vehsPerHour="27.295559798933684"/>
  <flow id="JF115273" begin="360" fromJunction="J5" toJunction="J6" end="420" vehsPerHour="43.771701601499515"/>
  <flow id="JF115274" begin="360" fromJunction="J5" toJunction="J7" end="420" vehsPerHour="37.975711729188056"/>
  <flow id="JF115275" begin="360" fromJunction="J6" toJunction="J0" end="420" vehsPerHour="56.63191222119443"/>
  <flow id="JF115276" begin="360" fromJunction="J6" toJunction="J4" end="420" vehsPerHour="3.050290058613353"/>
  <flow id="JF115277" begin="360" fromJunction="J6" toJunction="J5" end="420" vehsPerHour="28.247541869511558"/>
  <flow id="JF115278" begin="360" fromJunction="J7" toJunction="J0" end="420" vehsPerHour="65.47608772762715"/>
  <flow id="JF115279" begin="360" fromJunction="J7" toJunction="J3" end="420" vehsPerHour="41.990677109406754"/>
  <flow id="JF115280" begin="420" fromJunction="J0" toJunction="J3" end="480" vehsPerHour="94.00140662112852"/>
  <flow id="JF115281" begin="420" fromJunction="J0" toJunction="J4" end="480" vehsPerHour="26.4916480130241"/>
  <flow id="JF115282" begin="420" fromJunction="J0" toJunction="J7" end="480" vehsPerHour="33.468892690187836"/>
  <flow id="JF115283" begin="420" fromJunction="J3" toJunction="J0" end="480" vehsPerHour="10.863850966845494"/>
  <flow id="JF115284" begin="420" fromJunction="J3" toJunction="J4" end="480" vehsPerHour="79.79709578761833"/>
  <flow id="JF115285" begin="420" fromJunction="J3" toJunction="J7" end="480" vehsPerHour="134.84139703756182"/>
  <flow id="JF115286" begin="420" fromJunction="J4" toJunction="J6" end="480" vehsPerHour="6.468443343739851"/>
  <flow id="JF115287" begin="420" fromJunction="J4" toJunction="J7" end="480" vehsPerHour="60.93494716164423"/>
  <flow id="JF115288" begin="420" fromJunction="J5" toJunction="J0" end="480" vehsPerHour="43.794991162496856"/>
  <flow id="JF115289" begin="420" fromJunction="J5" toJunction="J3" end="480" vehsPerHour="20.582480743877763"/>
  <flow id="JF115290" begin="420" fromJunction="J5" toJunction="J4" end="480" vehsPerHour="3.757944890500744"/>
  <flow id="JF115291" begin="420" fromJunction="J5" toJunction="J6" end="480" vehsPerHour="62.76485036264897"/>
  <flow id="JF115292" begin="420" fromJunction="J5" toJunction="J7" end="480" vehsPerHour="38.14985035482829"/>
  <flow id="JF115293" begin="420" fromJunction="J6" toJunction="J0" end="480" vehsPerHour="48.44990256938401"/>
  <flow id="JF115294" begin="420" fromJunction="J6" toJunction="J3" end="480" vehsPerHour="51.48374054822847"/>
  <flow id="JF115295" begin="420" fromJunction="J6" toJunction="J4" end="480" vehsPerHour="54.492624829213106"/>
  <flow id="JF115296" begin="420" fromJunction="J6" toJunction="J5" end="480" vehsPerHour="0.05720414553164176"/>
  <flow id="JF115297" begin="420" fromJunction="J7" toJunction="J0" end="480" vehsPerHour="58.88295258007907"/>
  <flow id="JF115298" begin="420" fromJunction="J7" toJunction="J5" end="480" vehsPerHour="60.735366943480436"/>
  <flow id="JF115299" begin="480" fromJunction="J0" toJunction="J3" end="540" vehsPerHour="132.68000014192162"/>
  <flow id="JF115300" begin="480" fromJunction="J0" toJunction="J4" end="540" vehsPerHour="61.0600967956889"/>
  <flow id="JF115301" begin="480" fromJunction="J0" toJunction="J7" end="540" vehsPerHour="2.683816875157106"/>
  <flow id="JF115302" begin="480" fromJunction="J3" toJunction="J0" end="540" vehsPerHour="85.58023646594282"/>
  <flow id="JF115303" begin="480" fromJunction="J3" toJunction="J5" end="540" vehsPerHour="21.529361335991613"/>
  <flow id="JF115304" begin="480" fromJunction="J3" toJunction="J6" end="540" vehsPerHour="13.810214231983668"/>
  <flow id="JF115305" begin="480" fromJunction="J3" toJunction="J7" end="540" vehsPerHour="123.31137890363351"/>
  <flow id="JF115306" begin="480" fromJunction="J4" toJunction="J0" end="540" vehsPerHour="62.509748923622965"/>
  <flow id="JF115307" begin="480" fromJunction="J4" toJunction="J5" end="540" vehsPerHour="1.9070842305463174"/>
  <flow id="JF115308" begin="480" fromJunction="J4" toJunction="J6" end="540" vehsPerHour="28.620483554296385"/>
  <flow id="JF115309" begin="480" fromJunction="J4" toJunction="J7" end="540" vehsPerHour="35.81372134992853"/>
  <flow id="JF115310" begin="480" fromJunction="J5" toJunction="J3" end="540" vehsPerHour="19.420998186596215"/>
  <flow id="JF115311" begin="480" fromJunction="J5" toJunction="J4" end="540" vehsPerHour="23.027500146882478"/>
  <flow id="JF115312" begin="480" fromJunction="J5" toJunction="J6" end="540" vehsPerHour="21.62837950760465"/>
  <flow id="JF115313" begin="480" fromJunction="J6" toJunction="J0" end="540" vehsPerHour="41.56448575538704"/>
  <flow id="JF115314" begin="480" fromJunction="J6" toJunction="J4" end="540" vehsPerHour="35.783423232209245"/>
  <flow id="JF115315" begin="480" fromJunction="J6" toJunction="J5" end="540" vehsPerHour="25.935256111500426"/>
  <flow id="JF115316" begin="480" fromJunction="J6" toJunction="J7" end="540" vehsPerHour="5.7667693695725735"/>
  <flow id="JF115317" begin="480" fromJunction="J7" toJunction="J0" end="540" vehsPerHour="54.350286918493886"/>
  <flow id="JF115318" begin="480" fromJunction="J7" toJunction="J3" end="540" vehsPerHour="65.53297801653767"/>
  <flow id="JF115319" begin="480" fromJunction="J7" toJunction="J4" end="540" vehsPerHour="46.16099798336236"/>
  <flow id="JF115320" begin="480" fromJunction="J7" toJunction="J6" end="540" vehsPerHour="12.128584921232598"/>
  <flow id="JF115321" begin="540" fromJunction="J0" toJunction="J3" end="600" vehsPerHour="22.74319392700262"/>
  <flow id="JF115322" begin="540" fromJunction="J0" toJunction="J4" end="600" vehsPerHour="65.18137236446282"/>
  <flow id="JF115323" begin="540" fromJunction="J0" toJunction="J5" end="600" vehsPerHour="46.41254761941906"/>
  <flow id="JF115324" begin="540" fromJunction="J0" toJunction="J7" end="600" vehsPerHour="80.35658009778216"/>
  <flow id="JF115325" begin="540" fromJunction="J3" toJunction="J0" end="600" vehsPerHour="13.69104974545516"/>
  <flow id="JF115326" begin="540" fromJunction="J3" toJunction="J4" end="600" vehsPerHour="7.59556245410381"/>
  <flow id="JF115327" begin="540" fromJunction="J3" toJunction="J5" end="600" vehsPerHour="127.69269925324433"/>
  <flow id="JF115328" begin="540" fromJunction="J3" toJunction="J6" end="600" vehsPerHour="128.66775040846397"/>
  <flow id="JF115329" begin="540" fromJunction="J3" toJunction="J7" end="600" vehsPerHour="66.47151544088906"/>
  <flow id="JF115330" begin="540" fromJunction="J4" toJunction="J0" end="600" vehsPerHour="51.957962423199795"/>
  <flow id="JF115331" begin="540" fromJunction="J4" toJunction="J3" end="600" vehsPerHour="24.947612672610465"/>
  <flow id="JF115332" begin="540" fromJunction="J4" toJunction="J6" end="600" vehsPerHour="59.05067830986142"/>
  <flow id="JF115333" begin="540" fromJunction="J5" toJunction="J0" end="600" vehsPerHour="17.118925092132574"/>
  <flow id="JF115334" begin="540" fromJunction="J5" toJunction="J3" end="600" vehsPerHour="46.894616547230335"/>
  <flow id="JF115335" begin="540" fromJunction="J5" toJunction="J4" end="600" vehsPerHour="23.628864998946206"/>
  <flow id="JF115336" begin="540" fromJunction="J6" toJunction="J0" end="600" vehsPerHour="65.31681413722741"/>
  <flow id="JF115337" begin="540" fromJunction="J6" toJunction="J3" end="600" vehsPerHour="34.42934740840888"/>
  <flow id="JF115338" begin="540" fromJunction="J6" toJunction="J4" end="600" vehsPerHour="49.27024217006138"/>
  <flow id="JF115339" begin="540" fromJunction="J6" toJunction="J5" end="600" vehsPerHour="55.49272663150806"/>
  <flow id="JF115340" begin="540" fromJunction="J7" toJunction="J0" end="600" vehsPerHour="31.694559299896163"/>
  <flow id="JF115341" begin="540" fromJunction="J7" toJunction="J3" end="600" vehsPerHour="49.11970130726423"/>
  <flow id="JF115342" begin="540" fromJunction="J7" toJunction="J4" end="600" vehsPerHour="24.870009591143155"/>
  <flow id="JF115343" begin="540" fromJunction="J7" toJunction="J5" end="600" vehsPerHour="47.220200313817244"/>
  <flow id="JF115344" begin="540" fromJunction="J7" toJunction="J6" end="600" vehsPerHour="59.85263608662547"/>
  <flow id="JF115345" begin="600" fromJunction="J0" toJunction="J3" end="660" vehsPerHour="13.655023357342623"/>
  <flow id="JF115346" begin="600" fromJunction="J0" toJunction="J4" end="660" vehsPerHour="129.26932321436902"/>
  <flow id="JF115347" begin="600" fromJunction="J0" toJunction="J5" end="660" vehsPerHour="74.07064562450903"/>
  <flow id="JF115348" begin="600" fromJunction="J0" toJunction="J7" end="660" vehsPerHour="103.58151034575604"/>
  <flow id="JF115349" begin="600" fromJunction="J3" toJunction="J4" end="660" vehsPerHour="132.86188246605917"/>
  <flow id="JF115350" begin="600" fromJunction="J3" toJunction="J5" end="660" vehsPerHour="61.97240061838036"/>
  <flow id="JF115351" begin="600" fromJunction="J3" toJunction="J6" end="660" vehsPerHour="98.67056717793237"/>
  <flow id="JF115352" begin="600" fromJunction="J4" toJunction="J6" end="660" vehsPerHour="58.56113737303755"/>
  <flow id="JF115353" begin="600" fromJunction="J4" toJunction="J7" end="660" vehsPerHour="37.9091709090829"/>
  <flow id="JF115354" begin="600" fromJunction="J5" toJunction="J0" end="660" vehsPerHour="18.95975169322713"/>
  <flow id="JF115355" begin="600" fromJunction="J5" toJunction="J3" end="660" vehsPerHour="18.57463492526646"/>
  <flow id="JF115356" begin="600" fromJunction="J5" toJunction="J7" end="660" vehsPerHour="15.30911006016394"/>
  <flow id="JF115357" begin="600" fromJunction="J6" toJunction="J3" end="660" vehsPerHour="22.102957922514907"/>
  <flow id="JF115358" begin="600" fromJunction="J6" toJunction="J5" end="660" vehsPerHour="17.60621043548744"/>
  <flow id="JF115359" begin="600" fromJunction="J7" toJunction="J3" end="660" vehsPerHour="18.60706918579202"/>
  <flow id="JF115360" begin="600" fromJunction="J7" toJunction="J6" end="660" vehsPerHour="28.815713514408657"/>
  <flow id="JF115361" begin="660" fromJunction="J0" toJunction="J3" end="720" vehsPerHour="69.85272470664638"/>
  <flow id="JF115362" begin="660" fromJunction="J0" toJunction="J4" end="720" vehsPerHour="48.01783280952021"/>
  <flow id="JF115363" begin="660" fromJunction="J3" toJunction="J0" end="720" vehsPerHour="19.119608578915923"/>
  <flow id="JF115364" begin="660" fromJunction="J3" toJunction="J4" end="720" vehsPerHour="27.585657949915966"/>
  <flow id="JF115365" begin="660" fromJunction="J3" toJunction="J5" end="720" vehsPerHour="135.57743664911695"/>
  <flow id="JF115366" begin="660" fromJunction="J3" toJunction="J6" end="720" vehsPerHour="69.22252546845952"/>
  <flow id="JF115367" begin="660" fromJunction="J3" toJunction="J7" end="720" vehsPerHour="111.47159945576597"/>
  <flow id="JF115368" begin="660" fromJunction="J4" toJunction="J0" end="720" vehsPerHour="56.21477755015233"/>
  <flow id="JF115369" begin="660" fromJunction="J4" toJunction="J6" end="720" vehsPerHour="54.144383785164756"/>
  <flow id="JF115370" begin="660" fromJunction="J4" toJunction="J7" end="720" vehsPerHour="11.114849520113774"/>
  <flow id="JF115371" begin="660" fromJunction="J5" toJunction="J0" end="720" vehsPerHour="14.829707939362619"/>
  <flow id="JF115372" begin="660" fromJunction="J5" toJunction="J4" end="720" vehsPerHour="43.587278107458204"/>
  <flow id="JF115373" begin="660" fromJunction="J5" toJunction="J6" end="720" vehsPerHour="1.3942509031117056"/>
  <flow id="JF115374" begin="660" fromJunction="J5" toJunction="J7" end="720" vehsPerHour="38.86508673295957"/>
  <flow id="JF115375" begin="660" fromJunction="J6" toJunction="J3" end="720" vehsPerHour="27.520708539609615"/>
  <flow id="JF115376" begin="660" fromJunction="J6" toJunction="J5" end="720" vehsPerHour="26.936444262938434"/>
  <flow id="JF115377" begin="660" fromJunction="J7" toJunction="J4" end="720" vehsPerHour="61.200953594010564"/>
  <flow id="JF115378" begin="660" fromJunction="J7" toJunction="J5" end="720" vehsPerHour="28.670777414079254"/>
  <flow id="JF115379" begin="720" fromJunction="J0" toJunction="J3" end="780" vehsPerHour="117.81722090315533"/>
  <flow id="JF115380" begin="720" fromJunction="J0" toJunction="J4" end="780" vehsPerHour="30.016601032287483"/>
  <flow id="JF115381" begin="720" fromJunction="J0" toJunction="J5" end="780" vehsPerHour="112.50933978710638"/>
  <flow id="JF115382" begin="720" fromJunction="J0" toJunction="J6" end="780" vehsPerHour="122.89614544961378"/>
  <flow id="JF115383" begin="720" fromJunction="J0" toJunction="J7" end="780" vehsPerHour="35.38005863391643"/>
  <flow id="JF115384" begin="720" fromJunction="J3" toJunction="J0" end="780" vehsPerHour="42.903395491935804"/>
  <flow id="JF115385" begin="720" fromJunction="J3" toJunction="J4" end="780" vehsPerHour="111.6926891610546"/>
  <flow id="JF115386" begin="720" fromJunction="J3" toJunction="J5" end="780" vehsPerHour="52.706989950131806"/>
  <flow id="JF115387" begin="720" fromJunction="J3" toJunction="J6" end="780" vehsPerHour="13.455220395082078"/>
  <flow id="JF115388" begin="720" fromJunction="J3" toJunction="J7" end="780" vehsPerHour="49.110940095823544"/>
  <flow id="JF115389" begin="720" fromJunction="J4" toJunction="J0" end="780" vehsPerHour="65.06613513554251"/>
  <flow id="JF115390" begin="720" fromJunction="J4" toJunction="J5" end="780" vehsPerHour="3.454763396793206"/>
  <flow id="JF115391" begin="720" fromJunction="J4" toJunction="J6" end="780" vehsPerHour="17.884725641083218"/>
  <flow id="JF115392" begin="720" fromJunction="J4" toJunction="J7" end="780" vehsPerHour="5.857101145181935"/>
  <flow id="JF115393" begin="720" fromJunction="J5" toJunction="J3" end="780" vehsPerHour="39.2224396677257"/>
  <flow id="JF115394" begin="720" fromJunction="J5" toJunction="J4" end="780" vehsPerHour="16.94757261389752"/>
  <flow id="JF115395" begin="720" fromJunction="J5" toJunction="J6" end="780" vehsPerHour="66.00960375263504"/>