<?xml version="1.0" encoding="UTF-8"?>
<routes xmlns:xsi="http://www.w3.org/2001/XMLSchema-instance" xsi:noNamespaceSchemaLocation="http://sumo.dlr.de/xsd/routes_file.xsd">
  <flow id="JF92669" begin="0" fromJunction="J0" toJunction="J3" end="60" vehsPerHour="44.174404036533645"/>
  <flow id="JF92670" begin="0" fromJunction="J0" toJunction="J4" end="60" vehsPerHour="120.3935843844738"/>
  <flow id="JF92671" begin="0" fromJunction="J0" toJunction="J6" end="60" vehsPerHour="8.922014207870722"/>
  <flow id="JF92672" begin="0" fromJunction="J0" toJunction="J7" end="60" vehsPerHour="92.57181554003492"/>
  <flow id="JF92673" begin="0" fromJunction="J3" toJunction="J0" end="60" vehsPerHour="46.753186179679126"/>
  <flow id="JF92674" begin="0" fromJunction="J3" toJunction="J4" end="60" vehsPerHour="83.63737347228995"/>
  <flow id="JF92675" begin="0" fromJunction="J3" toJunction="J5" end="60" vehsPerHour="55.284902546210574"/>
  <flow id="JF92676" begin="0" fromJunction="J3" toJunction="J6" end="60" vehsPerHour="70.36003242765457"/>
  <flow id="JF92677" begin="0" fromJunction="J3" toJunction="J7" end="60" vehsPerHour="9.250929211362964"/>
  <flow id="JF92678" begin="0" fromJunction="J4" toJunction="J0" end="60" vehsPerHour="14.64321536115796"/>
  <flow id="JF92679" begin="0" fromJunction="J4" toJunction="J3" end="60" vehsPerHour="62.24077245331208"/>
  <flow id="JF92680" begin="0" fromJunction="J4" toJunction="J7" end="60" vehsPerHour="36.05172371261138"/>
  <flow id="JF92681" begin="0" fromJunction="J5" toJunction="J0" end="60" vehsPerHour="37.93219513795477"/>
  <flow id="JF92682" begin="0" fromJunction="J5" toJunction="J4" end="60" vehsPerHour="41.78881718456783"/>
  <flow id="JF92683" begin="0" fromJunction="J5" toJunction="J7" end="60" vehsPerHour="31.813969354000193"/>
  <flow id="JF92684" begin="0" fromJunction="J6" toJunction="J0" end="60" vehsPerHour="12.228795159037418"/>
  <flow id="JF92685" begin="0" fromJunction="J6" toJunction="J4" end="60" vehsPerHour="33.995444961579175"/>
  <flow id="JF92686" begin="0" fromJunction="J6" toJunction="J7" end="60" vehsPerHour="41.72033289433947"/>
  <flow id="JF92687" begin="0" fromJunction="J7" toJunction="J3" end="60" vehsPerHour="31.58404083458325"/>
  <flow id="JF92688" begin="0" fromJunction="J7" toJunction="J4" end="60" vehsPerHour="54.672171067243355"/>
  <flow id="JF92689" begin="0" fromJunction="J7" toJunction="J5" end="60" vehsPerHour="51.32239849601758"/>
  <flow id="JF92690" begin="0" fromJunction="J7" toJunction="J6" end="60" vehsPerHour="63.651577600941465"/>
  <flow id="JF92691" begin="60" fromJunction="J0" toJunction="J5" end="120" vehsPerHour="72.1184552984342"/>
  <flow id="JF92692" begin="60" fromJunction="J0" toJunction="J6" end="120" vehsPerHour="91.99431604281156"/>
  <flow id="JF92693" begin="60" fromJunction="J0" toJunction="J7" end="120" vehsPerHour="72.3338522807273"/>
  <flow id="JF92694" begin="60" fromJunction="J3" toJunction="J0" end="120" vehsPerHour="38.26820067756088"/>
  <flow id="JF92695" begin="60" fromJunction="J3" toJunction="J4" end="120" vehsPerHour="46.69839237941635"/>
  <flow id="JF92696" begin="60" fromJunction="J3" toJunction="J5" end="120" vehsPerHour="18.80314280761133"/>
  <flow id="JF92697" begin="60" fromJunction="J3" toJunction="J6" end="120" vehsPerHour="89.18612169974256"/>
  <flow id="JF92698" begin="60" fromJunction="J3" toJunction="J7" end="120" vehsPerHour="122.36789918458845"/>
  <flow id="JF92699" begin="60" fromJunction="J4" toJunction="J0" end="120" vehsPerHour="43.97881373647003"/>
  <flow id="JF92700" begin="60" fromJunction="J4" toJunction="J3" end="120" vehsPerHour="32.24177433401326"/>
  <flow id="JF92701" begin="60" fromJunction="J4" toJunction="J6" end="120" vehsPerHour="43.32537558511239"/>
  <flow id="JF92702" begin="60" fromJunction="J5" toJunction="J3" end="120" vehsPerHour="62.05280090216817"/>
  <flow id="JF92703" begin="60" fromJunction="J5" toJunction="J7" end="120" vehsPerHour="10.34742395945341"/>
  <flow id="JF92704" begin="60" fromJunction="J6" toJunction="J0" end="120" vehsPerHour="2.1085762783853848"/>
  <flow id="JF92705" begin="60" fromJunction="J6" toJunction="J3" end="120" vehsPerHour="20.945731126830612"/>
  <flow id="JF92706" begin="60" fromJunction="J6" toJunction="J5" end="120" vehsPerHour="61.53448741596744"/>
  <flow id="JF92707" begin="60" fromJunction="J7" toJunction="J0" end="120" vehsPerHour="39.129904409180554"/>
  <flow id="JF92708" begin="60" fromJunction="J7" toJunction="J3" end="120" vehsPerHour="15.84922372500022"/>
  <flow id="JF92709" begin="60" fromJunction="J7" toJunction="J4" end="120" vehsPerHour="11.787878582484359"/>
  <flow id="JF92710" begin="60" fromJunction="J7" toJunction="J5" end="120" vehsPerHour="11.041052459960309"/>
  <flow id="JF92711" begin="60" fromJunction="J7" toJunction="J6" end="120" vehsPerHour="8.621217701922113"/>
  <flow id="JF92712" begin="120" fromJunction="J0" toJunction="J3" end="180" vehsPerHour="86.40100658639636"/>
  <flow id="JF92713" begin="120" fromJunction="J0" toJunction="J4" end="180" vehsPerHour="64.11770375560853"/>
  <flow id="JF92714" begin="120" fromJunction="J0" toJunction="J5" end="180" vehsPerHour="24.686301326052007"/>
  <flow id="JF92715" begin="120" fromJunction="J0" toJunction="J6" end="180" vehsPerHour="58.670937530311306"/>
  <flow id="JF92716" begin="120" fromJunction="J3" toJunction="J0" end="180" vehsPerHour="66.42010035547744"/>
  <flow id="JF92717" begin="120" fromJunction="J3" toJunction="J4" end="180" vehsPerHour="92.49505686747446"/>
  <flow id="JF92718" begin="120" fromJunction="J3" toJunction="J5" end="180" vehsPerHour="32.29326234714903"/>
  <flow id="JF92719" begin="120" fromJunction="J3" toJunction="J6" end="180" vehsPerHour="107.52997937880747"/>
  <flow id="JF92720" begin="120" fromJunction="J4" toJunction="J0" end="180" vehsPerHour="41.3466893470275"/>
  <flow id="JF92721" begin="120" fromJunction="J4" toJunction="J3" end="180" vehsPerHour="21.36962138690412"/>
  <flow id="JF92722" begin="120" fromJunction="J4" toJunction="J5" end="180" vehsPerHour="62.6688783350062"/>
  <flow id="JF92723" begin="120" fromJunction="J4" toJunction="J6" end="180" vehsPerHour="16.920715755197172"/>
  <flow id="JF92724" begin="120" fromJunction="J4" toJunction="J7" end="180" vehsPerHour="47.56406646645664"/>
  <flow id="JF92725" begin="120" fromJunction="J5" toJunction="J4" end="180" vehsPerHour="36.483910527783756"/>
  <flow id="JF92726" begin="120" fromJunction="J5" toJunction="J6" end="180" vehsPerHour="30.728626073395972"/>
  <flow id="JF92727" begin="120" fromJunction="J5" toJunction="J7" end="180" vehsPerHour="17.35369684512543"/>
  <flow id="JF92728" begin="120" fromJunction="J6" toJunction="J5" end="180" vehsPerHour="8.172892033757046"/>
  <flow id="JF92729" begin="120" fromJunction="J6" toJunction="J7" end="180" vehsPerHour="30.716101437872293"/>
  <flow id="JF92730" begin="120" fromJunction="J7" toJunction="J0" end="180" vehsPerHour="22.198252210689354"/>
  <flow id="JF92731" begin="120" fromJunction="J7" toJunction="J4" end="180" vehsPerHour="39.1689562894092"/>
  <flow id="JF92732" begin="120" fromJunction="J7" toJunction="J5" end="180" vehsPerHour="57.414171374621766"/>
  <flow id="JF92733" begin="120" fromJunction="J7" toJunction="J6" end="180" vehsPerHour="44.12214146355998"/>
  <flow id="JF92734" begin="180" fromJunction="J0" toJunction="J3" end="240" vehsPerHour="10.501668933759573"/>
  <flow id="JF92735" begin="180" fromJunction="J0" toJunction="J4" end="240" vehsPerHour="36.05843024085989"/>
  <flow id="JF92736" begin="180" fromJunction="J0" toJunction="J5" end="240" vehsPerHour="124.4579614163104"/>
  <flow id="JF92737" begin="180" fromJunction="J0" toJunction="J6" end="240" vehsPerHour="9.676652926526394"/>
  <flow id="JF92738" begin="180" fromJunction="J0" toJunction="J7" end="240" vehsPerHour="38.77998153509478"/>
  <flow id="JF92739" begin="180" fromJunction="J3" toJunction="J0" end="240" vehsPerHour="7.505573608685893"/>
  <flow id="JF92740" begin="180" fromJunction="J3" toJunction="J4" end="240" vehsPerHour="25.766791109473537"/>
  <flow id="JF92741" begin="180" fromJunction="J3" toJunction="J6" end="240" vehsPerHour="15.093091404896242"/>
  <flow id="JF92742" begin="180" fromJunction="J4" toJunction="J0" end="240" vehsPerHour="39.021218111297415"/>
  <flow id="JF92743" begin="180" fromJunction="J4" toJunction="J3" end="240" vehsPerHour="5.7459338808587646"/>
  <flow id="JF92744" begin="180" fromJunction="J4" toJunction="J5" end="240" vehsPerHour="15.452288769036036"/>
  <flow id="JF92745" begin="180" fromJunction="J4" toJunction="J7" end="240" vehsPerHour="8.525201783089962"/>
  <flow id="JF92746" begin="180" fromJunction="J5" toJunction="J0" end="240" vehsPerHour="5.519774485411009"/>
  <flow id="JF92747" begin="180" fromJunction="J5" toJunction="J3" end="240" vehsPerHour="55.46278914113413"/>
  <flow id="JF92748" begin="180" fromJunction="J5" toJunction="J4" end="240" vehsPerHour="11.165325458485908"/>
  <flow id="JF92749" begin="180" fromJunction="J5" toJunction="J6" end="240" vehsPerHour="44.205775044543756"/>
  <flow id="JF92750" begin="180" fromJunction="J5" toJunction="J7" end="240" vehsPerHour="5.7495438891739035"/>
  <flow id="JF92751" begin="180" fromJunction="J6" toJunction="J0" end="240" vehsPerHour="30.946737729389707"/>
  <flow id="JF92752" begin="180" fromJunction="J6" toJunction="J3" end="240" vehsPerHour="68.06393448789159"/>
  <flow id="JF92753" begin="180" fromJunction="J6" toJunction="J5" end="240" vehsPerHour="35.99565314402524"/>
  <flow id="JF92754" begin="180" fromJunction="J6" toJunction="J7" end="240" vehsPerHour="21.678100550808526"/>
  <flow id="JF92755" begin="180" fromJunction="J7" toJunction="J0" end="240" vehsPerHour="66.15343685591199"/>
  <flow id="JF92756" begin="180" fromJunction="J7" toJunction="J3" end="240" vehsPerHour="57.64961710354249"/>
  <flow id="JF92757" begin="180" fromJunction="J7" toJunction="J4" end="240" vehsPerHour="65.09614363540196"/>
  <flow id="JF92758" begin="180" fromJunction="J7" toJunction="J6" end="240" vehsPerHour="34.20304805596714"/>
  <flow id="JF92759" begin="240" fromJunction="J0" toJunction="J3" end="300" vehsPerHour="58.86342767898817"/>
  <flow id="JF92760" begin="240" fromJunction="J0" toJunction="J4" end="300" vehsPerHour="21.96939884542587"/>
  <flow id="JF92761" begin="240" fromJunction="J0" toJunction="J5" end="300" vehsPerHour="28.403574571253223"/>
  <flow id="JF92762" begin="240" fromJunction="J0" toJunction="J6" end="300" vehsPerHour="74.14125776906288"/>
  <flow id="JF92763" begin="240" fromJunction="J0" toJunction="J7" end="300" vehsPerHour="87.67175623464482"/>
  <flow id="JF92764" begin="240" fromJunction="J3" toJunction="J0" end="300" vehsPerHour="69.89358500412835"/>
  <flow id="JF92765" begin="240" fromJunction="J3" toJunction="J4" end="300" vehsPerHour="27.880434318530227"/>
  <flow id="JF92766" begin="240" fromJunction="J3" toJunction="J6" end="300" vehsPerHour="118.01351418842464"/>
  <flow id="JF92767" begin="240" fromJunction="J3" toJunction="J7" end="300" vehsPerHour="132.34085890448645"/>
  <flow id="JF92768" begin="240" fromJunction="J4" toJunction="J5" end="300" vehsPerHour="24.518253950043157"/>
  <flow id="JF92769" begin="240" fromJunction="J4" toJunction="J7" end="300" vehsPerHour="14.293541040547023"/>
  <flow id="JF92770" begin="240" fromJunction="J5" toJunction="J3" end="300" vehsPerHour="36.71871799620172"/>
  <flow id="JF92771" begin="240" fromJunction="J5" toJunction="J4" end="300" vehsPerHour="2.343879875150671"/>
  <flow id="JF92772" begin="240" fromJunction="J5" toJunction="J7" end="300" vehsPerHour="14.061607907130576"/>
  <flow id="JF92773" begin="240" fromJunction="J6" toJunction="J4" end="300" vehsPerHour="13.59907358262618"/>
  <flow id="JF92774" begin="240" fromJunction="J6" toJunction="J7" end="300" vehsPerHour="28.43830031613568"/>
  <flow id="JF92775" begin="240" fromJunction="J7" toJunction="J0" end="300" vehsPerHour="66.37754133464831"/>
  <flow id="JF92776" begin="240" fromJunction="J7" toJunction="J4" end="300" vehsPerHour="12.160436912690445"/>
  <flow id="JF92777" begin="240" fromJunction="J7" toJunction="J5" end="300" vehsPerHour="61.49818656575961"/>
  <flow id="JF92778" begin="240" fromJunction="J7" toJunction="J6" end="300" vehsPerHour="58.943248725345036"/>
  <flow id="JF92779" begin="300" fromJunction="J0" toJunction="J3" end="360" vehsPerHour="81.41462074671861"/>
  <flow id="JF92780" begin="300" fromJunction="J0" toJunction="J4" end="360" vehsPerHour="22.052866028383875"/>
  <flow id="JF92781" begin="300" fromJunction="J0" toJunction="J5" end="360" vehsPerHour="106.77317691204811"/>
  <flow id="JF92782" begin="300" fromJunction="J0" toJunction="J6" end="360" vehsPerHour="95.25086693748757"/>
  <flow id="JF92783" begin="300" fromJunction="J0" toJunction="J7" end="360" vehsPerHour="23.905164678506843"/>
  <flow id="JF92784" begin="300" fromJunction="J3" toJunction="J4" end="360" vehsPerHour="21.925208741532245"/>
  <flow id="JF92785" begin="300" fromJunction="J3" toJunction="J5" end="360" vehsPerHour="2.658452597563304"/>
  <flow id="JF92786" begin="300" fromJunction="J3" toJunction="J6" end="360" vehsPerHour="74.94296045332533"/>
  <flow id="JF92787" begin="300" fromJunction="J4" toJunction="J0" end="360" vehsPerHour="48.272008003434514"/>
  <flow id="JF92788" begin="300" fromJunction="J4" toJunction="J5" end="360" vehsPerHour="32.44531743495389"/>
  <flow id="JF92789" begin="300" fromJunction="J4" toJunction="J6" end="360" vehsPerHour="63.37200263827598"/>
  <flow id="JF92790" begin="300" fromJunction="J4" toJunction="J7" end="360" vehsPerHour="45.720023661144126"/>
  <flow id="JF92791" begin="300" fromJunction="J5" toJunction="J0" end="360" vehsPerHour="16.692797658419433"/>
  <flow id="JF92792" begin="300" fromJunction="J5" toJunction="J3" end="360" vehsPerHour="49.025038728024484"/>
  <flow id="JF92793" begin="300" fromJunction="J5" toJunction="J4" end="360" vehsPerHour="48.03442120957045"/>
  <flow id="JF92794" begin="300" fromJunction="J5" toJunction="J6" end="360" vehsPerHour="17.45865641969962"/>
  <flow id="JF92795" begin="300" fromJunction="J5" toJunction="J7" end="360" vehsPerHour="41.79447838372945"/>
  <flow id="JF92796" begin="300" fromJunction="J6" toJunction="J0" end="360" vehsPerHour="60.302062349002554"/>
  <flow id="JF92797" begin="300" fromJunction="J6" toJunction="J4" end="360" vehsPerHour="65.8797817775173"/>
  <flow id="JF92798" begin="300" fromJunction="J6" toJunction="J5" end="360" vehsPerHour="37.58423784764649"/>
  <flow id="JF92799" begin="300" fromJunction="J6" toJunction="J7" end="360" vehsPerHour="59.89187146861115"/>
  <flow id="JF92800" begin="300" fromJunction="J7" toJunction="J4" end="360" vehsPerHour="13.763875846196434"/>
  <flow id="JF92801" begin="300" fromJunction="J7" toJunction="J5" end="360" vehsPerHour="23.858119403217078"/>
  <flow id="JF92802" begin="300" fromJunction="J7" toJunction="J6" end="360" vehsPerHour="29.42362093921972"/>
  <flow id="JF92803" begin="360" fromJunction="J0" toJunction="J5" end="420" vehsPerHour="137.34721868089645"/>
  <flow id="JF92804" begin="360" fromJunction="J0" toJunction="J6" end="420" vehsPerHour="28.734420255902748"/>
  <flow id="JF92805" begin="360" fromJunction="J3" toJunction="J7" end="420" vehsPerHour="17.05880442242727"/>
  <flow id="JF92806" begin="360" fromJunction="J4" toJunction="J3" end="420" vehsPerHour="6.480129370057996"/>
  <flow id="JF92807" begin="360" fromJunction="J4" toJunction="J5" end="420" vehsPerHour="33.70682691752729"/>
  <flow id="JF92808" begin="360" fromJunction="J4" toJunction="J7" end="420" vehsPerHour="13.140054865029196"/>
  <flow id="JF92809" begin="360" fromJunction="J5" toJunction="J0" end="420" vehsPerHour="42.466427481488786"/>
  <flow id="JF92810" begin="360" fromJunction="J5" toJunction="J3" end="420" vehsPerHour="12.892749983209404"/>
  <flow id="JF92811" begin="360" fromJunction="J5" toJunction="J4" end="420" vehsPerHour="38.952686292592226"/>
  <flow id="JF92812" begin="360" fromJunction="J5" toJunction="J7" end="420" vehsPerHour="5.075730195038882"/>
  <flow id="JF92813" begin="360" fromJunction="J6" toJunction="J0" end="420" vehsPerHour="64.58335807977916"/>
  <flow id="JF92814" begin="360" fromJunction="J6" toJunction="J3" end="420" vehsPerHour="24.419826913361597"/>
  <flow id="JF92815" begin="360" fromJunction="J6" toJunction="J4" end="420" vehsPerHour="19.281397431263333"/>
  <flow id="JF92816" begin="360" fromJunction="J6" toJunction="J5" end="420" vehsPerHour="20.145683622130363"/>
  <flow id="JF92817" begin="360" fromJunction="J6" toJunction="J7" end="420" vehsPerHour="49.16022102203459"/>
  <flow id="JF92818" begin="360" fromJunction="J7" toJunction="J0" end="420" vehsPerHour="66.12943778037247"/>
  <flow id="JF92819" begin="360" fromJunction="J7" toJunction="J3" end="420" vehsPerHour="52.273462565585056"/>
  <flow id="JF92820" begin="360" fromJunction="J7" toJunction="J4" end="420" vehsPerHour="16.849763111533733"/>
  <flow id="JF92821" begin="360" fromJunction="J7" toJunction="J6" end="420" vehsPerHour="56.28178549608815"/>
  <flow id="JF92822" begin="420" fromJunction="J0" toJunction="J5" end="480" vehsPerHour="27.28464155682921"/>
  <flow id="JF92823" begin="420" fromJunction="J0" toJunction="J6" end="480" vehsPerHour="104.54646931306553"/>
  <flow id="JF92824" begin="420" fromJunction="J3" toJunction="J0" end="480" vehsPerHour="42.251058020902605"/>
  <flow id="JF92825" begin="420" fromJunction="J3" toJunction="J4" end="480" vehsPerHour="22.625467817869925"/>
  <flow id="JF92826" begin="420" fromJunction="J3" toJunction="J5" end="480" vehsPerHour="6.613709333254924"/>
  <flow id="JF92827" begin="420" fromJunction="J4" toJunction="J0" end="480" vehsPerHour="49.784807115425565"/>
  <flow id="JF92828" begin="420" fromJunction="J4" toJunction="J5" end="480" vehsPerHour="47.45638743173501"/>
  <flow id="JF92829" begin="420" fromJunction="J4" toJunction="J6" end="480" vehsPerHour="4.963511521555984"/>
  <flow id="JF92830" begin="420" fromJunction="J4" toJunction="J7" end="480" vehsPerHour="52.986738543685185"/>
  <flow id="JF92831" begin="420" fromJunction="J5" toJunction="J0" end="480" vehsPerHour="43.28043450037226"/>
  <flow id="JF92832" begin="420" fromJunction="J5" toJunction="J3" end="480" vehsPerHour="1.1045752157453557"/>
  <flow id="JF92833" begin="420" fromJunction="J5" toJunction="J4" end="480" vehsPerHour="45.57459605766935"/>
  <flow id="JF92834" begin="420" fromJunction="J5" toJunction="J6" end="480" vehsPerHour="64.48870213379244"/>
  <flow id="JF92835" begin="420" fromJunction="J5" toJunction="J7" end="480" vehsPerHour="17.427761017914122"/>
  <flow id="JF92836" begin="420" fromJunction="J6" toJunction="J0" end="480" vehsPerHour="51.21170567667129"/>
  <flow id="JF92837" begin="420" fromJunction="J6" toJunction="J4" end="480" vehsPerHour="44.43890562426257"/>
  <flow id="JF92838" begin="420" fromJunction="J6" toJunction="J5" end="480" vehsPerHour="29.75626579833"/>
  <flow id="JF92839" begin="420" fromJunction="J6" toJunction="J7" end="480" vehsPerHour="58.75054215746265"/>
  <flow id="JF92840" begin="420" fromJunction="J7" toJunction="J0" end="480" vehsPerHour="59.51385876022294"/>
  <flow id="JF92841" begin="420" fromJunction="J7" toJunction="J3" end="480" vehsPerHour="50.97673387407023"/>
  <flow id="JF92842" begin="420" fromJunction="J7" toJunction="J4" end="480" vehsPerHour="30.78678952978186"/>
  <flow id="JF92843" begin="420" fromJunction="J7" toJunction="J5" end="480" vehsPerHour="6.7628744358391435"/>
  <flow id="JF92844" begin="420" fromJunction="J7" toJunction="J6" end="480" vehsPerHour="61.455265902602854"/>
  <flow id="JF92845" begin="480" fromJunction="J0" toJunction="J3" end="540" vehsPerHour="90.19609462444572"/>
  <flow id="JF92846" begin="480" fromJunction="J0" toJunction="J4" end="540" vehsPerHour="103.70501154375313"/>
  <flow id="JF92847" begin="480" fromJunction="J0" toJunction="J5" end="540" vehsPerHour="121.9266688388725"/>
  <flow id="JF92848" begin="480" fromJunction="J0" toJunction="J7" end="540" vehsPerHour="91.11474377816516"/>
  <flow id="JF92849" begin="480" fromJunction="J3" toJunction="J4" end="540" vehsPerHour="41.00939722365597"/>
  <flow id="JF92850" begin="480" fromJunction="J3" toJunction="J5" end="540" vehsPerHour="55.2074610003278"/>
  <flow id="JF92851" begin="480" fromJunction="J3" toJunction="J6" end="540" vehsPerHour="75.46839246659091"/>
  <flow id="JF92852" begin="480" fromJunction="J3" toJunction="J7" end="540" vehsPerHour="17.1566583851473"/>
  <flow id="JF92853" begin="480" fromJunction="J4" toJunction="J0" end="540" vehsPerHour="21.12354820634628"/>
  <flow id="JF92854" begin="480" fromJunction="J4" toJunction="J3" end="540" vehsPerHour="62.296343424231935"/>
  <flow id="JF92855" begin="480" fromJunction="J4" toJunction="J5" end="540" vehsPerHour="36.96764434589263"/>
  <flow id="JF92856" begin="480" fromJunction="J4" toJunction="J6" end="540" vehsPerHour="51.793175608609076"/>
  <flow id="JF92857" begin="480" fromJunction="J5" toJunction="J0" end="540" vehsPerHour="23.43968917855483"/>
  <flow id="JF92858" begin="480" fromJunction="J5" toJunction="J4" end="540" vehsPerHour="60.88198713598713"/>
  <flow id="JF92859" begin="480" fromJunction="J5" toJunction="J6" end="540" vehsPerHour="49.563190524308915"/>
  <flow id="JF92860" begin="480" fromJunction="J5" toJunction="J7" end="540" vehsPerHour="12.867415885511281"/>
  <flow id="JF92861" begin="480" fromJunction="J6" toJunction="J0" end="540" vehsPerHour="12.178379624962755"/>
  <flow id="JF92862" begin="480" fromJunction="J6" toJunction="J3" end="540" vehsPerHour="66.77376976507445"/>
  <flow id="JF92863" begin="480" fromJunction="J6" toJunction="J4" end="540" vehsPerHour="32.71421890432382"/>
  <flow id="JF92864" begin="480" fromJunction="J6" toJunction="J5" end="540" vehsPerHour="57.101679518219086"/>
  <flow id="JF92865" begin="480" fromJunction="J7" toJunction="J0" end="540" vehsPerHour="48.73790725111034"/>
  <flow id="JF92866" begin="480" fromJunction="J7" toJunction="J3" end="540" vehsPerHour="53.48070053408624"/>
  <flow id="JF92867" begin="480" fromJunction="J7" toJunction="J4" end="540" vehsPerHour="47.47730842828184"/>
  <flow id="JF92868" begin="480" fromJunction="J7" toJunction="J5" end="540" vehsPerHour="41.24222773376569"/>
  <flow id="JF92869" begin="480" fromJunction="J7" toJunction="J6" end="540" vehsPerHour="12.23559613592179"/>
  <flow id="JF92870" begin="540" fromJunction="J0" toJunction="J3" end="600" vehsPerHour="54.7833598969188"/>
  <flow id="JF92871" begin="540" fromJunction="J0" toJunction="J4" end="600" vehsPerHour="24.62667214927832"/>
  <flow id="JF92872" begin="540" fromJunction="J0" toJunction="J5" end="600" vehsPerHour="10.824463694371767"/>
  <flow id="JF92873" begin="540" fromJunction="J0" toJunction="J6" end="600" vehsPerHour="30.54732668246306"/>
  <flow id="JF92874" begin="540" fromJunction="J0" toJunction="J7" end="600" vehsPerHour="15.887769763809782"/>
  <flow id="JF92875" begin="540" fromJunction="J3" toJunction="J0" end="600" vehsPerHour="68.90900823532483"/>
  <flow id="JF92876" begin="540" fromJunction="J3" toJunction="J4" end="600" vehsPerHour="9.755422587249033"/>
  <flow id="JF92877" begin="540" fromJunction="J3" toJunction="J6" end="600" vehsPerHour="25.91157468908665"/>
  <flow id="JF92878" begin="540" fromJunction="J3" toJunction="J7" end="600" vehsPerHour="39.145222561949495"/>
  <flow id="JF92879" begin="540" fromJunction="J4" toJunction="J0" end="600" vehsPerHour="54.90336518347355"/>
  <flow id="JF92880" begin="540" fromJunction="J4" toJunction="J3" end="600" vehsPerHour="19.32050799190575"/>
  <flow id="JF92881" begin="540" fromJunction="J4" toJunction="J6" end="600" vehsPerHour="45.228052629641944"/>
  <flow id="JF92882" begin="540" fromJunction="J5" toJunction="J4" end="600" vehsPerHour="11.41733464373406"/>
  <flow id="JF92883" begin="540" fromJunction="J5" toJunction="J7" end="600" vehsPerHour="1.1372929454530836"/>
  <flow id="JF92884" begin="540" fromJunction="J6" toJunction="J0" end="600" vehsPerHour="40.15583855604455"/>
  <flow id="JF92885" begin="540" fromJunction="J6" toJunction="J3" end="600" vehsPerHour="3.492521580110618"/>
  <flow id="JF92886" begin="540" fromJunction="J6" toJunction="J4" end="600" vehsPerHour="24.5235630837657"/>
  <flow id="JF92887" begin="540" fromJunction="J6" toJunction="J5" end="600" vehsPerHour="10.64709087034115"/>
  <flow id="JF92888" begin="540" fromJunction="J7" toJunction="J0" end="600" vehsPerHour="46.69610362464109"/>
  <flow id="JF92889" begin="540" fromJunction="J7" toJunction="J3" end="600" vehsPerHour="25.039743426338593"/>
  <flow id="JF92890" begin="540" fromJunction="J7" toJunction="J5" end="600" vehsPerHour="21.168178047999117"/>
  <flow id="JF92891" begin="600" fromJunction="J0" toJunction="J3" end="660" vehsPerHour="27.597922121755882"/>
  <flow id="JF92892" begin="600" fromJunction="J0" toJunction="J4" end="660" vehsPerHour="95.08097522891175"/>
  <flow id="JF92893" begin="600" fromJunction="J0" toJunction="J5" end="660" vehsPerHour="71.09310499565699"/>
  <flow id="JF92894" begin="600" fromJunction="J0" toJunction="J6" end="660" vehsPerHour="45.88879108131374"/>
  <flow id="JF92895" begin="600" fromJunction="J3" toJunction="J0" end="660" vehsPerHour="45.411778736411975"/>
  <flow id="JF92896" begin="600" fromJunction="J3" toJunction="J5" end="660" vehsPerHour="67.05167572082776"/>
  <flow id="JF92897" begin="600" fromJunction="J3" toJunction="J6" end="660" vehsPerHour="11.951513049195885"/>
  <flow id="JF92898" begin="600" fromJunction="J4" toJunction="J0" end="660" vehsPerHour="1.5444857659376738"/>
  <flow id="JF92899" begin="600" fromJunction="J4" toJunction="J3" end="660" vehsPerHour="8.733347365736348"/>
  <flow id="JF92900" begin="600" fromJunction="J4" toJunction="J5" end="660" vehsPerHour="48.627325623227826"/>
  <flow id="JF92901" begin="600" fromJunction="J4" toJunction="J6" end="660" vehsPerHour="33.34286043384416"/>
  <flow id="JF92902" begin="600" fromJunction="J4" toJunction="J7" end="660" vehsPerHour="42.8102120513163"/>
  <flow id="JF92903" begin="600" fromJunction="J5" toJunction="J3" end="660" vehsPerHour="68.21910390868095"/>
  <flow id="JF92904" begin="600" fromJunction="J5" toJunction="J4" end="660" vehsPerHour="62.56363529756837"/>
  <flow id="JF92905" begin="600" fromJunction="J5" toJunction="J6" end="660" vehsPerHour="16.052769226554883"/>
  <flow id="JF92906" begin="600" fromJunction="J5" toJunction="J7" end="660" vehsPerHour="44.27776511892546"/>
  <flow id="JF92907" begin="600" fromJunction="J6" toJunction="J0" end="660" vehsPerHour="29.778817849313935"/>
  <flow id="JF92908" begin="600" fromJunction="J6" toJunction="J4" end="660" vehsPerHour="62.97300516198862"/>
  <flow id="JF92909" begin="600" fromJunction="J6" toJunction="J5" end="660" vehsPerHour="54.1255194571357"/>
  <flow id="JF92910" begin="600" fromJunction="J7" toJunction="J0" end="660" vehsPerHour="44.367186244749234"/>
  <flow id="JF92911" begin="600" fromJunction="J7" toJunction="J5" end="660" vehsPerHour="56.8954284715577"/>
  <flow id="JF92912" begin="600" fromJunction="J7" toJunction="J6" end="660" vehsPerHour="50.88946909958066"/>
  <flow id="JF92913" begin="660" fromJunction="J0" toJunction="J3" end="720" vehsPerHour="29.65615026295489"/>
  <flow id="JF92914" begin="660" fromJunction="J0" toJunction="J5" end="720" vehsPerHour="66.84388799400071"/>
  <flow id="JF92915" begin="660" fromJunction="J0" toJunction="J6" end="720" vehsPerHour="134.5295467331862"/>
  <flow id="JF92916" begin="660" fromJunction="J0" toJunction="J7" end="720" vehsPerHour="48.67701874946011"/>
  <flow id="JF92917" begin="660" fromJunction="J3" toJunction="J4" end="720" vehsPerHour="78.86427454170789"/>
  <flow id="JF92918" begin="660" fromJunction="J3" toJunction="J5" end="720" vehsPerHour="34.998545175458894"/>
  <flow id="JF92919" begin="660" fromJunction="J3" toJunction="J6" end="720" vehsPerHour="6.479410467546395"/>
  <flow id="JF92920" begin="660" fromJunction="J4" toJunction="J5" end="720" vehsPerHour="49.00818357632139"/>
  <flow id="JF92921" begin="660" fromJunction="J4" toJunction="J6" end="720" vehsPerHour="49.053014402635114"/>
  <flow id="JF92922" begin="660" fromJunction="J5" toJunction="J0" end="720" vehsPerHour="48.7859839529453"/>
  <flow id="JF92923" begin="660" fromJunction="J5" toJunction="J3" end="720" vehsPerHour="12.090875150930067"/>
  <flow id="JF92924" begin="660" fromJunction="J5" toJunction="J6" end="720" vehsPerHour="68.04610028873525"/>
  <flow id="JF92925" begin="660" fromJunction="J5" toJunction="J7" end="720" vehsPerHour="60.35929410006119"/>
  <flow id="JF92926" begin="660" fromJunction="J6" toJunction="J3" end="720" vehsPerHour="59.19642683578571"/>
  <flow id="JF92927" begin="660" fromJunction="J6" toJunction="J4" end="720" vehsPerHour="7.077325472085829"/>
  <flow id="JF92928" begin="660" fromJunction="J6" toJunction="J5" end="720" vehsPerHour="49.257037467240714"/>
  <flow id="JF92929" begin="660" fromJunction="J7" toJunction="J0" end="720" vehsPerHour="66.66918394335279"/>
  <flow id="JF92930" begin="660" fromJunction="J7" toJunction="J4" end="720" vehsPerHour="53.5926337963168"/>
  <flow id="JF92931" begin="660" fromJunction="J7" toJunction="J6" end="720" vehsPerHour="31.12900183015472"/>
  <flow id="JF92932" begin="720" fromJunction="J0" toJunction="J3" end="780" vehsPerHour="54.64655984903653"/>
  <flow id="JF92933" begin="720" fromJunction="J0" toJunction="J5" end="780" vehsPerHour="126.95670440724645"/>
  <flow id="JF92934" begin="720" fromJunction="J0" toJunction="J6" end="780" vehsPerHour="112.59857286422852"/>
  <flow id="JF92935" begin="720" fromJunction="J3" toJunction="J0" end="780" vehsPerHour="16.25456163672601"/>
  <flow id="JF92936" begin="720" fromJunction="J3" toJunction="J4" end="780" vehsPerHour="22.891894306849267"/>