<?xml version="1.0" encoding="UTF-8"?>
<routes xmlns:xsi="http://www.w3.org/2001/XMLSchema-instance" xsi:noNamespaceSchemaLocation="http://sumo.dlr.de/xsd/routes_file.xsd">
  <flow id="JF103855" begin="0" fromJunction="J0" toJunction="J3" end="60" vehsPerHour="6.868170678162584"/>
  <flow id="JF103856" begin="0" fromJunction="J0" toJunction="J5" end="60" vehsPerHour="114.799472221295"/>
  <flow id="JF103857" begin="0" fromJunction="J0" toJunction="J6" end="60" vehsPerHour="70.61457796073147"/>
  <flow id="JF103858" begin="0" fromJunction="J0" toJunction="J7" end="60" vehsPerHour="14.15766562849891"/>
  <flow id="JF103859" begin="0" fromJunction="J3" toJunction="J0" end="60" vehsPerHour="16.515693902438972"/>
  <flow id="JF103860" begin="0" fromJunction="J3" toJunction="J4" end="60" vehsPerHour="92.73317090075452"/>
  <flow id="JF103861" begin="0" fromJunction="J3" toJunction="J5" end="60" vehsPerHour="119.9861108379267"/>
  <flow id="JF103862" begin="0" fromJunction="J3" toJunction="J6" end="60" vehsPerHour="19.748664132320446"/>
  <flow id="JF103863" begin="0" fromJunction="J4" toJunction="J0" end="60" vehsPerHour="0.5283514376918595"/>
  <flow id="JF103864" begin="0" fromJunction="J4" toJunction="J3" end="60" vehsPerHour="54.762408996619655"/>
  <flow id="JF103865" begin="0" fromJunction="J4" toJunction="J5" end="60" vehsPerHour="9.338789787558873"/>
  <flow id="JF103866" begin="0" fromJunction="J4" toJunction="J6" end="60" vehsPerHour="31.922121046162186"/>
  <flow id="JF103867" begin="0" fromJunction="J5" toJunction="J7" end="60" vehsPerHour="29.712091504435936"/>
  <flow id="JF103868" begin="0" fromJunction="J6" toJunction="J0" end="60" vehsPerHour="5.809491525795069"/>
  <flow id="JF103869" begin="0" fromJunction="J6" toJunction="J5" end="60" vehsPerHour="22.740766982987424"/>
  <flow id="JF103870" begin="0" fromJunction="J7" toJunction="J0" end="60" vehsPerHour="56.45456992219695"/>
  <flow id="JF103871" begin="0" fromJunction="J7" toJunction="J3" end="60" vehsPerHour="56.44538054181676"/>
  <flow id="JF103872" begin="0" fromJunction="J7" toJunction="J4" end="60" vehsPerHour="23.93607580081885"/>
  <flow id="JF103873" begin="0" fromJunction="J7" toJunction="J5" end="60" vehsPerHour="32.058075827235804"/>
  <flow id="JF103874" begin="0" fromJunction="J7" toJunction="J6" end="60" vehsPerHour="18.589695473947344"/>
  <flow id="JF103875" begin="60" fromJunction="J0" toJunction="J3" end="120" vehsPerHour="33.94224101035753"/>
  <flow id="JF103876" begin="60" fromJunction="J0" toJunction="J4" end="120" vehsPerHour="86.48213223435997"/>
  <flow id="JF103877" begin="60" fromJunction="J3" toJunction="J0" end="120" vehsPerHour="15.88012598393889"/>
  <flow id="JF103878" begin="60" fromJunction="J3" toJunction="J4" end="120" vehsPerHour="4.75743173152958"/>
  <flow id="JF103879" begin="60" fromJunction="J3" toJunction="J5" end="120" vehsPerHour="126.97267608884445"/>
  <flow id="JF103880" begin="60" fromJunction="J3" toJunction="J6" end="120" vehsPerHour="30.996432318518202"/>
  <flow id="JF103881" begin="60" fromJunction="J4" toJunction="J0" end="120" vehsPerHour="16.98362773161704"/>
  <flow id="JF103882" begin="60" fromJunction="J5" toJunction="J3" end="120" vehsPerHour="64.40174348253508"/>
  <flow id="JF103883" begin="60" fromJunction="J5" toJunction="J4" end="120" vehsPerHour="1.1085019063167971"/>
  <flow id="JF103884" begin="60" fromJunction="J5" toJunction="J6" end="120" vehsPerHour="7.424894921046124"/>
  <flow id="JF103885" begin="60" fromJunction="J5" toJunction="J7" end="120" vehsPerHour="62.55938468431416"/>
  <flow id="JF103886" begin="60" fromJunction="J6" toJunction="J0" end="120" vehsPerHour="47.75317204181778"/>
  <flow id="JF103887" begin="60" fromJunction="J6" toJunction="J3" end="120" vehsPerHour="41.84799609981578"/>
  <flow id="JF103888" begin="60" fromJunction="J6" toJunction="J4" end="120" vehsPerHour="35.79597999816466"/>
  <flow id="JF103889" begin="60" fromJunction="J6" toJunction="J5" end="120" vehsPerHour="47.3568158184473"/>
  <flow id="JF103890" begin="60" fromJunction="J6" toJunction="J7" end="120" vehsPerHour="33.105361472052564"/>
  <flow id="JF103891" begin="60" fromJunction="J7" toJunction="J0" end="120" vehsPerHour="3.8335539607225964"/>
  <flow id="JF103892" begin="60" fromJunction="J7" toJunction="J3" end="120" vehsPerHour="24.46037790601259"/>
  <flow id="JF103893" begin="60" fromJunction="J7" toJunction="J4" end="120" vehsPerHour="34.33818003616117"/>
  <flow id="JF103894" begin="60" fromJunction="J7" toJunction="J5" end="120" vehsPerHour="57.24197118129542"/>
  <flow id="JF103895" begin="120" fromJunction="J0" toJunction="J4" end="180" vehsPerHour="102.88996381757208"/>
  <flow id="JF103896" begin="120" fromJunction="J0" toJunction="J5" end="180" vehsPerHour="115.37399961362686"/>
  <flow id="JF103897" begin="120" fromJunction="J0" toJunction="J6" end="180" vehsPerHour="121.13236558706923"/>
  <flow id="JF103898" begin="120" fromJunction="J0" toJunction="J7" end="180" vehsPerHour="136.41895701917068"/>
  <flow id="JF103899" begin="120" fromJunction="J3" toJunction="J0" end="180" vehsPerHour="137.25579497431968"/>
  <flow id="JF103900" begin="120" fromJunction="J3" toJunction="J4" end="180" vehsPerHour="133.29584252134404"/>
  <flow id="JF103901" begin="120" fromJunction="J3" toJunction="J5" end="180" vehsPerHour="83.2119430960469"/>
  <flow id="JF103902" begin="120" fromJunction="J3" toJunction="J6" end="180" vehsPerHour="87.78005722086135"/>
  <flow id="JF103903" begin="120" fromJunction="J3" toJunction="J7" end="180" vehsPerHour="72.59158849705943"/>
  <flow id="JF103904" begin="120" fromJunction="J4" toJunction="J0" end="180" vehsPerHour="20.773173657503172"/>
  <flow id="JF103905" begin="120" fromJunction="J4" toJunction="J5" end="180" vehsPerHour="7.398973056531649"/>
  <flow id="JF103906" begin="120" fromJunction="J4" toJunction="J6" end="180" vehsPerHour="8.04315785035432"/>
  <flow id="JF103907" begin="120" fromJunction="J4" toJunction="J7" end="180" vehsPerHour="39.32701010451319"/>
  <flow id="JF103908" begin="120" fromJunction="J5" toJunction="J0" end="180" vehsPerHour="61.45855567827592"/>
  <flow id="JF103909" begin="120" fromJunction="J5" toJunction="J4" end="180" vehsPerHour="26.251075432052634"/>
  <flow id="JF103910" begin="120" fromJunction="J5" toJunction="J6" end="180" vehsPerHour="32.790871008135625"/>
  <flow id="JF103911" begin="120" fromJunction="J6" toJunction="J0" end="180" vehsPerHour="2.001005524687464"/>
  <flow id="JF103912" begin="120" fromJunction="J6" toJunction="J4" end="180" vehsPerHour="46.01577992982514"/>
  <flow id="JF103913" begin="120" fromJunction="J6" toJunction="J5" end="180" vehsPerHour="56.118493952276985"/>
  <flow id="JF103914" begin="120" fromJunction="J6" toJunction="J7" end="180" vehsPerHour="29.869628767602695"/>
  <flow id="JF103915" begin="120" fromJunction="J7" toJunction="J0" end="180" vehsPerHour="8.592428718017217"/>
  <flow id="JF103916" begin="120" fromJunction="J7" toJunction="J5" end="180" vehsPerHour="28.209645227901078"/>
  <flow id="JF103917" begin="180" fromJunction="J0" toJunction="J3" end="240" vehsPerHour="136.11758384914154"/>
  <flow id="JF103918" begin="180" fromJunction="J0" toJunction="J4" end="240" vehsPerHour="115.63817251161186"/>
  <flow id="JF103919" begin="180" fromJunction="J0" toJunction="J5" end="240" vehsPerHour="99.30018470867473"/>
  <flow id="JF103920" begin="180" fromJunction="J0" toJunction="J6" end="240" vehsPerHour="69.83676831806767"/>
  <flow id="JF103921" begin="180" fromJunction="J0" toJunction="J7" end="240" vehsPerHour="100.23138248140822"/>
  <flow id="JF103922" begin="180" fromJunction="J3" toJunction="J6" end="240" vehsPerHour="57.783216814571574"/>
  <flow id="JF103923" begin="180" fromJunction="J4" toJunction="J3" end="240" vehsPerHour="35.04206122483514"/>
  <flow id="JF103924" begin="180" fromJunction="J4" toJunction="J6" end="240" vehsPerHour="53.0517579104154"/>
  <flow id="JF103925" begin="180" fromJunction="J4" toJunction="J7" end="240" vehsPerHour="23.82343884448934"/>
  <flow id="JF103926" begin="180" fromJunction="J5" toJunction="J0" end="240" vehsPerHour="39.09781784650972"/>
  <flow id="JF103927" begin="180" fromJunction="J5" toJunction="J3" end="240" vehsPerHour="49.30978194065582"/>
  <flow id="JF103928" begin="180" fromJunction="J5" toJunction="J4" end="240" vehsPerHour="23.063469252236526"/>
  <flow id="JF103929" begin="180" fromJunction="J5" toJunction="J7" end="240" vehsPerHour="8.386696422466413"/>
  <flow id="JF103930" begin="180" fromJunction="J6" toJunction="J4" end="240" vehsPerHour="4.354984263498241"/>
  <flow id="JF103931" begin="180" fromJunction="J6" toJunction="J5" end="240" vehsPerHour="1.9143748488558163"/>
  <flow id="JF103932" begin="180" fromJunction="J6" toJunction="J7" end="240" vehsPerHour="13.655860050149379"/>
  <flow id="JF103933" begin="180" fromJunction="J7" toJunction="J0" end="240" vehsPerHour="12.689358657028976"/>
  <flow id="JF103934" begin="180" fromJunction="J7" toJunction="J3" end="240" vehsPerHour="18.88519274752239"/>
  <flow id="JF103935" begin="180" fromJunction="J7" toJunction="J4" end="240" vehsPerHour="25.64415251962351"/>
  <flow id="JF103936" begin="180" fromJunction="J7" toJunction="J6" end="240" vehsPerHour="7.318510990618977"/>
  <flow id="JF103937" begin="240" fromJunction="J0" toJunction="J3" end="300" vehsPerHour="7.222289765237829"/>
  <flow id="JF103938" begin="240" fromJunction="J0" toJunction="J7" end="300" vehsPerHour="17.08626655410763"/>
  <flow id="JF103939" begin="240" fromJunction="J3" toJunction="J0" end="300" vehsPerHour="22.27243784473867"/>
  <flow id="JF103940" begin="240" fromJunction="J3" toJunction="J6" end="300" vehsPerHour="59.229159240448126"/>
  <flow id="JF103941" begin="240" fromJunction="J3" toJunction="J7" end="300" vehsPerHour="35.48976651920044"/>
  <flow id="JF103942" begin="240" fromJunction="J4" toJunction="J0" end="300" vehsPerHour="2.4640126260747044"/>
  <flow id="JF103943" begin="240" fromJunction="J4" toJunction="J5" end="300" vehsPerHour="47.59593531692399"/>
  <flow id="JF103944" begin="240" fromJunction="J4" toJunction="J7" end="300" vehsPerHour="1.4740899459403014"/>
  <flow id="JF103945" begin="240" fromJunction="J5" toJunction="J3" end="300" vehsPerHour="43.319632176438795"/>
  <flow id="JF103946" begin="240" fromJunction="J5" toJunction="J4" end="300" vehsPerHour="9.011508293541628"/>
  <flow id="JF103947" begin="240" fromJunction="J5" toJunction="J6" end="300" vehsPerHour="60.934909526554456"/>
  <flow id="JF103948" begin="240" fromJunction="J5" toJunction="J7" end="300" vehsPerHour="7.8425421621338955"/>
  <flow id="JF103949" begin="240" fromJunction="J6" toJunction="J4" end="300" vehsPerHour="68.14937946887076"/>
  <flow id="JF103950" begin="240" fromJunction="J6" toJunction="J5" end="300" vehsPerHour="2.2430736207001685"/>
  <flow id="JF103951" begin="240" fromJunction="J7" toJunction="J0" end="300" vehsPerHour="48.31191912820195"/>
  <flow id="JF103952" begin="240" fromJunction="J7" toJunction="J5" end="300" vehsPerHour="53.65324762886921"/>
  <flow id="JF103953" begin="240" fromJunction="J7" toJunction="J6" end="300" vehsPerHour="37.7892179867613"/>
  <flow id="JF103954" begin="300" fromJunction="J0" toJunction="J4" end="360" vehsPerHour="48.82237885993187"/>
  <flow id="JF103955" begin="300" fromJunction="J0" toJunction="J5" end="360" vehsPerHour="84.94080878334016"/>
  <flow id="JF103956" begin="300" fromJunction="J0" toJunction="J6" end="360" vehsPerHour="123.53432191071859"/>
  <flow id="JF103957" begin="300" fromJunction="J0" toJunction="J7" end="360" vehsPerHour="77.67185842024477"/>
  <flow id="JF103958" begin="300" fromJunction="J3" toJunction="J4" end="360" vehsPerHour="28.14082858107781"/>
  <flow id="JF103959" begin="300" fromJunction="J3" toJunction="J5" end="360" vehsPerHour="46.44924131335755"/>
  <flow id="JF103960" begin="300" fromJunction="J3" toJunction="J7" end="360" vehsPerHour="76.3180199124684"/>
  <flow id="JF103961" begin="300" fromJunction="J4" toJunction="J0" end="360" vehsPerHour="8.308893167712808"/>
  <flow id="JF103962" begin="300" fromJunction="J4" toJunction="J6" end="360" vehsPerHour="2.3695415252349705"/>
  <flow id="JF103963" begin="300" fromJunction="J4" toJunction="J7" end="360" vehsPerHour="34.242238390593926"/>
  <flow id="JF103964" begin="300" fromJunction="J5" toJunction="J0" end="360" vehsPerHour="15.090287686047356"/>
  <flow id="JF103965" begin="300" fromJunction="J5" toJunction="J4" end="360" vehsPerHour="22.827009777132595"/>
  <flow id="JF103966" begin="300" fromJunction="J5" toJunction="J6" end="360" vehsPerHour="22.484493614265205"/>
  <flow id="JF103967" begin="300" fromJunction="J5" toJunction="J7" end="360" vehsPerHour="15.018887506201231"/>
  <flow id="JF103968" begin="300" fromJunction="J6" toJunction="J0" end="360" vehsPerHour="52.638848545109454"/>
  <flow id="JF103969" begin="300" fromJunction="J6" toJunction="J3" end="360" vehsPerHour="6.666280259765876"/>
  <flow id="JF103970" begin="300" fromJunction="J6" toJunction="J4" end="360" vehsPerHour="32.814566402971145"/>
  <flow id="JF103971" begin="300" fromJunction="J6" toJunction="J5" end="360" vehsPerHour="44.75945962987223"/>
  <flow id="JF103972" begin="300" fromJunction="J6" toJunction="J7" end="360" vehsPerHour="62.52124300926676"/>
  <flow id="JF103973" begin="300" fromJunction="J7" toJunction="J3" end="360" vehsPerHour="54.363270816584304"/>
  <flow id="JF103974" begin="300" fromJunction="J7" toJunction="J4" end="360" vehsPerHour="2.2837827830233683"/>
  <flow id="JF103975" begin="300" fromJunction="J7" toJunction="J6" end="360" vehsPerHour="22.295817728417525"/>
  <flow id="JF103976" begin="360" fromJunction="J0" toJunction="J3" end="420" vehsPerHour="51.59999176230835"/>
  <flow id="JF103977" begin="360" fromJunction="J0" toJunction="J5" end="420" vehsPerHour="127.89479294860969"/>
  <flow id="JF103978" begin="360" fromJunction="J0" toJunction="J6" end="420" vehsPerHour="46.54018190631315"/>
  <flow id="JF103979" begin="360" fromJunction="J0" toJunction="J7" end="420" vehsPerHour="77.0820752623995"/>
  <flow id="JF103980" begin="360" fromJunction="J3" toJunction="J0" end="420" vehsPerHour="63.32986423103793"/>
  <flow id="JF103981" begin="360" fromJunction="J3" toJunction="J4" end="420" vehsPerHour="68.84433760389881"/>
  <flow id="JF103982" begin="360" fromJunction="J3" toJunction="J6" end="420" vehsPerHour="79.123691611252"/>
  <flow id="JF103983" begin="360" fromJunction="J3" toJunction="J7" end="420" vehsPerHour="37.50493468673114"/>
  <flow id="JF103984" begin="360" fromJunction="J4" toJunction="J0" end="420" vehsPerHour="30.052423166630543"/>
  <flow id="JF103985" begin="360" fromJunction="J4" toJunction="J3" end="420" vehsPerHour="13.129245574999207"/>
  <flow id="JF103986" begin="360" fromJunction="J4" toJunction="J6" end="420" vehsPerHour="60.99464353668685"/>
  <flow id="JF103987" begin="360" fromJunction="J4" toJunction="J7" end="420" vehsPerHour="32.69400160406796"/>
  <flow id="JF103988" begin="360" fromJunction="J5" toJunction="J0" end="420" vehsPerHour="47.31174109728687"/>
  <flow id="JF103989" begin="360" fromJunction="J5" toJunction="J3" end="420" vehsPerHour="6.184298585031915"/>
  <flow id="JF103990" begin="360" fromJunction="J5" toJunction="J6" end="420" vehsPerHour="14.99793997201475"/>
  <flow id="JF103991" begin="360" fromJunction="J6" toJunction="J4" end="420" vehsPerHour="40.29054250601455"/>
  <flow id="JF103992" begin="360" fromJunction="J6" toJunction="J5" end="420" vehsPerHour="60.07627108076727"/>
  <flow id="JF103993" begin="360" fromJunction="J6" toJunction="J7" end="420" vehsPerHour="23.984569231262252"/>
  <flow id="JF103994" begin="360" fromJunction="J7" toJunction="J0" end="420" vehsPerHour="29.303453888710187"/>
  <flow id="JF103995" begin="360" fromJunction="J7" toJunction="J3" end="420" vehsPerHour="6.016471434716499"/>
  <flow id="JF103996" begin="360" fromJunction="J7" toJunction="J4" end="420" vehsPerHour="42.47097578699239"/>
  <flow id="JF103997" begin="360" fromJunction="J7" toJunction="J5" end="420" vehsPerHour="64.45755058511504"/>
  <flow id="JF103998" begin="360" fromJunction="J7" toJunction="J6" end="420" vehsPerHour="18.376069027920913"/>
  <flow id="JF103999" begin="420" fromJunction="J0" toJunction="J3" end="480" vehsPerHour="68.10244845805107"/>
  <flow id="JF104000" begin="420" fromJunction="J0" toJunction="J4" end="480" vehsPerHour="91.35491125410975"/>
  <flow id="JF104001" begin="420" fromJunction="J0" toJunction="J6" end="480" vehsPerHour="119.71834498482188"/>
  <flow id="JF104002" begin="420" fromJunction="J0" toJunction="J7" end="480" vehsPerHour="44.24758593973793"/>
  <flow id="JF104003" begin="420" fromJunction="J3" toJunction="J0" end="480" vehsPerHour="12.378348428571663"/>
  <flow id="JF104004" begin="420" fromJunction="J3" toJunction="J5" end="480" vehsPerHour="87.75137584367481"/>
  <flow id="JF104005" begin="420" fromJunction="J3" toJunction="J6" end="480" vehsPerHour="106.34403527933597"/>
  <flow id="JF104006" begin="420" fromJunction="J4" toJunction="J0" end="480" vehsPerHour="49.488557569118676"/>
  <flow id="JF104007" begin="420" fromJunction="J4" toJunction="J5" end="480" vehsPerHour="38.04688974250149"/>
  <flow id="JF104008" begin="420" fromJunction="J4" toJunction="J6" end="480" vehsPerHour="48.64695590588772"/>
  <flow id="JF104009" begin="420" fromJunction="J4" toJunction="J7" end="480" vehsPerHour="59.695851011585944"/>
  <flow id="JF104010" begin="420" fromJunction="J5" toJunction="J3" end="480" vehsPerHour="7.389455149878857"/>
  <flow id="JF104011" begin="420" fromJunction="J5" toJunction="J4" end="480" vehsPerHour="23.43322564242751"/>
  <flow id="JF104012" begin="420" fromJunction="J5" toJunction="J6" end="480" vehsPerHour="44.75925895425114"/>
  <flow id="JF104013" begin="420" fromJunction="J5" toJunction="J7" end="480" vehsPerHour="0.3123695778785987"/>
  <flow id="JF104014" begin="420" fromJunction="J6" toJunction="J0" end="480" vehsPerHour="21.102870676070143"/>
  <flow id="JF104015" begin="420" fromJunction="J6" toJunction="J3" end="480" vehsPerHour="21.787049650702283"/>
  <flow id="JF104016" begin="420" fromJunction="J6" toJunction="J4" end="480" vehsPerHour="51.18421152122827"/>
  <flow id="JF104017" begin="420" fromJunction="J6" toJunction="J5" end="480" vehsPerHour="17.216553845659867"/>
  <flow id="JF104018" begin="420" fromJunction="J7" toJunction="J0" end="480" vehsPerHour="34.322501370582806"/>
  <flow id="JF104019" begin="420" fromJunction="J7" toJunction="J5" end="480" vehsPerHour="62.92705160957785"/>
  <flow id="JF104020" begin="420" fromJunction="J7" toJunction="J6" end="480" vehsPerHour="47.60875952850965"/>
  <flow id="JF104021" begin="480" fromJunction="J0" toJunction="J3" end="540" vehsPerHour="21.541286145722157"/>
  <flow id="JF104022" begin="480" fromJunction="J0" toJunction="J5" end="540" vehsPerHour="67.27283285340178"/>
  <flow id="JF104023" begin="480" fromJunction="J3" toJunction="J0" end="540" vehsPerHour="24.740039968240538"/>
  <flow id="JF104024" begin="480" fromJunction="J3" toJunction="J4" end="540" vehsPerHour="103.90858747765627"/>
  <flow id="JF104025" begin="480" fromJunction="J3" toJunction="J6" end="540" vehsPerHour="112.06518241876577"/>
  <flow id="JF104026" begin="480" fromJunction="J3" toJunction="J7" end="540" vehsPerHour="26.91392585784812"/>
  <flow id="JF104027" begin="480" fromJunction="J4" toJunction="J0" end="540" vehsPerHour="34.67208288623224"/>
  <flow id="JF104028" begin="480" fromJunction="J4" toJunction="J3" end="540" vehsPerHour="9.832516240892282"/>
  <flow id="JF104029" begin="480" fromJunction="J4" toJunction="J7" end="540" vehsPerHour="51.804759014503624"/>
  <flow id="JF104030" begin="480" fromJunction="J5" toJunction="J0" end="540" vehsPerHour="25.240349362518256"/>
  <flow id="JF104031" begin="480" fromJunction="J5" toJunction="J4" end="540" vehsPerHour="56.29720037031239"/>
  <flow id="JF104032" begin="480" fromJunction="J5" toJunction="J6" end="540" vehsPerHour="59.62358229981535"/>
  <flow id="JF104033" begin="480" fromJunction="J5" toJunction="J7" end="540" vehsPerHour="12.940058031485314"/>
  <flow id="JF104034" begin="480" fromJunction="J6" toJunction="J3" end="540" vehsPerHour="48.972013910176784"/>
  <flow id="JF104035" begin="480" fromJunction="J6" toJunction="J5" end="540" vehsPerHour="46.6564625506465"/>
  <flow id="JF104036" begin="480" fromJunction="J6" toJunction="J7" end="540" vehsPerHour="20.038489394165126"/>
  <flow id="JF104037" begin="480" fromJunction="J7" toJunction="J0" end="540" vehsPerHour="22.001532537347515"/>
  <flow id="JF104038" begin="480" fromJunction="J7" toJunction="J3" end="540" vehsPerHour="48.896546272200624"/>
  <flow id="JF104039" begin="480" fromJunction="J7" toJunction="J4" end="540" vehsPerHour="38.35849748992624"/>
  <flow id="JF104040" begin="480" fromJunction="J7" toJunction="J6" end="540" vehsPerHour="50.799170517360665"/>
  <flow id="JF104041" begin="540" fromJunction="J0" toJunction="J3" end="600" vehsPerHour="120.10061701731699"/>
  <flow id="JF104042" begin="540" fromJunction="J0" toJunction="J4" end="600" vehsPerHour="94.69080815822049"/>
  <flow id="JF104043" begin="540" fromJunction="J0" toJunction="J6" end="600" vehsPerHour="15.619127576884717"/>
  <flow id="JF104044" begin="540" fromJunction="J0" toJunction="J7" end="600" vehsPerHour="63.705727282533104"/>
  <flow id="JF104045" begin="540" fromJunction="J3" toJunction="J0" end="600" vehsPerHour="76.90089444276798"/>
  <flow id="JF104046" begin="540" fromJunction="J3" toJunction="J4" end="600" vehsPerHour="45.28302654300573"/>
  <flow id="JF104047" begin="540" fromJunction="J3" toJunction="J5" end="600" vehsPerHour="41.26106789992234"/>
  <flow id="JF104048" begin="540" fromJunction="J4" toJunction="J0" end="600" vehsPerHour="14.397743797863093"/>
  <flow id="JF104049" begin="540" fromJunction="J4" toJunction="J3" end="600" vehsPerHour="11.94164157297077"/>
  <flow id="JF104050" begin="540" fromJunction="J4" toJunction="J5" end="600" vehsPerHour="58.68029489736083"/>
  <flow id="JF104051" begin="540" fromJunction="J5" toJunction="J6" end="600" vehsPerHour="54.614970707703165"/>
  <flow id="JF104052" begin="540" fromJunction="J5" toJunction="J7" end="600" vehsPerHour="12.771098608953205"/>
  <flow id="JF104053" begin="540" fromJunction="J6" toJunction="J0" end="600" vehsPerHour="55.47617919501226"/>
  <flow id="JF104054" begin="540" fromJunction="J6" toJunction="J3" end="600" vehsPerHour="6.196573449439286"/>
  <flow id="JF104055" begin="540" fromJunction="J6" toJunction="J7" end="600" vehsPerHour="40.422837506627936"/>
  <flow id="JF104056" begin="540" fromJunction="J7" toJunction="J0" end="600" vehsPerHour="65.20060121773639"/>
  <flow id="JF104057" begin="540" fromJunction="J7" toJunction="J3" end="600" vehsPerHour="56.25201171518685"/>
  <flow id="JF104058" begin="540" fromJunction="J7" toJunction="J4" end="600" vehsPerHour="19.97689873724826"/>
  <flow id="JF104059" begin="540" fromJunction="J7" toJunction="J5" end="600" vehsPerHour="56.436072895578555"/>
  <flow id="JF104060" begin="540" fromJunction="J7" toJunction="J6" end="600" vehsPerHour="55.22691648242654"/>
  <flow id="JF104061" begin="600" fromJunction="J0" toJunction="J3" end="660" vehsPerHour="118.29211756145966"/>
  <flow id="JF104062" begin="600" fromJunction="J0" toJunction="J5" end="660" vehsPerHour="80.65667731474235"/>
  <flow id="JF104063" begin="600" fromJunction="J0" toJunction="J6" end="660" vehsPerHour="40.17342278692194"/>
  <flow id="JF104064" begin="600" fromJunction="J0" toJunction="J7" end="660" vehsPerHour="123.77849962326152"/>
  <flow id="JF104065" begin="600" fromJunction="J3" toJunction="J0" end="660" vehsPerHour="115.58197809848971"/>
  <flow id="JF104066" begin="600" fromJunction="J3" toJunction="J4" end="660" vehsPerHour="15.024148839478718"/>
  <flow id="JF104067" begin="600" fromJunction="J3" toJunction="J5" end="660" vehsPerHour="61.33009857078243"/>
  <flow id="JF104068" begin="600" fromJunction="J3" toJunction="J6" end="660" vehsPerHour="26.129978521372493"/>
  <flow id="JF104069" begin="600" fromJunction="J3" toJunction="J7" end="660" vehsPerHour="43.19918408960386"/>
  <flow id="JF104070" begin="600" fromJunction="J4" toJunction="J0" end="660" vehsPerHour="17.58602274509524"/>
  <flow id="JF104071" begin="600" fromJunction="J4" toJunction="J5" end="660" vehsPerHour="49.40183153809007"/>
  <flow id="JF104072" begin="600" fromJunction="J4" toJunction="J6" end="660" vehsPerHour="19.826928151936222"/>
  <flow id="JF104073" begin="600" fromJunction="J5" toJunction="J0" end="660" vehsPerHour="5.6098618229832145"/>
  <flow id="JF104074" begin="600" fromJunction="J5" toJunction="J6" end="660" vehsPerHour="42.04120618085801"/>
  <flow id="JF104075" begin="600" fromJunction="J5" toJunction="J7" end="660" vehsPerHour="24.867990784997957"/>
  <flow id="JF104076" begin="600" fromJunction="J6" toJunction="J0" end="660" vehsPerHour="32.350170834459064"/>
  <flow id="JF104077" begin="600" fromJunction="J6" toJunction="J3" end="660" vehsPerHour="9.686297782154824"/>
  <flow id="JF104078" begin="600" fromJunction="J6" toJunction="J4" end="660" vehsPerHour="1.886480233451969"/>
  <flow id="JF104079" begin="600" fromJunction="J6" toJunction="J5" end="660" vehsPerHour="23.306660120763055"/>
  <flow id="JF104080" begin="600" fromJunction="J6" toJunction="J7" end="660" vehsPerHour="18.327371974329967"/>
  <flow id="JF104081" begin="600" fromJunction="J7" toJunction="J0" end="660" vehsPerHour="41.56470734504697"/>
  <flow id="JF104082" begin="600" fromJunction="J7" toJunction="J3" end="660" vehsPerHour="11.470653202278925"/>
  <flow id="JF104083" begin="660" fromJunction="J0" toJunction="J3" end="720" vehsPerHour="115.07728818378573"/>
  <flow id="JF104084" begin="660" fromJunction="J0" toJunction="J4" end="720" vehsPerHour="103.00267777249724"/>
  <flow id="JF104085" begin="660" fromJunction="J0" toJunction="J5" end="720" vehsPerHour="27.17109057749117"/>
  <flow id="JF104086" begin="660" fromJunction="J0" toJunction="J6" end="720" vehsPerHour="9.786177074157724"/>
  <flow id="JF104087" begin="660" fromJunction="J0" toJunction="J7" end="720" vehsPerHour="70.3280335771915"/>
  <flow id="JF104088" begin="660" fromJunction="J3" toJunction="J4" end="720" vehsPerHour="60.82582907337565"/>
  <flow id="JF104089" begin="660" fromJunction="J3" toJunction="J5" end="720" vehsPerHour="123.38818429768439"/>
  <flow id="JF104090" begin="660" fromJunction="J3" toJunction="J6" end="720" vehsPerHour="94.53521145748354"/>
  <flow id="JF104091" begin="660" fromJunction="J3" toJunction="J7" end="720" vehsPerHour="106.71834474598535"/>
  <flow id="JF104092" begin="660" fromJunction="J4" toJunction="J0" end="720" vehsPerHour="8.424510100605941"/>
  <flow id="JF104093" begin="660" fromJunction="J4" toJunction="J3" end="720" vehsPerHour="39.95240680988058"/>
  <flow id="JF104094" begin="660" fromJunction="J4" toJunction="J5" end="720" vehsPerHour="61.38646888886853"/>
  <flow id="JF104095" begin="660" fromJunction="J4" toJunction="J6" end="720" vehsPerHour="17.369511199435706"/>
  <flow id="JF104096" begin="660" fromJunction="J5" toJunction="J0" end="720" vehsPerHour="42.023045221885454"/>
  <flow id="JF104097" begin="660" fromJunction="J5" toJunction="J3" end="720" vehsPerHour="12.880820340989073"/>
  <flow id="JF104098" begin="660" fromJunction="J5" toJunction="J4" end="720" vehsPerHour="35.63944497133965"/>
  <flow id="JF104099" begin="660" fromJunction="J5" toJunction="J6" end="720" vehsPerHour="39.98304055238781"/>
  <flow id="JF104100" begin="660" fromJunction="J6" toJunction="J0" end="720" vehsPerHour="4.4760871479519695"/>
  <flow id="JF104101" begin="660" fromJunction="J6" toJunction="J5" end="720" vehsPerHour="20.662596393848233"/>
  <flow id="JF104102" begin="660" fromJunction="J6" toJunction="J7" end="720" vehsPerHour="65.52106951537407"/>
  <flow id="JF104103" begin="660" fromJunction="J7" toJunction="J0" end="720" vehsPerHour="20.19378287886459"/>
  <flow id="JF104104" begin="660" fromJunction="J7" toJunction="J4" end="720" vehsPerHour="23.445201027590603"/>
  <flow id="JF104105" begin="660" fromJunction="J7" toJunction="J5" end="720" vehsPerHour="56.08779209621116"/>
  <flow id="JF104106" begin="720" fromJunction="J0" toJunction="J3" end="780" vehsPerHour="75.33647776038129"/>
  <flow id="JF104107" begin="720" fromJunction="J0" toJunction="J5" end="780" vehsPerHour="46.021578346298384"/>
  <flow id="JF104108" begin="720" fromJunction="J0" toJunction="J6" end="780" vehsPerHour="112.4662994175201"/>
  <flow id="JF104109" begin="720" fromJunction="J3" toJunction="J0" end="780" vehsPerHour="57.6381952372054"/>
  <flow id="JF104110" begin="720" fromJunction="J3" toJunction="J4" end="780" vehsPerHour="59.750861327246106"/>
  <flow id="JF104111" begin="720" fromJunction="J3" toJunction="J5" end="780" vehsPerHour="16.84107011100783"/>
  <flow id="JF104112" begin="720" fromJunction="J3" toJunction="J6" end="780" vehsPerHour="27.377761189218777"/>
  <flow id="JF104113" begin="720" fromJunction="J3" toJunction="J7" end="780" vehsPerHour="36.018672492068"/>
  <flow id="JF104114" begin="720" fromJunction="J4" toJunction="J3" end="780" vehsPerHour="29.65607774331429"/>
  <flow id="JF104115" begin="720" fromJunction="J4" toJunction="J5" end="780" vehsPerHour="31.3876867395348"/>
  <flow id="JF104116" begin="720" fromJunction="J4" toJunction="J6" end="780" vehsPerHour="56.66325046424888"/>
  <flow id="JF104117" begin="720" fromJunction="J4" toJunction="J7" end="780" vehsPerHour="43.78911581379866"/>
  <flow id="JF104118" begin="720" fromJunction="J5" toJunction="J0" end="780" vehsPerHour="33.88348138403109"/>
  <flow id="JF104119" begin="720" fromJunction="J5" toJunction="J3" end="780" vehsPerHour="6.399706239383351"/>
  <flow id="JF104120" begin="720" fromJunction="J5" toJunction="J4" end="780" vehsPerHour="47.11887662888577"/>