<?xml version="1.0" encoding="UTF-8"?>
<routes xmlns:xsi="http://www.w3.org/2001/XMLSchema-instance" xsi:noNamespaceSchemaLocation="http://sumo.dlr.de/xsd/routes_file.xsd">
  <flow id="JF100206" begin="0" fromJunction="J0" toJunction="J4" end="60" vehsPerHour="106.53288610369846"/>
  <flow id="JF100207" begin="0" fromJunction="J0" toJunction="J5" end="60" vehsPerHour="100.97710305601792"/>
  <flow id="JF100208" begin="0" fromJunction="J0" toJunction="J7" end="60" vehsPerHour="137.35645578640788"/>
  <flow id="JF100209" begin="0" fromJunction="J3" toJunction="J0" end="60" vehsPerHour="36.234398121399856"/>
  <flow id="JF100210" begin="0" fromJunction="J3" toJunction="J4" end="60" vehsPerHour="122.50103522226337"/>
  <flow id="JF100211" begin="0" fromJunction="J3" toJunction="J5" end="60" vehsPerHour="126.2471435074962"/>
  <flow id="JF100212" begin="0" fromJunction="J3" toJunction="J7" end="60" vehsPerHour="108.47423762108305"/>
  <flow id="JF100213" begin="0" fromJunction="J4" toJunction="J3" end="60" vehsPerHour="12.094155531125425"/>
  <flow id="JF100214" begin="0" fromJunction="J4" toJunction="J6" end="60" vehsPerHour="68.07541001746831"/>
  <flow id="JF100215" begin="0" fromJunction="J4" toJunction="J7" end="60" vehsPerHour="38.042454137816335"/>
  <flow id="JF100216" begin="0" fromJunction="J5" toJunction="J0" end="60" vehsPerHour="68.03144959338631"/>
  <flow id="JF100217" begin="0" fromJunction="J5" toJunction="J3" end="60" vehsPerHour="31.507108230623214"/>
  <flow id="JF100218" begin="0" fromJunction="J5" toJunction="J4" end="60" vehsPerHour="38.71116554305672"/>
  <flow id="JF100219" begin="0" fromJunction="J5" toJunction="J7" end="60" vehsPerHour="2.4414588641405275"/>
  <flow id="JF100220" begin="0" fromJunction="J6" toJunction="J0" end="60" vehsPerHour="26.84241572102058"/>
  <flow id="JF100221" begin="0" fromJunction="J6" toJunction="J4" end="60" vehsPerHour="0.9344592720032685"/>
  <flow id="JF100222" begin="0" fromJunction="J6" toJunction="J7" end="60" vehsPerHour="14.63039655013236"/>
  <flow id="JF100223" begin="0" fromJunction="J7" toJunction="J0" end="60" vehsPerHour="48.19555637215692"/>
  <flow id="JF100224" begin="0" fromJunction="J7" toJunction="J4" end="60" vehsPerHour="10.762906141648369"/>
  <flow id="JF100225" begin="0" fromJunction="J7" toJunction="J6" end="60" vehsPerHour="18.308617900929427"/>
  <flow id="JF100226" begin="60" fromJunction="J0" toJunction="J3" end="120" vehsPerHour="106.09031481910212"/>
  <flow id="JF100227" begin="60" fromJunction="J0" toJunction="J4" end="120" vehsPerHour="71.16995506731298"/>
  <flow id="JF100228" begin="60" fromJunction="J0" toJunction="J6" end="120" vehsPerHour="91.04761561739872"/>
  <flow id="JF100229" begin="60" fromJunction="J3" toJunction="J0" end="120" vehsPerHour="41.32122435212456"/>
  <flow id="JF100230" begin="60" fromJunction="J3" toJunction="J4" end="120" vehsPerHour="47.285809223125035"/>
  <flow id="JF100231" begin="60" fromJunction="J3" toJunction="J5" end="120" vehsPerHour="126.82393753564489"/>
  <flow id="JF100232" begin="60" fromJunction="J3" toJunction="J6" end="120" vehsPerHour="120.34887003856204"/>
  <flow id="JF100233" begin="60" fromJunction="J3" toJunction="J7" end="120" vehsPerHour="0.37073281876307185"/>
  <flow id="JF100234" begin="60" fromJunction="J4" toJunction="J0" end="120" vehsPerHour="18.87035108738724"/>
  <flow id="JF100235" begin="60" fromJunction="J4" toJunction="J7" end="120" vehsPerHour="32.827331896067435"/>
  <flow id="JF100236" begin="60" fromJunction="J5" toJunction="J0" end="120" vehsPerHour="41.8729252993498"/>
  <flow id="JF100237" begin="60" fromJunction="J5" toJunction="J4" end="120" vehsPerHour="27.202152092065692"/>
  <flow id="JF100238" begin="60" fromJunction="J5" toJunction="J6" end="120" vehsPerHour="16.022668071847512"/>
  <flow id="JF100239" begin="60" fromJunction="J5" toJunction="J7" end="120" vehsPerHour="45.5015094098088"/>
  <flow id="JF100240" begin="60" fromJunction="J6" toJunction="J3" end="120" vehsPerHour="27.829501773709126"/>
  <flow id="JF100241" begin="60" fromJunction="J6" toJunction="J5" end="120" vehsPerHour="23.20523047438285"/>
  <flow id="JF100242" begin="60" fromJunction="J7" toJunction="J0" end="120" vehsPerHour="5.9321529798843455"/>
  <flow id="JF100243" begin="60" fromJunction="J7" toJunction="J4" end="120" vehsPerHour="49.483902590159865"/>
  <flow id="JF100244" begin="60" fromJunction="J7" toJunction="J5" end="120" vehsPerHour="54.83087101333359"/>
  <flow id="JF100245" begin="60" fromJunction="J7" toJunction="J6" end="120" vehsPerHour="5.991150583291003"/>
  <flow id="JF100246" begin="120" fromJunction="J0" toJunction="J3" end="180" vehsPerHour="130.31796534650903"/>
  <flow id="JF100247" begin="120" fromJunction="J0" toJunction="J4" end="180" vehsPerHour="133.48818875522113"/>
  <flow id="JF100248" begin="120" fromJunction="J0" toJunction="J5" end="180" vehsPerHour="99.49736943078786"/>
  <flow id="JF100249" begin="120" fromJunction="J0" toJunction="J6" end="180" vehsPerHour="30.361561556747354"/>
  <flow id="JF100250" begin="120" fromJunction="J0" toJunction="J7" end="180" vehsPerHour="25.676207521344367"/>
  <flow id="JF100251" begin="120" fromJunction="J3" toJunction="J0" end="180" vehsPerHour="48.21832148968275"/>
  <flow id="JF100252" begin="120" fromJunction="J3" toJunction="J4" end="180" vehsPerHour="46.12689511643533"/>
  <flow id="JF100253" begin="120" fromJunction="J3" toJunction="J5" end="180" vehsPerHour="59.01453849886469"/>
  <flow id="JF100254" begin="120" fromJunction="J3" toJunction="J6" end="180" vehsPerHour="61.8783458723885"/>
  <flow id="JF100255" begin="120" fromJunction="J3" toJunction="J7" end="180" vehsPerHour="26.054566658625703"/>
  <flow id="JF100256" begin="120" fromJunction="J4" toJunction="J0" end="180" vehsPerHour="42.19965176901825"/>
  <flow id="JF100257" begin="120" fromJunction="J4" toJunction="J5" end="180" vehsPerHour="45.06866558995104"/>
  <flow id="JF100258" begin="120" fromJunction="J4" toJunction="J6" end="180" vehsPerHour="4.884888452538268"/>
  <flow id="JF100259" begin="120" fromJunction="J4" toJunction="J7" end="180" vehsPerHour="1.0904637514673505"/>
  <flow id="JF100260" begin="120" fromJunction="J5" toJunction="J0" end="180" vehsPerHour="3.87211937329405"/>
  <flow id="JF100261" begin="120" fromJunction="J5" toJunction="J3" end="180" vehsPerHour="67.58883400187852"/>
  <flow id="JF100262" begin="120" fromJunction="J5" toJunction="J4" end="180" vehsPerHour="54.173046640740374"/>
  <flow id="JF100263" begin="120" fromJunction="J5" toJunction="J7" end="180" vehsPerHour="13.151897444823703"/>
  <flow id="JF100264" begin="120" fromJunction="J6" toJunction="J0" end="180" vehsPerHour="55.41113433730869"/>
  <flow id="JF100265" begin="120" fromJunction="J6" toJunction="J4" end="180" vehsPerHour="24.591003844844867"/>
  <flow id="JF100266" begin="120" fromJunction="J6" toJunction="J5" end="180" vehsPerHour="46.36394460195257"/>
  <flow id="JF100267" begin="120" fromJunction="J6" toJunction="J7" end="180" vehsPerHour="60.02202908574006"/>
  <flow id="JF100268" begin="120" fromJunction="J7" toJunction="J3" end="180" vehsPerHour="58.49874655224835"/>
  <flow id="JF100269" begin="120" fromJunction="J7" toJunction="J5" end="180" vehsPerHour="17.792740718455093"/>
  <flow id="JF100270" begin="120" fromJunction="J7" toJunction="J6" end="180" vehsPerHour="51.11272510296677"/>
  <flow id="JF100271" begin="180" fromJunction="J0" toJunction="J3" end="240" vehsPerHour="68.36948217619339"/>
  <flow id="JF100272" begin="180" fromJunction="J0" toJunction="J4" end="240" vehsPerHour="38.33670819387529"/>
  <flow id="JF100273" begin="180" fromJunction="J0" toJunction="J6" end="240" vehsPerHour="19.996008641404888"/>
  <flow id="JF100274" begin="180" fromJunction="J0" toJunction="J7" end="240" vehsPerHour="131.73389642734443"/>
  <flow id="JF100275" begin="180" fromJunction="J3" toJunction="J0" end="240" vehsPerHour="15.67156811393414"/>
  <flow id="JF100276" begin="180" fromJunction="J3" toJunction="J4" end="240" vehsPerHour="67.20036382562282"/>
  <flow id="JF100277" begin="180" fromJunction="J3" toJunction="J5" end="240" vehsPerHour="35.925289973178785"/>
  <flow id="JF100278" begin="180" fromJunction="J3" toJunction="J7" end="240" vehsPerHour="87.76075303492102"/>
  <flow id="JF100279" begin="180" fromJunction="J4" toJunction="J0" end="240" vehsPerHour="53.996758282536554"/>
  <flow id="JF100280" begin="180" fromJunction="J4" toJunction="J5" end="240" vehsPerHour="33.31624594839638"/>
  <flow id="JF100281" begin="180" fromJunction="J4" toJunction="J6" end="240" vehsPerHour="55.08133035944282"/>
  <flow id="JF100282" begin="180" fromJunction="J4" toJunction="J7" end="240" vehsPerHour="22.267033120128723"/>
  <flow id="JF100283" begin="180" fromJunction="J5" toJunction="J3" end="240" vehsPerHour="36.26867273811819"/>
  <flow id="JF100284" begin="180" fromJunction="J5" toJunction="J6" end="240" vehsPerHour="13.758069187622363"/>
  <flow id="JF100285" begin="180" fromJunction="J6" toJunction="J0" end="240" vehsPerHour="14.246668514808745"/>
  <flow id="JF100286" begin="180" fromJunction="J6" toJunction="J3" end="240" vehsPerHour="42.27273841442249"/>
  <flow id="JF100287" begin="180" fromJunction="J6" toJunction="J4" end="240" vehsPerHour="42.80847590207991"/>
  <flow id="JF100288" begin="180" fromJunction="J6" toJunction="J5" end="240" vehsPerHour="47.212665182171904"/>
  <flow id="JF100289" begin="180" fromJunction="J6" toJunction="J7" end="240" vehsPerHour="1.2933848913729145"/>
  <flow id="JF100290" begin="180" fromJunction="J7" toJunction="J0" end="240" vehsPerHour="22.56419261313032"/>
  <flow id="JF100291" begin="180" fromJunction="J7" toJunction="J5" end="240" vehsPerHour="17.504437006405297"/>
  <flow id="JF100292" begin="180" fromJunction="J7" toJunction="J6" end="240" vehsPerHour="24.700629357487824"/>
  <flow id="JF100293" begin="240" fromJunction="J0" toJunction="J3" end="300" vehsPerHour="128.78157325112662"/>
  <flow id="JF100294" begin="240" fromJunction="J0" toJunction="J5" end="300" vehsPerHour="134.30792246942917"/>
  <flow id="JF100295" begin="240" fromJunction="J0" toJunction="J7" end="300" vehsPerHour="74.24311814664978"/>
  <flow id="JF100296" begin="240" fromJunction="J3" toJunction="J5" end="300" vehsPerHour="70.61060127494646"/>
  <flow id="JF100297" begin="240" fromJunction="J3" toJunction="J7" end="300" vehsPerHour="21.1148818551698"/>
  <flow id="JF100298" begin="240" fromJunction="J4" toJunction="J0" end="300" vehsPerHour="43.36782839020679"/>
  <flow id="JF100299" begin="240" fromJunction="J4" toJunction="J3" end="300" vehsPerHour="22.715826066562204"/>
  <flow id="JF100300" begin="240" fromJunction="J4" toJunction="J6" end="300" vehsPerHour="3.3696229458556717"/>
  <flow id="JF100301" begin="240" fromJunction="J4" toJunction="J7" end="300" vehsPerHour="9.620374216859622"/>
  <flow id="JF100302" begin="240" fromJunction="J5" toJunction="J0" end="300" vehsPerHour="31.70059979143882"/>
  <flow id="JF100303" begin="240" fromJunction="J5" toJunction="J3" end="300" vehsPerHour="16.667618858428582"/>
  <flow id="JF100304" begin="240" fromJunction="J5" toJunction="J4" end="300" vehsPerHour="59.01249311294451"/>
  <flow id="JF100305" begin="240" fromJunction="J5" toJunction="J6" end="300" vehsPerHour="47.96664596772338"/>
  <flow id="JF100306" begin="240" fromJunction="J6" toJunction="J0" end="300" vehsPerHour="56.82476651024893"/>
  <flow id="JF100307" begin="240" fromJunction="J6" toJunction="J4" end="300" vehsPerHour="52.208479786178316"/>
  <flow id="JF100308" begin="240" fromJunction="J6" toJunction="J5" end="300" vehsPerHour="35.392590536910824"/>
  <flow id="JF100309" begin="240" fromJunction="J6" toJunction="J7" end="300" vehsPerHour="5.070159416409416"/>
  <flow id="JF100310" begin="240" fromJunction="J7" toJunction="J0" end="300" vehsPerHour="27.02480624350535"/>
  <flow id="JF100311" begin="240" fromJunction="J7" toJunction="J3" end="300" vehsPerHour="17.724726689218997"/>
  <flow id="JF100312" begin="240" fromJunction="J7" toJunction="J4" end="300" vehsPerHour="4.814182040085254"/>
  <flow id="JF100313" begin="240" fromJunction="J7" toJunction="J5" end="300" vehsPerHour="37.21916586108794"/>
  <flow id="JF100314" begin="240" fromJunction="J7" toJunction="J6" end="300" vehsPerHour="63.216481972715684"/>
  <flow id="JF100315" begin="300" fromJunction="J0" toJunction="J4" end="360" vehsPerHour="102.53925890576679"/>
  <flow id="JF100316" begin="300" fromJunction="J0" toJunction="J5" end="360" vehsPerHour="117.40991450345805"/>
  <flow id="JF100317" begin="300" fromJunction="J0" toJunction="J6" end="360" vehsPerHour="1.718192889529923"/>
  <flow id="JF100318" begin="300" fromJunction="J0" toJunction="J7" end="360" vehsPerHour="46.61380529995978"/>
  <flow id="JF100319" begin="300" fromJunction="J3" toJunction="J0" end="360" vehsPerHour="19.64750094488612"/>
  <flow id="JF100320" begin="300" fromJunction="J3" toJunction="J4" end="360" vehsPerHour="79.54220228927892"/>
  <flow id="JF100321" begin="300" fromJunction="J3" toJunction="J5" end="360" vehsPerHour="57.883515062682186"/>
  <flow id="JF100322" begin="300" fromJunction="J3" toJunction="J6" end="360" vehsPerHour="134.10431598320253"/>
  <flow id="JF100323" begin="300" fromJunction="J3" toJunction="J7" end="360" vehsPerHour="95.83230440353253"/>
  <flow id="JF100324" begin="300" fromJunction="J4" toJunction="J0" end="360" vehsPerHour="54.218631755482704"/>
  <flow id="JF100325" begin="300" fromJunction="J4" toJunction="J3" end="360" vehsPerHour="35.36255060846546"/>
  <flow id="JF100326" begin="300" fromJunction="J4" toJunction="J5" end="360" vehsPerHour="20.51405114659403"/>
  <flow id="JF100327" begin="300" fromJunction="J4" toJunction="J7" end="360" vehsPerHour="19.637707402360338"/>
  <flow id="JF100328" begin="300" fromJunction="J5" toJunction="J0" end="360" vehsPerHour="9.591505175160117"/>
  <flow id="JF100329" begin="300" fromJunction="J5" toJunction="J3" end="360" vehsPerHour="64.7761709370897"/>
  <flow id="JF100330" begin="300" fromJunction="J5" toJunction="J6" end="360" vehsPerHour="36.13995830473561"/>
  <flow id="JF100331" begin="300" fromJunction="J5" toJunction="J7" end="360" vehsPerHour="26.93398196092624"/>
  <flow id="JF100332" begin="300" fromJunction="J6" toJunction="J0" end="360" vehsPerHour="13.817983419524147"/>
  <flow id="JF100333" begin="300" fromJunction="J6" toJunction="J3" end="360" vehsPerHour="5.2143349714519145"/>
  <flow id="JF100334" begin="300" fromJunction="J6" toJunction="J4" end="360" vehsPerHour="9.358120034274691"/>
  <flow id="JF100335" begin="300" fromJunction="J6" toJunction="J7" end="360" vehsPerHour="48.137683004032695"/>
  <flow id="JF100336" begin="300" fromJunction="J7" toJunction="J5" end="360" vehsPerHour="20.671754879413587"/>
  <flow id="JF100337" begin="360" fromJunction="J0" toJunction="J3" end="420" vehsPerHour="23.648129087774283"/>
  <flow id="JF100338" begin="360" fromJunction="J0" toJunction="J4" end="420" vehsPerHour="86.36932481168436"/>
  <flow id="JF100339" begin="360" fromJunction="J0" toJunction="J5" end="420" vehsPerHour="62.36433759735538"/>
  <flow id="JF100340" begin="360" fromJunction="J0" toJunction="J7" end="420" vehsPerHour="118.2012281091513"/>
  <flow id="JF100341" begin="360" fromJunction="J3" toJunction="J0" end="420" vehsPerHour="97.2326845596266"/>
  <flow id="JF100342" begin="360" fromJunction="J3" toJunction="J4" end="420" vehsPerHour="131.96526760987834"/>
  <flow id="JF100343" begin="360" fromJunction="J3" toJunction="J5" end="420" vehsPerHour="34.92849834333051"/>
  <flow id="JF100344" begin="360" fromJunction="J4" toJunction="J3" end="420" vehsPerHour="42.551175280538736"/>
  <flow id="JF100345" begin="360" fromJunction="J4" toJunction="J5" end="420" vehsPerHour="3.515787956572388"/>
  <flow id="JF100346" begin="360" fromJunction="J4" toJunction="J6" end="420" vehsPerHour="62.483697062571295"/>
  <flow id="JF100347" begin="360" fromJunction="J4" toJunction="J7" end="420" vehsPerHour="56.93786318273276"/>
  <flow id="JF100348" begin="360" fromJunction="J5" toJunction="J0" end="420" vehsPerHour="30.17091653030016"/>
  <flow id="JF100349" begin="360" fromJunction="J5" toJunction="J3" end="420" vehsPerHour="4.133909252403001"/>
  <flow id="JF100350" begin="360" fromJunction="J5" toJunction="J4" end="420" vehsPerHour="40.226276312934246"/>
  <flow id="JF100351" begin="360" fromJunction="J5" toJunction="J6" end="420" vehsPerHour="6.573799447371567"/>
  <flow id="JF100352" begin="360" fromJunction="J5" toJunction="J7" end="420" vehsPerHour="56.64048862997714"/>
  <flow id="JF100353" begin="360" fromJunction="J6" toJunction="J0" end="420" vehsPerHour="34.62540825804171"/>
  <flow id="JF100354" begin="360" fromJunction="J6" toJunction="J3" end="420" vehsPerHour="12.486873017587781"/>
  <flow id="JF100355" begin="360" fromJunction="J6" toJunction="J7" end="420" vehsPerHour="43.3810319288067"/>
  <flow id="JF100356" begin="360" fromJunction="J7" toJunction="J0" end="420" vehsPerHour="39.62490270713972"/>
  <flow id="JF100357" begin="360" fromJunction="J7" toJunction="J3" end="420" vehsPerHour="13.541292671038569"/>
  <flow id="JF100358" begin="360" fromJunction="J7" toJunction="J4" end="420" vehsPerHour="21.006850162785717"/>
  <flow id="JF100359" begin="360" fromJunction="J7" toJunction="J5" end="420" vehsPerHour="14.2081323305071"/>
  <flow id="JF100360" begin="420" fromJunction="J0" toJunction="J5" end="480" vehsPerHour="134.23759342888616"/>
  <flow id="JF100361" begin="420" fromJunction="J0" toJunction="J6" end="480" vehsPerHour="54.538823778916246"/>
  <flow id="JF100362" begin="420" fromJunction="J0" toJunction="J7" end="480" vehsPerHour="27.046424390870328"/>
  <flow id="JF100363" begin="420" fromJunction="J3" toJunction="J0" end="480" vehsPerHour="36.637158452864206"/>
  <flow id="JF100364" begin="420" fromJunction="J3" toJunction="J5" end="480" vehsPerHour="113.92958874150959"/>
  <flow id="JF100365" begin="420" fromJunction="J3" toJunction="J6" end="480" vehsPerHour="68.16076180254315"/>
  <flow id="JF100366" begin="420" fromJunction="J4" toJunction="J0" end="480" vehsPerHour="34.912910148942444"/>
  <flow id="JF100367" begin="420" fromJunction="J4" toJunction="J3" end="480" vehsPerHour="18.719630667479663"/>
  <flow id="JF100368" begin="420" fromJunction="J4" toJunction="J5" end="480" vehsPerHour="25.573879886277812"/>
  <flow id="JF100369" begin="420" fromJunction="J4" toJunction="J7" end="480" vehsPerHour="34.02672752776777"/>
  <flow id="JF100370" begin="420" fromJunction="J5" toJunction="J0" end="480" vehsPerHour="16.040564272055555"/>
  <flow id="JF100371" begin="420" fromJunction="J5" toJunction="J3" end="480" vehsPerHour="12.244826977752684"/>
  <flow id="JF100372" begin="420" fromJunction="J5" toJunction="J6" end="480" vehsPerHour="49.87549586870753"/>
  <flow id="JF100373" begin="420" fromJunction="J5" toJunction="J7" end="480" vehsPerHour="57.400082802229896"/>
  <flow id="JF100374" begin="420" fromJunction="J6" toJunction="J0" end="480" vehsPerHour="68.57621422088971"/>
  <flow id="JF100375" begin="420" fromJunction="J6" toJunction="J3" end="480" vehsPerHour="7.328247706443742"/>
  <flow id="JF100376" begin="420" fromJunction="J6" toJunction="J5" end="480" vehsPerHour="58.19850475007477"/>
  <flow id="JF100377" begin="420" fromJunction="J6" toJunction="J7" end="480" vehsPerHour="51.2861120082504"/>
  <flow id="JF100378" begin="420" fromJunction="J7" toJunction="J3" end="480" vehsPerHour="61.67603566112568"/>
  <flow id="JF100379" begin="420" fromJunction="J7" toJunction="J4" end="480" vehsPerHour="61.139743569946084"/>
  <flow id="JF100380" begin="480" fromJunction="J0" toJunction="J3" end="540" vehsPerHour="84.47548739798958"/>
  <flow id="JF100381" begin="480" fromJunction="J0" toJunction="J5" end="540" vehsPerHour="18.09626718977023"/>
  <flow id="JF100382" begin="480" fromJunction="J0" toJunction="J6" end="540" vehsPerHour="77.28463618224059"/>
  <flow id="JF100383" begin="480" fromJunction="J0" toJunction="J7" end="540" vehsPerHour="89.37978087245402"/>
  <flow id="JF100384" begin="480" fromJunction="J3" toJunction="J4" end="540" vehsPerHour="135.8750942422654"/>
  <flow id="JF100385" begin="480" fromJunction="J3" toJunction="J5" end="540" vehsPerHour="119.38524319135847"/>
  <flow id="JF100386" begin="480" fromJunction="J3" toJunction="J6" end="540" vehsPerHour="126.2407925677787"/>
  <flow id="JF100387" begin="480" fromJunction="J3" toJunction="J7" end="540" vehsPerHour="47.48650432856064"/>
  <flow id="JF100388" begin="480" fromJunction="J4" toJunction="J0" end="540" vehsPerHour="16.510997914830075"/>
  <flow id="JF100389" begin="480" fromJunction="J4" toJunction="J3" end="540" vehsPerHour="20.698359328654785"/>
  <flow id="JF100390" begin="480" fromJunction="J4" toJunction="J5" end="540" vehsPerHour="10.105225315667752"/>
  <flow id="JF100391" begin="480" fromJunction="J4" toJunction="J6" end="540" vehsPerHour="52.07911011376924"/>
  <flow id="JF100392" begin="480" fromJunction="J4" toJunction="J7" end="540" vehsPerHour="16.63910431881448"/>
  <flow id="JF100393" begin="480" fromJunction="J5" toJunction="J0" end="540" vehsPerHour="5.834619611099681"/>
  <flow id="JF100394" begin="480" fromJunction="J5" toJunction="J4" end="540" vehsPerHour="39.68135132061747"/>
  <flow id="JF100395" begin="480" fromJunction="J5" toJunction="J6" end="540" vehsPerHour="2.1392620027623557"/>
  <flow id="JF100396" begin="480" fromJunction="J5" toJunction="J7" end="540" vehsPerHour="40.93695582660135"/>
  <flow id="JF100397" begin="480" fromJunction="J6" toJunction="J0" end="540" vehsPerHour="46.32988043282046"/>
  <flow id="JF100398" begin="480" fromJunction="J6" toJunction="J3" end="540" vehsPerHour="39.29489252775029"/>
  <flow id="JF100399" begin="480" fromJunction="J6" toJunction="J4" end="540" vehsPerHour="58.62365911768214"/>
  <flow id="JF100400" begin="480" fromJunction="J6" toJunction="J5" end="540" vehsPerHour="53.345657656197524"/>
  <flow id="JF100401" begin="480" fromJunction="J6" toJunction="J7" end="540" vehsPerHour="12.66459516834735"/>
  <flow id="JF100402" begin="480" fromJunction="J7" toJunction="J3" end="540" vehsPerHour="48.364533868519096"/>
  <flow id="JF100403" begin="480" fromJunction="J7" toJunction="J4" end="540" vehsPerHour="17.608548924957248"/>
  <flow id="JF100404" begin="480" fromJunction="J7" toJunction="J5" end="540" vehsPerHour="24.198683179520533"/>
  <flow id="JF100405" begin="480" fromJunction="J7" toJunction="J6" end="540" vehsPerHour="44.11459244286622"/>
  <flow id="JF100406" begin="540" fromJunction="J0" toJunction="J4" end="600" vehsPerHour="113.50474847047023"/>
  <flow id="JF100407" begin="540" fromJunction="J0" toJunction="J5" end="600" vehsPerHour="17.359862261405922"/>
  <flow id="JF100408" begin="540" fromJunction="J0" toJunction="J6" end="600" vehsPerHour="45.53360851585708"/>
  <flow id="JF100409" begin="540" fromJunction="J0" toJunction="J7" end="600" vehsPerHour="121.92090363038832"/>
  <flow id="JF100410" begin="540" fromJunction="J3" toJunction="J0" end="600" vehsPerHour="82.64927731659101"/>
  <flow id="JF100411" begin="540" fromJunction="J3" toJunction="J5" end="600" vehsPerHour="86.19956605081772"/>
  <flow id="JF100412" begin="540" fromJunction="J3" toJunction="J6" end="600" vehsPerHour="75.71343459875888"/>
  <flow id="JF100413" begin="540" fromJunction="J4" toJunction="J0" end="600" vehsPerHour="48.71228751579082"/>
  <flow id="JF100414" begin="540" fromJunction="J4" toJunction="J3" end="600" vehsPerHour="10.862388310312776"/>
  <flow id="JF100415" begin="540" fromJunction="J5" toJunction="J4" end="600" vehsPerHour="59.89642166923975"/>
  <flow id="JF100416" begin="540" fromJunction="J5" toJunction="J6" end="600" vehsPerHour="4.579006751034338"/>
  <flow id="JF100417" begin="540" fromJunction="J6" toJunction="J0" end="600" vehsPerHour="43.467601313872294"/>
  <flow id="JF100418" begin="540" fromJunction="J6" toJunction="J4" end="600" vehsPerHour="8.72999979449198"/>
  <flow id="JF100419" begin="540" fromJunction="J6" toJunction="J7" end="600" vehsPerHour="63.445998567848896"/>
  <flow id="JF100420" begin="540" fromJunction="J7" toJunction="J0" end="600" vehsPerHour="66.89761853795846"/>
  <flow id="JF100421" begin="540" fromJunction="J7" toJunction="J3" end="600" vehsPerHour="23.642932831559605"/>
  <flow id="JF100422" begin="540" fromJunction="J7" toJunction="J4" end="600" vehsPerHour="7.018075377927481"/>
  <flow id="JF100423" begin="540" fromJunction="J7" toJunction="J5" end="600" vehsPerHour="46.33701862317594"/>
  <flow id="JF100424" begin="600" fromJunction="J0" toJunction="J3" end="660" vehsPerHour="97.7332111886278"/>
  <flow id="JF100425" begin="600" fromJunction="J0" toJunction="J5" end="660" vehsPerHour="2.367678137934918"/>
  <flow id="JF100426" begin="600" fromJunction="J3" toJunction="J4" end="660" vehsPerHour="105.80146469343461"/>
  <flow id="JF100427" begin="600" fromJunction="J3" toJunction="J5" end="660" vehsPerHour="108.29098259311692"/>
  <flow id="JF100428" begin="600" fromJunction="J3" toJunction="J6" end="660" vehsPerHour="90.64166453634937"/>
  <flow id="JF100429" begin="600" fromJunction="J3" toJunction="J7" end="660" vehsPerHour="101.96315795617001"/>
  <flow id="JF100430" begin="600" fromJunction="J4" toJunction="J0" end="660" vehsPerHour="26.027406763278474"/>
  <flow id="JF100431" begin="600" fromJunction="J4" toJunction="J3" end="660" vehsPerHour="51.9760789141399"/>
  <flow id="JF100432" begin="600" fromJunction="J4" toJunction="J5" end="660" vehsPerHour="62.18638552118283"/>
  <flow id="JF100433" begin="600" fromJunction="J5" toJunction="J0" end="660" vehsPerHour="14.184105569964162"/>
  <flow id="JF100434" begin="600" fromJunction="J5" toJunction="J4" end="660" vehsPerHour="48.687094865354055"/>
  <flow id="JF100435" begin="600" fromJunction="J5" toJunction="J6" end="660" vehsPerHour="8.263413411297508"/>
  <flow id="JF100436" begin="600" fromJunction="J5" toJunction="J7" end="660" vehsPerHour="60.131236016861685"/>
  <flow id="JF100437" begin="600" fromJunction="J6" toJunction="J0" end="660" vehsPerHour="66.41051744748924"/>
  <flow id="JF100438" begin="600" fromJunction="J6" toJunction="J3" end="660" vehsPerHour="13.728940092687287"/>
  <flow id="JF100439" begin="600" fromJunction="J6" toJunction="J7" end="660" vehsPerHour="28.29399152726941"/>
  <flow id="JF100440" begin="600" fromJunction="J7" toJunction="J4" end="660" vehsPerHour="57.13769262015458"/>
  <flow id="JF100441" begin="600" fromJunction="J7" toJunction="J5" end="660" vehsPerHour="46.776916562979395"/>
  <flow id="JF100442" begin="600" fromJunction="J7" toJunction="J6" end="660" vehsPerHour="33.249051095723836"/>
  <flow id="JF100443" begin="660" fromJunction="J0" toJunction="J3" end="720" vehsPerHour="109.39141789235055"/>
  <flow id="JF100444" begin="660" fromJunction="J0" toJunction="J6" end="720" vehsPerHour="102.26206434733592"/>
  <flow id="JF100445" begin="660" fromJunction="J0" toJunction="J7" end="720" vehsPerHour="128.88738842793813"/>
  <flow id="JF100446" begin="660" fromJunction="J3" toJunction="J0" end="720" vehsPerHour="78.16977650903583"/>
  <flow id="JF100447" begin="660" fromJunction="J3" toJunction="J4" end="720" vehsPerHour="129.47052815683008"/>
  <flow id="JF100448" begin="660" fromJunction="J3" toJunction="J5" end="720" vehsPerHour="2.8991760995066533"/>
  <flow id="JF100449" begin="660" fromJunction="J3" toJunction="J6" end="720" vehsPerHour="100.19948663129863"/>
  <flow id="JF100450" begin="660" fromJunction="J4" toJunction="J3" end="720" vehsPerHour="15.046320593193972"/>
  <flow id="JF100451" begin="660" fromJunction="J4" toJunction="J5" end="720" vehsPerHour="25.87355778742462"/>
  <flow id="JF100452" begin="660" fromJunction="J5" toJunction="J0" end="720" vehsPerHour="62.02206183375911"/>
  <flow id="JF100453" begin="660" fromJunction="J5" toJunction="J4" end="720" vehsPerHour="57.978611192440525"/>
  <flow id="JF100454" begin="660" fromJunction="J5" toJunction="J6" end="720" vehsPerHour="15.647209201291744"/>
  <flow id="JF100455" begin="660" fromJunction="J5" toJunction="J7" end="720" vehsPerHour="43.81189841752465"/>
  <flow id="JF100456" begin="660" fromJunction="J6" toJunction="J0" end="720" vehsPerHour="50.30582643934007"/>
  <flow id="JF100457" begin="660" fromJunction="J6" toJunction="J3" end="720" vehsPerHour="23.201163442453772"/>
  <flow id="JF100458" begin="660" fromJunction="J6" toJunction="J5" end="720" vehsPerHour="16.77580974277173"/>
  <flow id="JF100459" begin="660" fromJunction="J6" toJunction="J7" end="720" vehsPerHour="6.207870443283346"/>
  <flow id="JF100460" begin="660" fromJunction="J7" toJunction="J0" end="720" vehsPerHour="66.76555019968386"/>
  <flow id="JF100461" begin="660" fromJunction="J7" toJunction="J3" end="720" vehsPerHour="24.176919523161263"/>
  <flow id="JF100462" begin="660" fromJunction="J7" toJunction="J4" end="720" vehsPerHour="27.76045202680538"/>
  <flow id="JF100463" begin="660" fromJunction="J7" toJunction="J6" end="720" vehsPerHour="23.26923271292656"/>
  <flow id="JF100464" begin="720" fromJunction="J0" toJunction="J3" end="780" vehsPerHour="127.30710932490476"/>
  <flow id="JF100465" begin="720" fromJunction="J0" toJunction="J4" end="780" vehsPerHour="134.16399583643565"/>
  <flow id="JF100466" begin="720" fromJunction="J0" toJunction="J5" end="780" vehsPerHour="77.33548888344835"/>
  <flow id="JF100467" begin="720" fromJunction="J0" toJunction="J6" end="780" vehsPerHour="24.933278793028062"/>
  <flow id="JF100468" begin="720" fromJunction="J3" toJunction="J0" end="780" vehsPerHour="111.34401951747013"/>
  <flow id="JF100469" begin="720" fromJunction="J3" toJunction="J4" end="780" vehsPerHour="56.28457391908954"/>
  <flow id="JF100470" begin="720" fromJunction="J3" toJunction="J5" end="780" vehsPerHour="46.328873630856094"/>
  <flow id="JF100471" begin="720" fromJunction="J3" toJunction="J6" end="780" vehsPerHour="12.749825890299237"/>