<?xml version="1.0" encoding="UTF-8"?>
<routes xmlns:xsi="http://www.w3.org/2001/XMLSchema-instance" xsi:noNamespaceSchemaLocation="http://sumo.dlr.de/xsd/routes_file.xsd">
  <flow id="JF126186" begin="0" fromJunction="J0" toJunction="J3" end="60" vehsPerHour="29.16839749155918"/>
  <flow id="JF126187" begin="0" fromJunction="J0" toJunction="J5" end="60" vehsPerHour="64.91186839225986"/>
  <flow id="JF126188" begin="0" fromJunction="J0" toJunction="J6" end="60" vehsPerHour="128.4938660811249"/>
  <flow id="JF126189" begin="0" fromJunction="J3" toJunction="J0" end="60" vehsPerHour="91.10941283474486"/>
  <flow id="JF126190" begin="0" fromJunction="J3" toJunction="J4" end="60" vehsPerHour="50.79811353672396"/>
  <flow id="JF126191" begin="0" fromJunction="J3" toJunction="J5" end="60" vehsPerHour="132.1819218335705"/>
  <flow id="JF126192" begin="0" fromJunction="J3" toJunction="J6" end="60" vehsPerHour="67.25725960140025"/>
  <flow id="JF126193" begin="0" fromJunction="J4" toJunction="J0" end="60" vehsPerHour="54.24633124827886"/>
  <flow id="JF126194" begin="0" fromJunction="J4" toJunction="J3" end="60" vehsPerHour="31.846544208192594"/>
  <flow id="JF126195" begin="0" fromJunction="J5" toJunction="J0" end="60" vehsPerHour="18.74253180977098"/>
  <flow id="JF126196" begin="0" fromJunction="J5" toJunction="J6" end="60" vehsPerHour="61.99679896290854"/>
  <flow id="JF126197" begin="0" fromJunction="J6" toJunction="J3" end="60" vehsPerHour="32.060115259081066"/>
  <flow id="JF126198" begin="0" fromJunction="J6" toJunction="J4" end="60" vehsPerHour="60.3987009557614"/>
  <flow id="JF126199" begin="0" fromJunction="J7" toJunction="J5" end="60" vehsPerHour="23.937385808412746"/>
  <flow id="JF126200" begin="0" fromJunction="J7" toJunction="J6" end="60" vehsPerHour="67.15286822321426"/>
  <flow id="JF126201" begin="60" fromJunction="J0" toJunction="J3" end="120" vehsPerHour="105.0582403787416"/>
  <flow id="JF126202" begin="60" fromJunction="J0" toJunction="J4" end="120" vehsPerHour="77.37834102184907"/>
  <flow id="JF126203" begin="60" fromJunction="J0" toJunction="J5" end="120" vehsPerHour="31.398506935961123"/>
  <flow id="JF126204" begin="60" fromJunction="J0" toJunction="J6" end="120" vehsPerHour="26.486825129598063"/>
  <flow id="JF126205" begin="60" fromJunction="J0" toJunction="J7" end="120" vehsPerHour="15.912755492853588"/>
  <flow id="JF126206" begin="60" fromJunction="J3" toJunction="J0" end="120" vehsPerHour="60.18114123748488"/>
  <flow id="JF126207" begin="60" fromJunction="J3" toJunction="J4" end="120" vehsPerHour="52.54374618946637"/>
  <flow id="JF126208" begin="60" fromJunction="J3" toJunction="J5" end="120" vehsPerHour="115.29685692852125"/>
  <flow id="JF126209" begin="60" fromJunction="J3" toJunction="J6" end="120" vehsPerHour="60.47653358534846"/>
  <flow id="JF126210" begin="60" fromJunction="J3" toJunction="J7" end="120" vehsPerHour="90.31433092487292"/>
  <flow id="JF126211" begin="60" fromJunction="J4" toJunction="J0" end="120" vehsPerHour="57.320021117001595"/>
  <flow id="JF126212" begin="60" fromJunction="J4" toJunction="J3" end="120" vehsPerHour="38.22177359859791"/>
  <flow id="JF126213" begin="60" fromJunction="J4" toJunction="J6" end="120" vehsPerHour="61.20444507042097"/>
  <flow id="JF126214" begin="60" fromJunction="J4" toJunction="J7" end="120" vehsPerHour="2.16610766282438"/>
  <flow id="JF126215" begin="60" fromJunction="J5" toJunction="J0" end="120" vehsPerHour="34.81349666743583"/>
  <flow id="JF126216" begin="60" fromJunction="J5" toJunction="J7" end="120" vehsPerHour="27.61060215807172"/>
  <flow id="JF126217" begin="60" fromJunction="J6" toJunction="J3" end="120" vehsPerHour="40.489237546508356"/>
  <flow id="JF126218" begin="60" fromJunction="J6" toJunction="J4" end="120" vehsPerHour="35.37987152926366"/>
  <flow id="JF126219" begin="60" fromJunction="J6" toJunction="J5" end="120" vehsPerHour="51.098188701623414"/>
  <flow id="JF126220" begin="60" fromJunction="J6" toJunction="J7" end="120" vehsPerHour="10.190425031456263"/>
  <flow id="JF126221" begin="60" fromJunction="J7" toJunction="J0" end="120" vehsPerHour="10.582233564798639"/>
  <flow id="JF126222" begin="60" fromJunction="J7" toJunction="J3" end="120" vehsPerHour="41.253071214152385"/>
  <flow id="JF126223" begin="60" fromJunction="J7" toJunction="J4" end="120" vehsPerHour="18.2365111636967"/>
  <flow id="JF126224" begin="60" fromJunction="J7" toJunction="J5" end="120" vehsPerHour="35.42324870557732"/>
  <flow id="JF126225" begin="120" fromJunction="J0" toJunction="J3" end="180" vehsPerHour="48.698967950782794"/>
  <flow id="JF126226" begin="120" fromJunction="J0" toJunction="J6" end="180" vehsPerHour="16.95165958831559"/>
  <flow id="JF126227" begin="120" fromJunction="J3" toJunction="J4" end="180" vehsPerHour="129.63767269526704"/>
  <flow id="JF126228" begin="120" fromJunction="J3" toJunction="J5" end="180" vehsPerHour="134.39501664481637"/>
  <flow id="JF126229" begin="120" fromJunction="J3" toJunction="J6" end="180" vehsPerHour="24.858824040362407"/>
  <flow id="JF126230" begin="120" fromJunction="J3" toJunction="J7" end="180" vehsPerHour="70.13821161745379"/>
  <flow id="JF126231" begin="120" fromJunction="J4" toJunction="J3" end="180" vehsPerHour="68.06653864448045"/>
  <flow id="JF126232" begin="120" fromJunction="J4" toJunction="J5" end="180" vehsPerHour="8.644919987590725"/>
  <flow id="JF126233" begin="120" fromJunction="J4" toJunction="J6" end="180" vehsPerHour="44.29869694852602"/>
  <flow id="JF126234" begin="120" fromJunction="J4" toJunction="J7" end="180" vehsPerHour="9.054937658529319"/>
  <flow id="JF126235" begin="120" fromJunction="J5" toJunction="J0" end="180" vehsPerHour="48.319801521260075"/>
  <flow id="JF126236" begin="120" fromJunction="J5" toJunction="J3" end="180" vehsPerHour="41.331401828671986"/>
  <flow id="JF126237" begin="120" fromJunction="J5" toJunction="J6" end="180" vehsPerHour="18.11763920760077"/>
  <flow id="JF126238" begin="120" fromJunction="J5" toJunction="J7" end="180" vehsPerHour="31.396643940750817"/>
  <flow id="JF126239" begin="120" fromJunction="J6" toJunction="J4" end="180" vehsPerHour="61.68857527506145"/>
  <flow id="JF126240" begin="120" fromJunction="J6" toJunction="J5" end="180" vehsPerHour="29.17415868732568"/>
  <flow id="JF126241" begin="120" fromJunction="J6" toJunction="J7" end="180" vehsPerHour="55.710096103545105"/>
  <flow id="JF126242" begin="120" fromJunction="J7" toJunction="J0" end="180" vehsPerHour="2.298322984704271"/>
  <flow id="JF126243" begin="120" fromJunction="J7" toJunction="J3" end="180" vehsPerHour="43.34077621080113"/>
  <flow id="JF126244" begin="120" fromJunction="J7" toJunction="J5" end="180" vehsPerHour="44.35585131737565"/>
  <flow id="JF126245" begin="180" fromJunction="J0" toJunction="J5" end="240" vehsPerHour="57.20187013205154"/>
  <flow id="JF126246" begin="180" fromJunction="J0" toJunction="J6" end="240" vehsPerHour="0.3134073847390564"/>
  <flow id="JF126247" begin="180" fromJunction="J0" toJunction="J7" end="240" vehsPerHour="96.30400909718517"/>
  <flow id="JF126248" begin="180" fromJunction="J3" toJunction="J0" end="240" vehsPerHour="25.305238598074773"/>
  <flow id="JF126249" begin="180" fromJunction="J3" toJunction="J4" end="240" vehsPerHour="77.61448343169633"/>
  <flow id="JF126250" begin="180" fromJunction="J3" toJunction="J6" end="240" vehsPerHour="106.80476240670032"/>
  <flow id="JF126251" begin="180" fromJunction="J4" toJunction="J3" end="240" vehsPerHour="0.5941816771824002"/>
  <flow id="JF126252" begin="180" fromJunction="J4" toJunction="J5" end="240" vehsPerHour="41.292590859602804"/>
  <flow id="JF126253" begin="180" fromJunction="J4" toJunction="J6" end="240" vehsPerHour="35.16004591309722"/>
  <flow id="JF126254" begin="180" fromJunction="J5" toJunction="J4" end="240" vehsPerHour="44.07259825093906"/>
  <flow id="JF126255" begin="180" fromJunction="J5" toJunction="J6" end="240" vehsPerHour="55.66718564680007"/>
  <flow id="JF126256" begin="180" fromJunction="J5" toJunction="J7" end="240" vehsPerHour="60.14370772564992"/>
  <flow id="JF126257" begin="180" fromJunction="J6" toJunction="J3" end="240" vehsPerHour="43.09389862355643"/>
  <flow id="JF126258" begin="180" fromJunction="J6" toJunction="J4" end="240" vehsPerHour="4.289714871184382"/>
  <flow id="JF126259" begin="180" fromJunction="J6" toJunction="J5" end="240" vehsPerHour="66.23559991992128"/>
  <flow id="JF126260" begin="180" fromJunction="J7" toJunction="J0" end="240" vehsPerHour="18.698704985651137"/>
  <flow id="JF126261" begin="180" fromJunction="J7" toJunction="J4" end="240" vehsPerHour="33.275022812361115"/>
  <flow id="JF126262" begin="180" fromJunction="J7" toJunction="J5" end="240" vehsPerHour="37.000176342761506"/>
  <flow id="JF126263" begin="240" fromJunction="J0" toJunction="J3" end="300" vehsPerHour="114.79962266033544"/>
  <flow id="JF126264" begin="240" fromJunction="J0" toJunction="J4" end="300" vehsPerHour="108.78341619339257"/>
  <flow id="JF126265" begin="240" fromJunction="J0" toJunction="J5" end="300" vehsPerHour="132.15507081830248"/>
  <flow id="JF126266" begin="240" fromJunction="J3" toJunction="J0" end="300" vehsPerHour="121.39163798133877"/>
  <flow id="JF126267" begin="240" fromJunction="J3" toJunction="J6" end="300" vehsPerHour="48.86788023283136"/>
  <flow id="JF126268" begin="240" fromJunction="J4" toJunction="J0" end="300" vehsPerHour="16.46826713988986"/>
  <flow id="JF126269" begin="240" fromJunction="J4" toJunction="J3" end="300" vehsPerHour="13.468081354641486"/>
  <flow id="JF126270" begin="240" fromJunction="J4" toJunction="J6" end="300" vehsPerHour="16.471135605577214"/>
  <flow id="JF126271" begin="240" fromJunction="J4" toJunction="J7" end="300" vehsPerHour="27.645526452163185"/>
  <flow id="JF126272" begin="240" fromJunction="J5" toJunction="J0" end="300" vehsPerHour="35.46896531802682"/>
  <flow id="JF126273" begin="240" fromJunction="J5" toJunction="J3" end="300" vehsPerHour="56.071510764489155"/>
  <flow id="JF126274" begin="240" fromJunction="J5" toJunction="J4" end="300" vehsPerHour="8.255189266358364"/>
  <flow id="JF126275" begin="240" fromJunction="J5" toJunction="J7" end="300" vehsPerHour="17.076359284141642"/>
  <flow id="JF126276" begin="240" fromJunction="J6" toJunction="J0" end="300" vehsPerHour="61.38017563637013"/>
  <flow id="JF126277" begin="240" fromJunction="J6" toJunction="J4" end="300" vehsPerHour="24.114840391536323"/>
  <flow id="JF126278" begin="240" fromJunction="J6" toJunction="J5" end="300" vehsPerHour="8.710505629743103"/>
  <flow id="JF126279" begin="240" fromJunction="J7" toJunction="J0" end="300" vehsPerHour="49.33118917382282"/>
  <flow id="JF126280" begin="240" fromJunction="J7" toJunction="J3" end="300" vehsPerHour="33.46656234714099"/>
  <flow id="JF126281" begin="240" fromJunction="J7" toJunction="J4" end="300" vehsPerHour="4.540525951895774"/>
  <flow id="JF126282" begin="240" fromJunction="J7" toJunction="J5" end="300" vehsPerHour="30.876497165363084"/>
  <flow id="JF126283" begin="240" fromJunction="J7" toJunction="J6" end="300" vehsPerHour="66.4024971860193"/>
  <flow id="JF126284" begin="300" fromJunction="J0" toJunction="J5" end="360" vehsPerHour="17.75394028321372"/>
  <flow id="JF126285" begin="300" fromJunction="J0" toJunction="J7" end="360" vehsPerHour="128.04070269870692"/>
  <flow id="JF126286" begin="300" fromJunction="J3" toJunction="J0" end="360" vehsPerHour="51.64018898294705"/>
  <flow id="JF126287" begin="300" fromJunction="J3" toJunction="J4" end="360" vehsPerHour="7.016553695638347"/>
  <flow id="JF126288" begin="300" fromJunction="J3" toJunction="J5" end="360" vehsPerHour="82.26310578395533"/>
  <flow id="JF126289" begin="300" fromJunction="J3" toJunction="J6" end="360" vehsPerHour="22.037223895133142"/>
  <flow id="JF126290" begin="300" fromJunction="J4" toJunction="J0" end="360" vehsPerHour="46.234951310632006"/>
  <flow id="JF126291" begin="300" fromJunction="J4" toJunction="J5" end="360" vehsPerHour="33.92745005439965"/>
  <flow id="JF126292" begin="300" fromJunction="J4" toJunction="J6" end="360" vehsPerHour="26.756743917317873"/>
  <flow id="JF126293" begin="300" fromJunction="J5" toJunction="J0" end="360" vehsPerHour="65.36480818144196"/>
  <flow id="JF126294" begin="300" fromJunction="J5" toJunction="J3" end="360" vehsPerHour="36.33171997159894"/>
  <flow id="JF126295" begin="300" fromJunction="J5" toJunction="J4" end="360" vehsPerHour="18.467914742101353"/>
  <flow id="JF126296" begin="300" fromJunction="J5" toJunction="J7" end="360" vehsPerHour="44.77651102256437"/>
  <flow id="JF126297" begin="300" fromJunction="J6" toJunction="J0" end="360" vehsPerHour="5.672485139419872"/>
  <flow id="JF126298" begin="300" fromJunction="J6" toJunction="J3" end="360" vehsPerHour="42.94546224741029"/>
  <flow id="JF126299" begin="300" fromJunction="J6" toJunction="J4" end="360" vehsPerHour="29.81305457858505"/>
  <flow id="JF126300" begin="300" fromJunction="J6" toJunction="J5" end="360" vehsPerHour="31.315464544453196"/>
  <flow id="JF126301" begin="300" fromJunction="J7" toJunction="J0" end="360" vehsPerHour="38.00639982169132"/>
  <flow id="JF126302" begin="300" fromJunction="J7" toJunction="J3" end="360" vehsPerHour="0.2159197403149841"/>
  <flow id="JF126303" begin="300" fromJunction="J7" toJunction="J4" end="360" vehsPerHour="35.98753289027951"/>
  <flow id="JF126304" begin="300" fromJunction="J7" toJunction="J5" end="360" vehsPerHour="45.64284212786828"/>
  <flow id="JF126305" begin="300" fromJunction="J7" toJunction="J6" end="360" vehsPerHour="24.593727872966838"/>
  <flow id="JF126306" begin="360" fromJunction="J0" toJunction="J3" end="420" vehsPerHour="77.15960279133331"/>
  <flow id="JF126307" begin="360" fromJunction="J0" toJunction="J4" end="420" vehsPerHour="26.89215452304203"/>
  <flow id="JF126308" begin="360" fromJunction="J0" toJunction="J5" end="420" vehsPerHour="41.623107962837224"/>
  <flow id="JF126309" begin="360" fromJunction="J0" toJunction="J6" end="420" vehsPerHour="110.59167837143629"/>
  <flow id="JF126310" begin="360" fromJunction="J0" toJunction="J7" end="420" vehsPerHour="42.14452687241848"/>
  <flow id="JF126311" begin="360" fromJunction="J3" toJunction="J0" end="420" vehsPerHour="13.888757509502748"/>
  <flow id="JF126312" begin="360" fromJunction="J3" toJunction="J4" end="420" vehsPerHour="69.02196281999122"/>
  <flow id="JF126313" begin="360" fromJunction="J3" toJunction="J5" end="420" vehsPerHour="103.07079856783102"/>
  <flow id="JF126314" begin="360" fromJunction="J3" toJunction="J7" end="420" vehsPerHour="1.4456987967517567"/>
  <flow id="JF126315" begin="360" fromJunction="J4" toJunction="J0" end="420" vehsPerHour="54.88509635064718"/>
  <flow id="JF126316" begin="360" fromJunction="J4" toJunction="J3" end="420" vehsPerHour="33.95928823816192"/>
  <flow id="JF126317" begin="360" fromJunction="J4" toJunction="J5" end="420" vehsPerHour="58.89830720023321"/>
  <flow id="JF126318" begin="360" fromJunction="J4" toJunction="J6" end="420" vehsPerHour="2.1882530183216344"/>
  <flow id="JF126319" begin="360" fromJunction="J4" toJunction="J7" end="420" vehsPerHour="66.21216524938457"/>
  <flow id="JF126320" begin="360" fromJunction="J5" toJunction="J0" end="420" vehsPerHour="12.486779883165292"/>
  <flow id="JF126321" begin="360" fromJunction="J5" toJunction="J6" end="420" vehsPerHour="64.57033032208498"/>
  <flow id="JF126322" begin="360" fromJunction="J5" toJunction="J7" end="420" vehsPerHour="28.58916878500243"/>
  <flow id="JF126323" begin="360" fromJunction="J6" toJunction="J0" end="420" vehsPerHour="34.31092638932645"/>
  <flow id="JF126324" begin="360" fromJunction="J6" toJunction="J3" end="420" vehsPerHour="37.05093551581706"/>
  <flow id="JF126325" begin="360" fromJunction="J6" toJunction="J5" end="420" vehsPerHour="44.573950701222344"/>
  <flow id="JF126326" begin="360" fromJunction="J7" toJunction="J0" end="420" vehsPerHour="62.239295738206536"/>
  <flow id="JF126327" begin="360" fromJunction="J7" toJunction="J4" end="420" vehsPerHour="33.77579332576709"/>
  <flow id="JF126328" begin="420" fromJunction="J0" toJunction="J5" end="480" vehsPerHour="50.09512508740926"/>
  <flow id="JF126329" begin="420" fromJunction="J0" toJunction="J6" end="480" vehsPerHour="3.4510668798479696"/>
  <flow id="JF126330" begin="420" fromJunction="J0" toJunction="J7" end="480" vehsPerHour="119.85603911473085"/>
  <flow id="JF126331" begin="420" fromJunction="J3" toJunction="J4" end="480" vehsPerHour="107.40041288217502"/>
  <flow id="JF126332" begin="420" fromJunction="J3" toJunction="J5" end="480" vehsPerHour="127.9498395760264"/>
  <flow id="JF126333" begin="420" fromJunction="J3" toJunction="J6" end="480" vehsPerHour="84.43352678492015"/>
  <flow id="JF126334" begin="420" fromJunction="J3" toJunction="J7" end="480" vehsPerHour="18.929230362667322"/>
  <flow id="JF126335" begin="420" fromJunction="J4" toJunction="J5" end="480" vehsPerHour="64.78850969426578"/>
  <flow id="JF126336" begin="420" fromJunction="J4" toJunction="J6" end="480" vehsPerHour="29.79088564926548"/>
  <flow id="JF126337" begin="420" fromJunction="J4" toJunction="J7" end="480" vehsPerHour="36.91774066977914"/>
  <flow id="JF126338" begin="420" fromJunction="J5" toJunction="J3" end="480" vehsPerHour="43.51926552648461"/>
  <flow id="JF126339" begin="420" fromJunction="J5" toJunction="J4" end="480" vehsPerHour="39.02055783147231"/>
  <flow id="JF126340" begin="420" fromJunction="J5" toJunction="J6" end="480" vehsPerHour="28.35824053739453"/>
  <flow id="JF126341" begin="420" fromJunction="J5" toJunction="J7" end="480" vehsPerHour="49.684883422512925"/>
  <flow id="JF126342" begin="420" fromJunction="J6" toJunction="J0" end="480" vehsPerHour="7.31144136090887"/>
  <flow id="JF126343" begin="420" fromJunction="J6" toJunction="J3" end="480" vehsPerHour="1.7178005725172232"/>
  <flow id="JF126344" begin="420" fromJunction="J7" toJunction="J3" end="480" vehsPerHour="67.78319584512815"/>
  <flow id="JF126345" begin="420" fromJunction="J7" toJunction="J4" end="480" vehsPerHour="28.787611271595637"/>
  <flow id="JF126346" begin="420" fromJunction="J7" toJunction="J5" end="480" vehsPerHour="59.744800823195895"/>
  <flow id="JF126347" begin="420" fromJunction="J7" toJunction="J6" end="480" vehsPerHour="16.452148960607865"/>
  <flow id="JF126348" begin="480" fromJunction="J0" toJunction="J3" end="540" vehsPerHour="20.249942589634603"/>
  <flow id="JF126349" begin="480" fromJunction="J0" toJunction="J4" end="540" vehsPerHour="88.88149643852726"/>
  <flow id="JF126350" begin="480" fromJunction="J0" toJunction="J5" end="540" vehsPerHour="27.336070807913103"/>
  <flow id="JF126351" begin="480" fromJunction="J0" toJunction="J6" end="540" vehsPerHour="76.86985085426632"/>
  <flow id="JF126352" begin="480" fromJunction="J3" toJunction="J0" end="540" vehsPerHour="15.168739190525203"/>
  <flow id="JF126353" begin="480" fromJunction="J3" toJunction="J4" end="540" vehsPerHour="29.716867838296473"/>
  <flow id="JF126354" begin="480" fromJunction="J3" toJunction="J5" end="540" vehsPerHour="89.97957632591849"/>
  <flow id="JF126355" begin="480" fromJunction="J3" toJunction="J6" end="540" vehsPerHour="73.55283782506943"/>
  <flow id="JF126356" begin="480" fromJunction="J3" toJunction="J7" end="540" vehsPerHour="135.5403413116331"/>
  <flow id="JF126357" begin="480" fromJunction="J4" toJunction="J0" end="540" vehsPerHour="39.23516995433927"/>
  <flow id="JF126358" begin="480" fromJunction="J4" toJunction="J6" end="540" vehsPerHour="34.58368814780383"/>
  <flow id="JF126359" begin="480" fromJunction="J4" toJunction="J7" end="540" vehsPerHour="4.284948279343697"/>
  <flow id="JF126360" begin="480" fromJunction="J5" toJunction="J3" end="540" vehsPerHour="9.938807044641884"/>
  <flow id="JF126361" begin="480" fromJunction="J5" toJunction="J6" end="540" vehsPerHour="62.938677875516404"/>
  <flow id="JF126362" begin="480" fromJunction="J6" toJunction="J0" end="540" vehsPerHour="34.45342139780402"/>
  <flow id="JF126363" begin="480" fromJunction="J6" toJunction="J3" end="540" vehsPerHour="63.865346267759755"/>
  <flow id="JF126364" begin="480" fromJunction="J6" toJunction="J4" end="540" vehsPerHour="0.8266112196321626"/>
  <flow id="JF126365" begin="480" fromJunction="J6" toJunction="J5" end="540" vehsPerHour="4.327355561700867"/>
  <flow id="JF126366" begin="480" fromJunction="J6" toJunction="J7" end="540" vehsPerHour="13.653471414909289"/>
  <flow id="JF126367" begin="480" fromJunction="J7" toJunction="J0" end="540" vehsPerHour="12.899895448381976"/>
  <flow id="JF126368" begin="480" fromJunction="J7" toJunction="J4" end="540" vehsPerHour="18.189079954270426"/>
  <flow id="JF126369" begin="480" fromJunction="J7" toJunction="J5" end="540" vehsPerHour="27.432335278171706"/>
  <flow id="JF126370" begin="480" fromJunction="J7" toJunction="J6" end="540" vehsPerHour="59.122651773904835"/>
  <flow id="JF126371" begin="540" fromJunction="J0" toJunction="J3" end="600" vehsPerHour="0.23544760238352158"/>
  <flow id="JF126372" begin="540" fromJunction="J0" toJunction="J5" end="600" vehsPerHour="70.97120944619836"/>
  <flow id="JF126373" begin="540" fromJunction="J0" toJunction="J6" end="600" vehsPerHour="127.19443876323754"/>
  <flow id="JF126374" begin="540" fromJunction="J0" toJunction="J7" end="600" vehsPerHour="73.64516972139762"/>
  <flow id="JF126375" begin="540" fromJunction="J3" toJunction="J4" end="600" vehsPerHour="90.14387172542321"/>
  <flow id="JF126376" begin="540" fromJunction="J3" toJunction="J5" end="600" vehsPerHour="96.42418963689921"/>
  <flow id="JF126377" begin="540" fromJunction="J3" toJunction="J6" end="600" vehsPerHour="109.81863269024345"/>
  <flow id="JF126378" begin="540" fromJunction="J3" toJunction="J7" end="600" vehsPerHour="101.36087622298565"/>
  <flow id="JF126379" begin="540" fromJunction="J4" toJunction="J0" end="600" vehsPerHour="11.673663293839958"/>
  <flow id="JF126380" begin="540" fromJunction="J4" toJunction="J5" end="600" vehsPerHour="38.53647283509021"/>
  <flow id="JF126381" begin="540" fromJunction="J4" toJunction="J6" end="600" vehsPerHour="30.95971105155708"/>
  <flow id="JF126382" begin="540" fromJunction="J4" toJunction="J7" end="600" vehsPerHour="59.28162157195596"/>
  <flow id="JF126383" begin="540" fromJunction="J5" toJunction="J0" end="600" vehsPerHour="43.15626993539121"/>
  <flow id="JF126384" begin="540" fromJunction="J5" toJunction="J3" end="600" vehsPerHour="51.82325037773447"/>
  <flow id="JF126385" begin="540" fromJunction="J5" toJunction="J7" end="600" vehsPerHour="40.59638355148274"/>
  <flow id="JF126386" begin="540" fromJunction="J6" toJunction="J4" end="600" vehsPerHour="10.680902480817904"/>
  <flow id="JF126387" begin="540" fromJunction="J6" toJunction="J5" end="600" vehsPerHour="67.12352945922369"/>
  <flow id="JF126388" begin="540" fromJunction="J6" toJunction="J7" end="600" vehsPerHour="22.143354174354517"/>
  <flow id="JF126389" begin="540" fromJunction="J7" toJunction="J3" end="600" vehsPerHour="2.8386543647274314"/>
  <flow id="JF126390" begin="540" fromJunction="J7" toJunction="J5" end="600" vehsPerHour="39.406772867505715"/>
  <flow id="JF126391" begin="540" fromJunction="J7" toJunction="J6" end="600" vehsPerHour="65.64482754339828"/>
  <flow id="JF126392" begin="600" fromJunction="J0" toJunction="J3" end="660" vehsPerHour="79.08122237648686"/>
  <flow id="JF126393" begin="600" fromJunction="J0" toJunction="J4" end="660" vehsPerHour="10.281130470776121"/>
  <flow id="JF126394" begin="600" fromJunction="J0" toJunction="J5" end="660" vehsPerHour="8.250595105105164"/>
  <flow id="JF126395" begin="600" fromJunction="J0" toJunction="J7" end="660" vehsPerHour="71.90105635937807"/>
  <flow id="JF126396" begin="600" fromJunction="J3" toJunction="J0" end="660" vehsPerHour="116.44655671522627"/>
  <flow id="JF126397" begin="600" fromJunction="J3" toJunction="J6" end="660" vehsPerHour="96.22624642229914"/>
  <flow id="JF126398" begin="600" fromJunction="J3" toJunction="J7" end="660" vehsPerHour="7.866433723095902"/>
  <flow id="JF126399" begin="600" fromJunction="J4" toJunction="J0" end="660" vehsPerHour="43.778016004173395"/>
  <flow id="JF126400" begin="600" fromJunction="J4" toJunction="J6" end="660" vehsPerHour="8.850787712221408"/>
  <flow id="JF126401" begin="600" fromJunction="J5" toJunction="J0" end="660" vehsPerHour="16.648082702970402"/>
  <flow id="JF126402" begin="600" fromJunction="J5" toJunction="J4" end="660" vehsPerHour="12.087456366645764"/>
  <flow id="JF126403" begin="600" fromJunction="J5" toJunction="J6" end="660" vehsPerHour="34.29207432450433"/>
  <flow id="JF126404" begin="600" fromJunction="J6" toJunction="J3" end="660" vehsPerHour="16.6540784722722"/>
  <flow id="JF126405" begin="600" fromJunction="J6" toJunction="J4" end="660" vehsPerHour="16.511515175894584"/>
  <flow id="JF126406" begin="600" fromJunction="J6" toJunction="J5" end="660" vehsPerHour="63.72931683198133"/>
  <flow id="JF126407" begin="600" fromJunction="J7" toJunction="J0" end="660" vehsPerHour="23.220066673720126"/>
  <flow id="JF126408" begin="600" fromJunction="J7" toJunction="J3" end="660" vehsPerHour="66.84628098916237"/>
  <flow id="JF126409" begin="600" fromJunction="J7" toJunction="J4" end="660" vehsPerHour="52.510410169586486"/>
  <flow id="JF126410" begin="600" fromJunction="J7" toJunction="J5" end="660" vehsPerHour="17.716207106455006"/>
  <flow id="JF126411" begin="660" fromJunction="J0" toJunction="J4" end="720" vehsPerHour="20.968935243944046"/>
  <flow id="JF126412" begin="660" fromJunction="J0" toJunction="J5" end="720" vehsPerHour="7.309908114076852"/>
  <flow id="JF126413" begin="660" fromJunction="J3" toJunction="J0" end="720" vehsPerHour="121.07474036314122"/>
  <flow id="JF126414" begin="660" fromJunction="J3" toJunction="J4" end="720" vehsPerHour="16.53170996449415"/>
  <flow id="JF126415" begin="660" fromJunction="J3" toJunction="J5" end="720" vehsPerHour="3.1598167956041405"/>
  <flow id="JF126416" begin="660" fromJunction="J3" toJunction="J6" end="720" vehsPerHour="51.170890019449054"/>
  <flow id="JF126417" begin="660" fromJunction="J4" toJunction="J3" end="720" vehsPerHour="62.43193107419636"/>
  <flow id="JF126418" begin="660" fromJunction="J4" toJunction="J5" end="720" vehsPerHour="54.40812323551758"/>
  <flow id="JF126419" begin="660" fromJunction="J4" toJunction="J6" end="720" vehsPerHour="18.217392381588756"/>
  <flow id="JF126420" begin="660" fromJunction="J4" toJunction="J7" end="720" vehsPerHour="43.31397962453458"/>
  <flow id="JF126421" begin="660" fromJunction="J5" toJunction="J0" end="720" vehsPerHour="2.5837963836446254"/>
  <flow id="JF126422" begin="660" fromJunction="J5" toJunction="J4" end="720" vehsPerHour="13.568856101760822"/>
  <flow id="JF126423" begin="660" fromJunction="J5" toJunction="J6" end="720" vehsPerHour="48.721061204484236"/>
  <flow id="JF126424" begin="660" fromJunction="J6" toJunction="J5" end="720" vehsPerHour="59.89749856161659"/>
  <flow id="JF126425" begin="660" fromJunction="J7" toJunction="J4" end="720" vehsPerHour="34.60686124606527"/>
  <flow id="JF126426" begin="660" fromJunction="J7" toJunction="J5" end="720" vehsPerHour="10.843622819121554"/>
  <flow id="JF126427" begin="660" fromJunction="J7" toJunction="J6" end="720" vehsPerHour="19.50142131839805"/>
  <flow id="JF126428" begin="720" fromJunction="J0" toJunction="J3" end="780" vehsPerHour="111.08563527746965"/>
  <flow id="JF126429" begin="720" fromJunction="J0" toJunction="J4" end="780" vehsPerHour="2.581663797561215"/>
  <flow id="JF126430" begin="720" fromJunction="J0" toJunction="J5" end="780" vehsPerHour="57.58421038210257"/>
  <flow id="JF126431" begin="720" fromJunction="J0" toJunction="J7" end="780" vehsPerHour="84.60989657574677"/>
  <flow id="JF126432" begin="720" fromJunction="J3" toJunction="J0" end="780" vehsPerHour="68.91391307528319"/>
  <flow id="JF126433" begin="720" fromJunction="J3" toJunction="J4" end="780" vehsPerHour="6.012555822848148"/>
  <flow id="JF126434" begin="720" fromJunction="J3" toJunction="J5" end="780" vehsPerHour="119.67575301611548"/>
  <flow id="JF126435" begin="720" fromJunction="J3" toJunction="J7" end="780" vehsPerHour="8.311591877247867"/>
  <flow id="JF126436" begin="720" fromJunction="J4" toJunction="J0" end="780" vehsPerHour="57.00471749948227"/>
  <flow id="JF126437" begin="720" fromJunction="J4" toJunction="J5" end="780" vehsPerHour="10.997473591837792"/>
  <flow id="JF126438" begin="720" fromJunction="J4" toJunction="J7" end="780" vehsPerHour="12.141529365743349"/>
  <flow id="JF126439" begin="720" fromJunction="J5" toJunction="J0" end="780" vehsPerHour="42.38184488276459"/>
  <flow id="JF126440" begin="720" fromJunction="J5" toJunction="J3" end="780" vehsPerHour="34.726973030759055"/>
  <flow id="JF126441" begin="720" fromJunction="J5" toJunction="J4" end="780" vehsPerHour="45.30653032951256"/>
  <flow id="JF126442" begin="720" fromJunction="J5" toJunction="J6" end="780" vehsPerHour="22.86662719215244"/>
  <flow id="JF126443" begin="720" fromJunction="J5" toJunction="J7" end="780" vehsPerHour="34.0955660863032"/>
  <flow id="JF126444" begin="720" fromJunction="J6" toJunction="J3" end="780" vehsPerHour="50.00276540339884"/>
  <flow id="JF126445" begin="720" fromJunction="J6" toJunction="J4" end="780" vehsPerHour="23.284376115897352"/>
  <flow id="JF126446" begin="720" fromJunction="J6" toJunction="J5" end="780" vehsPerHour="4.404127406371481"/>
  <flow id="JF126447" begin="720" fromJunction="J6" toJunction="J7" end="780" vehsPerHour="56.872688588780875"/>
  <flow id="JF126448" begin="720" fromJunction="J7" toJunction="J0" end="780" vehsPerHour="65.79435937785463"/>
  <flow id="JF126449" begin="720" fromJunction="J7" toJunction="J3" end="780" vehsPerHour="0.5095077541960401"/>
  <flow id="JF126450" begin="720" fromJunction="J7" toJunction="J4" end="780" vehsPerHour="59.09000336644496"/>