<?xml version="1.0" encoding="UTF-8"?>
<routes xmlns:xsi="http://www.w3.org/2001/XMLSchema-instance" xsi:noNamespaceSchemaLocation="http://sumo.dlr.de/xsd/routes_file.xsd">
  <flow id="JF122375" begin="0" fromJunction="J0" toJunction="J3" end="60" vehsPerHour="31.76212466979932"/>
  <flow id="JF122376" begin="0" fromJunction="J0" toJunction="J4" end="60" vehsPerHour="18.06803231264042"/>
  <flow id="JF122377" begin="0" fromJunction="J0" toJunction="J6" end="60" vehsPerHour="35.54692236761025"/>
  <flow id="JF122378" begin="0" fromJunction="J3" toJunction="J0" end="60" vehsPerHour="67.15748730832827"/>
  <flow id="JF122379" begin="0" fromJunction="J3" toJunction="J6" end="60" vehsPerHour="135.54323012319784"/>
  <flow id="JF122380" begin="0" fromJunction="J4" toJunction="J0" end="60" vehsPerHour="12.759419903782605"/>
  <flow id="JF122381" begin="0" fromJunction="J4" toJunction="J3" end="60" vehsPerHour="30.58954160632282"/>
  <flow id="JF122382" begin="0" fromJunction="J4" toJunction="J5" end="60" vehsPerHour="14.234200976378945"/>
  <flow id="JF122383" begin="0" fromJunction="J4" toJunction="J6" end="60" vehsPerHour="13.051228957157944"/>
  <flow id="JF122384" begin="0" fromJunction="J4" toJunction="J7" end="60" vehsPerHour="32.621211136791764"/>
  <flow id="JF122385" begin="0" fromJunction="J5" toJunction="J0" end="60" vehsPerHour="60.06629198742196"/>
  <flow id="JF122386" begin="0" fromJunction="J5" toJunction="J3" end="60" vehsPerHour="32.1687386181943"/>
  <flow id="JF122387" begin="0" fromJunction="J5" toJunction="J4" end="60" vehsPerHour="2.613338364454104"/>
  <flow id="JF122388" begin="0" fromJunction="J6" toJunction="J3" end="60" vehsPerHour="45.38357877845738"/>
  <flow id="JF122389" begin="0" fromJunction="J6" toJunction="J4" end="60" vehsPerHour="33.992671923143675"/>
  <flow id="JF122390" begin="0" fromJunction="J6" toJunction="J5" end="60" vehsPerHour="7.607345512450164"/>
  <flow id="JF122391" begin="0" fromJunction="J6" toJunction="J7" end="60" vehsPerHour="6.546631497497703"/>
  <flow id="JF122392" begin="0" fromJunction="J7" toJunction="J3" end="60" vehsPerHour="55.86145431850248"/>
  <flow id="JF122393" begin="0" fromJunction="J7" toJunction="J4" end="60" vehsPerHour="1.3919841077072856"/>
  <flow id="JF122394" begin="0" fromJunction="J7" toJunction="J5" end="60" vehsPerHour="48.01155279976843"/>
  <flow id="JF122395" begin="0" fromJunction="J7" toJunction="J6" end="60" vehsPerHour="10.40261615317574"/>
  <flow id="JF122396" begin="60" fromJunction="J0" toJunction="J3" end="120" vehsPerHour="121.61065690169801"/>
  <flow id="JF122397" begin="60" fromJunction="J0" toJunction="J5" end="120" vehsPerHour="94.78873446259787"/>
  <flow id="JF122398" begin="60" fromJunction="J0" toJunction="J7" end="120" vehsPerHour="117.87246678645909"/>
  <flow id="JF122399" begin="60" fromJunction="J3" toJunction="J0" end="120" vehsPerHour="85.84253076935174"/>
  <flow id="JF122400" begin="60" fromJunction="J3" toJunction="J5" end="120" vehsPerHour="136.35527989009057"/>
  <flow id="JF122401" begin="60" fromJunction="J3" toJunction="J6" end="120" vehsPerHour="104.54384764409579"/>
  <flow id="JF122402" begin="60" fromJunction="J4" toJunction="J0" end="120" vehsPerHour="57.6273924294352"/>
  <flow id="JF122403" begin="60" fromJunction="J4" toJunction="J3" end="120" vehsPerHour="20.21460884283085"/>
  <flow id="JF122404" begin="60" fromJunction="J4" toJunction="J6" end="120" vehsPerHour="65.14755262086472"/>
  <flow id="JF122405" begin="60" fromJunction="J4" toJunction="J7" end="120" vehsPerHour="8.090179385542227"/>
  <flow id="JF122406" begin="60" fromJunction="J5" toJunction="J0" end="120" vehsPerHour="13.39190544840917"/>
  <flow id="JF122407" begin="60" fromJunction="J5" toJunction="J7" end="120" vehsPerHour="57.036839760625725"/>
  <flow id="JF122408" begin="60" fromJunction="J6" toJunction="J0" end="120" vehsPerHour="14.517687390627996"/>
  <flow id="JF122409" begin="60" fromJunction="J6" toJunction="J5" end="120" vehsPerHour="16.134588184221844"/>
  <flow id="JF122410" begin="60" fromJunction="J6" toJunction="J7" end="120" vehsPerHour="12.41952874501493"/>
  <flow id="JF122411" begin="60" fromJunction="J7" toJunction="J3" end="120" vehsPerHour="5.04772501610653"/>
  <flow id="JF122412" begin="60" fromJunction="J7" toJunction="J4" end="120" vehsPerHour="28.290665540375652"/>
  <flow id="JF122413" begin="60" fromJunction="J7" toJunction="J5" end="120" vehsPerHour="54.605791664995735"/>
  <flow id="JF122414" begin="120" fromJunction="J0" toJunction="J3" end="180" vehsPerHour="30.6743806923088"/>
  <flow id="JF122415" begin="120" fromJunction="J0" toJunction="J5" end="180" vehsPerHour="7.975325886561956"/>
  <flow id="JF122416" begin="120" fromJunction="J0" toJunction="J6" end="180" vehsPerHour="117.46361121652754"/>
  <flow id="JF122417" begin="120" fromJunction="J3" toJunction="J4" end="180" vehsPerHour="104.61995181525965"/>
  <flow id="JF122418" begin="120" fromJunction="J3" toJunction="J5" end="180" vehsPerHour="31.688455516771707"/>
  <flow id="JF122419" begin="120" fromJunction="J4" toJunction="J0" end="180" vehsPerHour="10.739980369451777"/>
  <flow id="JF122420" begin="120" fromJunction="J4" toJunction="J3" end="180" vehsPerHour="24.046779232131087"/>
  <flow id="JF122421" begin="120" fromJunction="J4" toJunction="J5" end="180" vehsPerHour="26.042293443433522"/>
  <flow id="JF122422" begin="120" fromJunction="J4" toJunction="J7" end="180" vehsPerHour="8.611386726827256"/>
  <flow id="JF122423" begin="120" fromJunction="J5" toJunction="J0" end="180" vehsPerHour="24.506070652904775"/>
  <flow id="JF122424" begin="120" fromJunction="J5" toJunction="J3" end="180" vehsPerHour="0.6321262763792223"/>
  <flow id="JF122425" begin="120" fromJunction="J5" toJunction="J6" end="180" vehsPerHour="4.3933292407594875"/>
  <flow id="JF122426" begin="120" fromJunction="J5" toJunction="J7" end="180" vehsPerHour="14.395744016271092"/>
  <flow id="JF122427" begin="120" fromJunction="J6" toJunction="J3" end="180" vehsPerHour="27.866281145671184"/>
  <flow id="JF122428" begin="120" fromJunction="J6" toJunction="J5" end="180" vehsPerHour="6.891693217971155"/>
  <flow id="JF122429" begin="120" fromJunction="J6" toJunction="J7" end="180" vehsPerHour="52.96630871554639"/>
  <flow id="JF122430" begin="120" fromJunction="J7" toJunction="J0" end="180" vehsPerHour="60.52360311667784"/>
  <flow id="JF122431" begin="120" fromJunction="J7" toJunction="J3" end="180" vehsPerHour="33.54053698186641"/>
  <flow id="JF122432" begin="120" fromJunction="J7" toJunction="J4" end="180" vehsPerHour="10.26994147154348"/>
  <flow id="JF122433" begin="120" fromJunction="J7" toJunction="J6" end="180" vehsPerHour="28.62989379999036"/>
  <flow id="JF122434" begin="180" fromJunction="J0" toJunction="J3" end="240" vehsPerHour="104.47237415430128"/>
  <flow id="JF122435" begin="180" fromJunction="J0" toJunction="J4" end="240" vehsPerHour="33.54225817718822"/>
  <flow id="JF122436" begin="180" fromJunction="J0" toJunction="J5" end="240" vehsPerHour="113.2943008578123"/>
  <flow id="JF122437" begin="180" fromJunction="J3" toJunction="J4" end="240" vehsPerHour="12.73313804911674"/>
  <flow id="JF122438" begin="180" fromJunction="J3" toJunction="J5" end="240" vehsPerHour="90.82566323923642"/>
  <flow id="JF122439" begin="180" fromJunction="J3" toJunction="J6" end="240" vehsPerHour="135.6588103387036"/>
  <flow id="JF122440" begin="180" fromJunction="J4" toJunction="J0" end="240" vehsPerHour="44.955913811811094"/>
  <flow id="JF122441" begin="180" fromJunction="J4" toJunction="J3" end="240" vehsPerHour="56.33045491794976"/>
  <flow id="JF122442" begin="180" fromJunction="J4" toJunction="J5" end="240" vehsPerHour="6.782558074797438"/>
  <flow id="JF122443" begin="180" fromJunction="J4" toJunction="J6" end="240" vehsPerHour="30.685892150794512"/>
  <flow id="JF122444" begin="180" fromJunction="J4" toJunction="J7" end="240" vehsPerHour="46.54413616476294"/>
  <flow id="JF122445" begin="180" fromJunction="J5" toJunction="J3" end="240" vehsPerHour="45.61857887812304"/>
  <flow id="JF122446" begin="180" fromJunction="J5" toJunction="J4" end="240" vehsPerHour="0.4218766038597844"/>
  <flow id="JF122447" begin="180" fromJunction="J5" toJunction="J7" end="240" vehsPerHour="48.60958838618749"/>
  <flow id="JF122448" begin="180" fromJunction="J6" toJunction="J4" end="240" vehsPerHour="28.02809929603868"/>
  <flow id="JF122449" begin="180" fromJunction="J6" toJunction="J7" end="240" vehsPerHour="38.56856744327461"/>
  <flow id="JF122450" begin="180" fromJunction="J7" toJunction="J3" end="240" vehsPerHour="20.431387987009096"/>
  <flow id="JF122451" begin="180" fromJunction="J7" toJunction="J4" end="240" vehsPerHour="23.15247780362704"/>
  <flow id="JF122452" begin="180" fromJunction="J7" toJunction="J5" end="240" vehsPerHour="27.95918642716104"/>
  <flow id="JF122453" begin="240" fromJunction="J0" toJunction="J3" end="300" vehsPerHour="124.24838473409358"/>
  <flow id="JF122454" begin="240" fromJunction="J0" toJunction="J4" end="300" vehsPerHour="72.90863626448692"/>
  <flow id="JF122455" begin="240" fromJunction="J0" toJunction="J5" end="300" vehsPerHour="120.78095220914776"/>
  <flow id="JF122456" begin="240" fromJunction="J0" toJunction="J6" end="300" vehsPerHour="94.95551379328252"/>
  <flow id="JF122457" begin="240" fromJunction="J0" toJunction="J7" end="300" vehsPerHour="76.4535188903271"/>
  <flow id="JF122458" begin="240" fromJunction="J3" toJunction="J0" end="300" vehsPerHour="48.747626874788196"/>
  <flow id="JF122459" begin="240" fromJunction="J3" toJunction="J4" end="300" vehsPerHour="49.560012670254984"/>
  <flow id="JF122460" begin="240" fromJunction="J3" toJunction="J6" end="300" vehsPerHour="123.01150099369058"/>
  <flow id="JF122461" begin="240" fromJunction="J4" toJunction="J5" end="300" vehsPerHour="4.858799056557252"/>
  <flow id="JF122462" begin="240" fromJunction="J4" toJunction="J6" end="300" vehsPerHour="55.811614337935566"/>
  <flow id="JF122463" begin="240" fromJunction="J4" toJunction="J7" end="300" vehsPerHour="67.38353717267327"/>
  <flow id="JF122464" begin="240" fromJunction="J5" toJunction="J3" end="300" vehsPerHour="15.285515509503494"/>
  <flow id="JF122465" begin="240" fromJunction="J5" toJunction="J4" end="300" vehsPerHour="18.62206796691265"/>
  <flow id="JF122466" begin="240" fromJunction="J5" toJunction="J7" end="300" vehsPerHour="28.737987306408215"/>
  <flow id="JF122467" begin="240" fromJunction="J6" toJunction="J0" end="300" vehsPerHour="49.52762736876023"/>
  <flow id="JF122468" begin="240" fromJunction="J6" toJunction="J4" end="300" vehsPerHour="40.07497313130389"/>
  <flow id="JF122469" begin="240" fromJunction="J6" toJunction="J7" end="300" vehsPerHour="23.212630047402037"/>
  <flow id="JF122470" begin="240" fromJunction="J7" toJunction="J0" end="300" vehsPerHour="50.49267767961782"/>
  <flow id="JF122471" begin="240" fromJunction="J7" toJunction="J3" end="300" vehsPerHour="18.016892497123276"/>
  <flow id="JF122472" begin="240" fromJunction="J7" toJunction="J4" end="300" vehsPerHour="22.758434920480784"/>
  <flow id="JF122473" begin="240" fromJunction="J7" toJunction="J5" end="300" vehsPerHour="65.24064261232103"/>
  <flow id="JF122474" begin="300" fromJunction="J0" toJunction="J3" end="360" vehsPerHour="0.40543427480362704"/>
  <flow id="JF122475" begin="300" fromJunction="J0" toJunction="J4" end="360" vehsPerHour="90.30356542316898"/>
  <flow id="JF122476" begin="300" fromJunction="J0" toJunction="J6" end="360" vehsPerHour="81.54155623171981"/>
  <flow id="JF122477" begin="300" fromJunction="J3" toJunction="J5" end="360" vehsPerHour="91.64995040742919"/>
  <flow id="JF122478" begin="300" fromJunction="J3" toJunction="J6" end="360" vehsPerHour="41.832826017198215"/>
  <flow id="JF122479" begin="300" fromJunction="J3" toJunction="J7" end="360" vehsPerHour="41.212942822014725"/>
  <flow id="JF122480" begin="300" fromJunction="J4" toJunction="J0" end="360" vehsPerHour="18.108192645880404"/>
  <flow id="JF122481" begin="300" fromJunction="J4" toJunction="J3" end="360" vehsPerHour="9.241748074926239"/>
  <flow id="JF122482" begin="300" fromJunction="J4" toJunction="J6" end="360" vehsPerHour="2.3549318411113025"/>
  <flow id="JF122483" begin="300" fromJunction="J5" toJunction="J0" end="360" vehsPerHour="33.07501284042096"/>
  <flow id="JF122484" begin="300" fromJunction="J5" toJunction="J6" end="360" vehsPerHour="5.148777128595146"/>
  <flow id="JF122485" begin="300" fromJunction="J5" toJunction="J7" end="360" vehsPerHour="6.546894185815701"/>
  <flow id="JF122486" begin="300" fromJunction="J6" toJunction="J0" end="360" vehsPerHour="44.67857469380636"/>
  <flow id="JF122487" begin="300" fromJunction="J6" toJunction="J3" end="360" vehsPerHour="50.16596381244602"/>
  <flow id="JF122488" begin="300" fromJunction="J6" toJunction="J4" end="360" vehsPerHour="0.4235767628137284"/>
  <flow id="JF122489" begin="300" fromJunction="J6" toJunction="J5" end="360" vehsPerHour="7.68651093736563"/>
  <flow id="JF122490" begin="300" fromJunction="J6" toJunction="J7" end="360" vehsPerHour="3.583314057214451"/>
  <flow id="JF122491" begin="300" fromJunction="J7" toJunction="J3" end="360" vehsPerHour="50.78344806290129"/>
  <flow id="JF122492" begin="300" fromJunction="J7" toJunction="J5" end="360" vehsPerHour="63.82179222999166"/>
  <flow id="JF122493" begin="360" fromJunction="J0" toJunction="J3" end="420" vehsPerHour="42.43476104969734"/>
  <flow id="JF122494" begin="360" fromJunction="J0" toJunction="J5" end="420" vehsPerHour="105.19908136130816"/>
  <flow id="JF122495" begin="360" fromJunction="J0" toJunction="J7" end="420" vehsPerHour="81.83361897191052"/>
  <flow id="JF122496" begin="360" fromJunction="J3" toJunction="J0" end="420" vehsPerHour="43.87057101692603"/>
  <flow id="JF122497" begin="360" fromJunction="J3" toJunction="J4" end="420" vehsPerHour="59.30579844650454"/>
  <flow id="JF122498" begin="360" fromJunction="J3" toJunction="J5" end="420" vehsPerHour="86.2606560827702"/>
  <flow id="JF122499" begin="360" fromJunction="J3" toJunction="J6" end="420" vehsPerHour="122.71686322438396"/>
  <flow id="JF122500" begin="360" fromJunction="J4" toJunction="J0" end="420" vehsPerHour="63.953594735645154"/>
  <flow id="JF122501" begin="360" fromJunction="J4" toJunction="J3" end="420" vehsPerHour="37.87478232975021"/>
  <flow id="JF122502" begin="360" fromJunction="J4" toJunction="J6" end="420" vehsPerHour="5.60639448582631"/>
  <flow id="JF122503" begin="360" fromJunction="J5" toJunction="J3" end="420" vehsPerHour="22.80812689716266"/>
  <flow id="JF122504" begin="360" fromJunction="J5" toJunction="J6" end="420" vehsPerHour="3.2354691192112823"/>
  <flow id="JF122505" begin="360" fromJunction="J5" toJunction="J7" end="420" vehsPerHour="6.423427071082538"/>
  <flow id="JF122506" begin="360" fromJunction="J6" toJunction="J3" end="420" vehsPerHour="37.15530663155041"/>
  <flow id="JF122507" begin="360" fromJunction="J6" toJunction="J4" end="420" vehsPerHour="25.784148023550742"/>
  <flow id="JF122508" begin="360" fromJunction="J6" toJunction="J5" end="420" vehsPerHour="19.037551801181728"/>
  <flow id="JF122509" begin="360" fromJunction="J6" toJunction="J7" end="420" vehsPerHour="21.29228178011983"/>
  <flow id="JF122510" begin="360" fromJunction="J7" toJunction="J0" end="420" vehsPerHour="64.90383913284839"/>
  <flow id="JF122511" begin="360" fromJunction="J7" toJunction="J3" end="420" vehsPerHour="11.890568241762216"/>
  <flow id="JF122512" begin="360" fromJunction="J7" toJunction="J5" end="420" vehsPerHour="27.80845979587228"/>
  <flow id="JF122513" begin="420" fromJunction="J0" toJunction="J3" end="480" vehsPerHour="119.40033588381037"/>
  <flow id="JF122514" begin="420" fromJunction="J0" toJunction="J4" end="480" vehsPerHour="13.849595932255538"/>
  <flow id="JF122515" begin="420" fromJunction="J0" toJunction="J5" end="480" vehsPerHour="93.01859268859815"/>
  <flow id="JF122516" begin="420" fromJunction="J0" toJunction="J6" end="480" vehsPerHour="9.481871849057175"/>
  <flow id="JF122517" begin="420" fromJunction="J3" toJunction="J0" end="480" vehsPerHour="88.9416492964591"/>
  <flow id="JF122518" begin="420" fromJunction="J3" toJunction="J4" end="480" vehsPerHour="89.89215636349269"/>
  <flow id="JF122519" begin="420" fromJunction="J3" toJunction="J5" end="480" vehsPerHour="98.9231397950914"/>
  <flow id="JF122520" begin="420" fromJunction="J3" toJunction="J6" end="480" vehsPerHour="56.14905198017636"/>
  <flow id="JF122521" begin="420" fromJunction="J3" toJunction="J7" end="480" vehsPerHour="88.63207645779418"/>
  <flow id="JF122522" begin="420" fromJunction="J4" toJunction="J5" end="480" vehsPerHour="9.438140188378236"/>
  <flow id="JF122523" begin="420" fromJunction="J4" toJunction="J7" end="480" vehsPerHour="0.2895149864078041"/>
  <flow id="JF122524" begin="420" fromJunction="J5" toJunction="J3" end="480" vehsPerHour="24.249192992362552"/>
  <flow id="JF122525" begin="420" fromJunction="J5" toJunction="J4" end="480" vehsPerHour="42.01799583236321"/>
  <flow id="JF122526" begin="420" fromJunction="J5" toJunction="J6" end="480" vehsPerHour="26.297128931405943"/>
  <flow id="JF122527" begin="420" fromJunction="J5" toJunction="J7" end="480" vehsPerHour="42.59317639865885"/>
  <flow id="JF122528" begin="420" fromJunction="J6" toJunction="J3" end="480" vehsPerHour="37.60179666938079"/>
  <flow id="JF122529" begin="420" fromJunction="J6" toJunction="J4" end="480" vehsPerHour="59.45497868603951"/>
  <flow id="JF122530" begin="420" fromJunction="J6" toJunction="J5" end="480" vehsPerHour="13.632325352700658"/>
  <flow id="JF122531" begin="420" fromJunction="J6" toJunction="J7" end="480" vehsPerHour="53.578862508369944"/>
  <flow id="JF122532" begin="420" fromJunction="J7" toJunction="J0" end="480" vehsPerHour="48.45967764648152"/>
  <flow id="JF122533" begin="420" fromJunction="J7" toJunction="J3" end="480" vehsPerHour="63.82252751427107"/>
  <flow id="JF122534" begin="420" fromJunction="J7" toJunction="J5" end="480" vehsPerHour="68.56288079133661"/>
  <flow id="JF122535" begin="480" fromJunction="J0" toJunction="J4" end="540" vehsPerHour="131.6944394197413"/>
  <flow id="JF122536" begin="480" fromJunction="J0" toJunction="J6" end="540" vehsPerHour="106.88205211544668"/>
  <flow id="JF122537" begin="480" fromJunction="J0" toJunction="J7" end="540" vehsPerHour="20.15711639090753"/>
  <flow id="JF122538" begin="480" fromJunction="J3" toJunction="J0" end="540" vehsPerHour="68.20402049650853"/>
  <flow id="JF122539" begin="480" fromJunction="J3" toJunction="J4" end="540" vehsPerHour="39.29954618529181"/>
  <flow id="JF122540" begin="480" fromJunction="J3" toJunction="J5" end="540" vehsPerHour="95.38689814804289"/>
  <flow id="JF122541" begin="480" fromJunction="J3" toJunction="J6" end="540" vehsPerHour="110.69823205130078"/>
  <flow id="JF122542" begin="480" fromJunction="J3" toJunction="J7" end="540" vehsPerHour="32.455725789152645"/>
  <flow id="JF122543" begin="480" fromJunction="J4" toJunction="J0" end="540" vehsPerHour="64.16490876285366"/>
  <flow id="JF122544" begin="480" fromJunction="J4" toJunction="J3" end="540" vehsPerHour="48.05635103674969"/>
  <flow id="JF122545" begin="480" fromJunction="J4" toJunction="J6" end="540" vehsPerHour="5.628151660025328"/>
  <flow id="JF122546" begin="480" fromJunction="J4" toJunction="J7" end="540" vehsPerHour="63.70854802954454"/>
  <flow id="JF122547" begin="480" fromJunction="J5" toJunction="J0" end="540" vehsPerHour="6.879921013753207"/>
  <flow id="JF122548" begin="480" fromJunction="J5" toJunction="J3" end="540" vehsPerHour="28.545242178672364"/>
  <flow id="JF122549" begin="480" fromJunction="J5" toJunction="J4" end="540" vehsPerHour="15.147193290339768"/>
  <flow id="JF122550" begin="480" fromJunction="J5" toJunction="J6" end="540" vehsPerHour="42.17025615081389"/>
  <flow id="JF122551" begin="480" fromJunction="J5" toJunction="J7" end="540" vehsPerHour="43.08627269236901"/>
  <flow id="JF122552" begin="480" fromJunction="J6" toJunction="J0" end="540" vehsPerHour="9.151057966611212"/>
  <flow id="JF122553" begin="480" fromJunction="J6" toJunction="J3" end="540" vehsPerHour="59.452230945535185"/>
  <flow id="JF122554" begin="480" fromJunction="J6" toJunction="J5" end="540" vehsPerHour="6.220536889101758"/>
  <flow id="JF122555" begin="480" fromJunction="J6" toJunction="J7" end="540" vehsPerHour="68.2636726660851"/>
  <flow id="JF122556" begin="480" fromJunction="J7" toJunction="J4" end="540" vehsPerHour="14.712649177002666"/>
  <flow id="JF122557" begin="480" fromJunction="J7" toJunction="J6" end="540" vehsPerHour="57.02154315586057"/>
  <flow id="JF122558" begin="540" fromJunction="J0" toJunction="J3" end="600" vehsPerHour="29.581189082080215"/>
  <flow id="JF122559" begin="540" fromJunction="J0" toJunction="J4" end="600" vehsPerHour="66.96142719201995"/>
  <flow id="JF122560" begin="540" fromJunction="J0" toJunction="J6" end="600" vehsPerHour="8.82038645581908"/>
  <flow id="JF122561" begin="540" fromJunction="J0" toJunction="J7" end="600" vehsPerHour="55.220045217597814"/>
  <flow id="JF122562" begin="540" fromJunction="J3" toJunction="J5" end="600" vehsPerHour="78.58738196793028"/>
  <flow id="JF122563" begin="540" fromJunction="J3" toJunction="J6" end="600" vehsPerHour="86.06184223231585"/>
  <flow id="JF122564" begin="540" fromJunction="J3" toJunction="J7" end="600" vehsPerHour="22.56038625874252"/>
  <flow id="JF122565" begin="540" fromJunction="J4" toJunction="J0" end="600" vehsPerHour="28.86875016547677"/>
  <flow id="JF122566" begin="540" fromJunction="J4" toJunction="J3" end="600" vehsPerHour="20.873531794780313"/>
  <flow id="JF122567" begin="540" fromJunction="J4" toJunction="J5" end="600" vehsPerHour="65.95478922405206"/>
  <flow id="JF122568" begin="540" fromJunction="J4" toJunction="J6" end="600" vehsPerHour="56.60423546675436"/>
  <flow id="JF122569" begin="540" fromJunction="J5" toJunction="J0" end="600" vehsPerHour="1.8860026667433425"/>
  <flow id="JF122570" begin="540" fromJunction="J5" toJunction="J3" end="600" vehsPerHour="19.33211841286655"/>
  <flow id="JF122571" begin="540" fromJunction="J5" toJunction="J6" end="600" vehsPerHour="24.24965745235216"/>
  <flow id="JF122572" begin="540" fromJunction="J5" toJunction="J7" end="600" vehsPerHour="25.648276474616942"/>
  <flow id="JF122573" begin="540" fromJunction="J6" toJunction="J7" end="600" vehsPerHour="36.57942104325528"/>
  <flow id="JF122574" begin="540" fromJunction="J7" toJunction="J4" end="600" vehsPerHour="7.3192904962802725"/>
  <flow id="JF122575" begin="540" fromJunction="J7" toJunction="J5" end="600" vehsPerHour="39.02580697838109"/>
  <flow id="JF122576" begin="600" fromJunction="J0" toJunction="J3" end="660" vehsPerHour="128.5907614847762"/>
  <flow id="JF122577" begin="600" fromJunction="J0" toJunction="J4" end="660" vehsPerHour="22.613106527889116"/>
  <flow id="JF122578" begin="600" fromJunction="J0" toJunction="J6" end="660" vehsPerHour="133.91021087898832"/>
  <flow id="JF122579" begin="600" fromJunction="J3" toJunction="J0" end="660" vehsPerHour="37.04658397137672"/>
  <flow id="JF122580" begin="600" fromJunction="J3" toJunction="J4" end="660" vehsPerHour="115.01909911815156"/>
  <flow id="JF122581" begin="600" fromJunction="J3" toJunction="J5" end="660" vehsPerHour="131.21734834835192"/>
  <flow id="JF122582" begin="600" fromJunction="J3" toJunction="J6" end="660" vehsPerHour="17.410876747598508"/>
  <flow id="JF122583" begin="600" fromJunction="J4" toJunction="J3" end="660" vehsPerHour="24.731637424445108"/>
  <flow id="JF122584" begin="600" fromJunction="J4" toJunction="J6" end="660" vehsPerHour="40.8309391256081"/>
  <flow id="JF122585" begin="600" fromJunction="J5" toJunction="J0" end="660" vehsPerHour="16.510567913328973"/>
  <flow id="JF122586" begin="600" fromJunction="J5" toJunction="J3" end="660" vehsPerHour="33.545869877048865"/>
  <flow id="JF122587" begin="600" fromJunction="J5" toJunction="J4" end="660" vehsPerHour="39.50213803936991"/>
  <flow id="JF122588" begin="600" fromJunction="J5" toJunction="J6" end="660" vehsPerHour="67.58509281605066"/>
  <flow id="JF122589" begin="600" fromJunction="J6" toJunction="J0" end="660" vehsPerHour="65.67370999934944"/>
  <flow id="JF122590" begin="600" fromJunction="J6" toJunction="J3" end="660" vehsPerHour="31.940139698828098"/>
  <flow id="JF122591" begin="600" fromJunction="J6" toJunction="J4" end="660" vehsPerHour="35.07075152152946"/>
  <flow id="JF122592" begin="600" fromJunction="J6" toJunction="J5" end="660" vehsPerHour="45.82801022961472"/>
  <flow id="JF122593" begin="600" fromJunction="J7" toJunction="J3" end="660" vehsPerHour="3.814754263315559"/>
  <flow id="JF122594" begin="600" fromJunction="J7" toJunction="J4" end="660" vehsPerHour="56.7342248190537"/>
  <flow id="JF122595" begin="600" fromJunction="J7" toJunction="J6" end="660" vehsPerHour="43.149662944368615"/>
  <flow id="JF122596" begin="660" fromJunction="J0" toJunction="J3" end="720" vehsPerHour="30.971181404358546"/>
  <flow id="JF122597" begin="660" fromJunction="J0" toJunction="J4" end="720" vehsPerHour="117.35255529512622"/>
  <flow id="JF122598" begin="660" fromJunction="J0" toJunction="J6" end="720" vehsPerHour="43.56041524660448"/>
  <flow id="JF122599" begin="660" fromJunction="J0" toJunction="J7" end="720" vehsPerHour="73.01567932265073"/>
  <flow id="JF122600" begin="660" fromJunction="J3" toJunction="J0" end="720" vehsPerHour="16.04979769387556"/>
  <flow id="JF122601" begin="660" fromJunction="J3" toJunction="J4" end="720" vehsPerHour="130.85906602650311"/>
  <flow id="JF122602" begin="660" fromJunction="J3" toJunction="J5" end="720" vehsPerHour="0.3784398941225043"/>
  <flow id="JF122603" begin="660" fromJunction="J3" toJunction="J6" end="720" vehsPerHour="127.42383191067064"/>
  <flow id="JF122604" begin="660" fromJunction="J3" toJunction="J7" end="720" vehsPerHour="84.48353556962245"/>
  <flow id="JF122605" begin="660" fromJunction="J4" toJunction="J0" end="720" vehsPerHour="5.956794481816058"/>
  <flow id="JF122606" begin="660" fromJunction="J4" toJunction="J5" end="720" vehsPerHour="27.57834803496937"/>
  <flow id="JF122607" begin="660" fromJunction="J5" toJunction="J4" end="720" vehsPerHour="59.93418732118247"/>
  <flow id="JF122608" begin="660" fromJunction="J6" toJunction="J3" end="720" vehsPerHour="62.37507888991985"/>
  <flow id="JF122609" begin="660" fromJunction="J6" toJunction="J4" end="720" vehsPerHour="60.97156680066624"/>
  <flow id="JF122610" begin="660" fromJunction="J6" toJunction="J5" end="720" vehsPerHour="47.08324676654826"/>
  <flow id="JF122611" begin="660" fromJunction="J6" toJunction="J7" end="720" vehsPerHour="24.897617012539218"/>
  <flow id="JF122612" begin="660" fromJunction="J7" toJunction="J0" end="720" vehsPerHour="16.618928436630135"/>
  <flow id="JF122613" begin="660" fromJunction="J7" toJunction="J4" end="720" vehsPerHour="7.069059564665486"/>
  <flow id="JF122614" begin="660" fromJunction="J7" toJunction="J6" end="720" vehsPerHour="42.932850340706814"/>
  <flow id="JF122615" begin="720" fromJunction="J0" toJunction="J3" end="780" vehsPerHour="100.39379535020115"/>
  <flow id="JF122616" begin="720" fromJunction="J0" toJunction="J5" end="780" vehsPerHour="2.414480349565462"/>
  <flow id="JF122617" begin="720" fromJunction="J0" toJunction="J6" end="780" vehsPerHour="116.42838365363819"/>
  <flow id="JF122618" begin="720" fromJunction="J0" toJunction="J7" end="780" vehsPerHour="69.4983408865365"/>
  <flow id="JF122619" begin="720" fromJunction="J3" toJunction="J5" end="780" vehsPerHour="68.55739014551794"/>
  <flow id="JF122620" begin="720" fromJunction="J3" toJunction="J7" end="780" vehsPerHour="40.78774514765579"/>
  <flow id="JF122621" begin="720" fromJunction="J4" toJunction="J0" end="780" vehsPerHour="30.248139683129533"/>
  <flow id="JF122622" begin="720" fromJunction="J4" toJunction="J5" end="780" vehsPerHour="11.54178660314356"/>
  <flow id="JF122623" begin="720" fromJunction="J4" toJunction="J7" end="780" vehsPerHour="10.93102241297619"/>
  <flow id="JF122624" begin="720" fromJunction="J5" toJunction="J0" end="780" vehsPerHour="5.030720914674654"/>
  <flow id="JF122625" begin="720" fromJunction="J5" toJunction="J3" end="780" vehsPerHour="43.15004057830835"/>
  <flow id="JF122626" begin="720" fromJunction="J5" toJunction="J7" end="780" vehsPerHour="39.02867234282903"/>
  <flow id="JF122627" begin="720" fromJunction="J6" toJunction="J0" end="780" vehsPerHour="41.766037589121986"/>
  <flow id="JF122628" begin="720" fromJunction="J6" toJunction="J3" end="780" vehsPerHour="3.08980935222113"/>
  <flow id="JF122629" begin="720" fromJunction="J6" toJunction="J4" end="780" vehsPerHour="55.65356120577928"/>
  <flow id="JF122630" begin="720" fromJunction="J6" toJunction="J7" end="780" vehsPerHour="49.295473979141434"/>
  <flow id="JF122631" begin="720" fromJunction="J7" toJunction="J4" end="780" vehsPerHour="22.185492094000423"/>
  <flow id="JF122632" begin="720" fromJunction="J7" toJunction="J6" end="780" vehsPerHour="3.365883075232305"/>
  <flow id="JF122633" begin="780" fromJunction="J0" toJunction="J3" end="840" vehsPerHour="96.7282088276453"/>
  <flow id="JF122634" begin="780" fromJunction="J0" toJunction="J5" end="840" vehsPerHour="133.8444444285594"/>
  <flow id="JF122635" begin="780" fromJunction="J0" toJunction="J7" end="840" vehsPerHour="22.571367783838078"/>
  <flow id="JF122636" begin="780" fromJunction="J3" toJunction="J0" end="840" vehsPerHour="71.14508221699087"/>
  <flow id="JF122637" begin="780" fromJunction="J3" toJunction="J4" end="840" vehsPerHour="72.08784079496846"/>
  <flow id="JF122638" begin="780" fromJunction="J4" toJunction="J3" end="840" vehsPerHour="35.04554848965606"/>
  <flow id="JF122639" begin="780" fromJunction="J4" toJunction="J6" end="840" vehsPerHour="38.89751709120605"/>
  <flow id="JF122640" begin="780" fromJunction="J4" toJunction="J7" end="840" vehsPerHour="21.82306084314074"/>