<?xml version="1.0" encoding="UTF-8"?>
<routes xmlns:xsi="http://www.w3.org/2001/XMLSchema-instance" xsi:noNamespaceSchemaLocation="http://sumo.dlr.de/xsd/routes_file.xsd">
  <flow id="JF96493" begin="0" fromJunction="J0" toJunction="J3" end="60" vehsPerHour="124.0946648483138"/>
  <flow id="JF96494" begin="0" fromJunction="J0" toJunction="J6" end="60" vehsPerHour="67.65643824198622"/>
  <flow id="JF96495" begin="0" fromJunction="J0" toJunction="J7" end="60" vehsPerHour="82.79289886622749"/>
  <flow id="JF96496" begin="0" fromJunction="J3" toJunction="J0" end="60" vehsPerHour="109.17942923347755"/>
  <flow id="JF96497" begin="0" fromJunction="J3" toJunction="J4" end="60" vehsPerHour="31.239926859123006"/>
  <flow id="JF96498" begin="0" fromJunction="J3" toJunction="J5" end="60" vehsPerHour="104.00283642336201"/>
  <flow id="JF96499" begin="0" fromJunction="J4" toJunction="J0" end="60" vehsPerHour="48.111236048927594"/>
  <flow id="JF96500" begin="0" fromJunction="J4" toJunction="J5" end="60" vehsPerHour="40.086409499527626"/>
  <flow id="JF96501" begin="0" fromJunction="J5" toJunction="J0" end="60" vehsPerHour="14.871934761715668"/>
  <flow id="JF96502" begin="0" fromJunction="J5" toJunction="J3" end="60" vehsPerHour="52.14159581284431"/>
  <flow id="JF96503" begin="0" fromJunction="J5" toJunction="J4" end="60" vehsPerHour="16.78516511173638"/>
  <flow id="JF96504" begin="0" fromJunction="J6" toJunction="J5" end="60" vehsPerHour="64.59354480055644"/>
  <flow id="JF96505" begin="0" fromJunction="J7" toJunction="J3" end="60" vehsPerHour="35.45592942207244"/>
  <flow id="JF96506" begin="0" fromJunction="J7" toJunction="J4" end="60" vehsPerHour="11.09414146534082"/>
  <flow id="JF96507" begin="0" fromJunction="J7" toJunction="J6" end="60" vehsPerHour="18.006221235454095"/>
  <flow id="JF96508" begin="60" fromJunction="J0" toJunction="J3" end="120" vehsPerHour="88.10252461990449"/>
  <flow id="JF96509" begin="60" fromJunction="J0" toJunction="J4" end="120" vehsPerHour="90.84615892737106"/>
  <flow id="JF96510" begin="60" fromJunction="J0" toJunction="J5" end="120" vehsPerHour="18.63417985977812"/>
  <flow id="JF96511" begin="60" fromJunction="J0" toJunction="J6" end="120" vehsPerHour="21.787590541356707"/>
  <flow id="JF96512" begin="60" fromJunction="J0" toJunction="J7" end="120" vehsPerHour="75.30522652678773"/>
  <flow id="JF96513" begin="60" fromJunction="J3" toJunction="J5" end="120" vehsPerHour="44.74029299799936"/>
  <flow id="JF96514" begin="60" fromJunction="J3" toJunction="J7" end="120" vehsPerHour="114.66232461266497"/>
  <flow id="JF96515" begin="60" fromJunction="J4" toJunction="J0" end="120" vehsPerHour="33.23768026273854"/>
  <flow id="JF96516" begin="60" fromJunction="J4" toJunction="J3" end="120" vehsPerHour="42.42083844603025"/>
  <flow id="JF96517" begin="60" fromJunction="J4" toJunction="J5" end="120" vehsPerHour="10.838209450448604"/>
  <flow id="JF96518" begin="60" fromJunction="J4" toJunction="J6" end="120" vehsPerHour="44.782185571421444"/>
  <flow id="JF96519" begin="60" fromJunction="J4" toJunction="J7" end="120" vehsPerHour="8.309901105543586"/>
  <flow id="JF96520" begin="60" fromJunction="J5" toJunction="J0" end="120" vehsPerHour="49.04643032350641"/>
  <flow id="JF96521" begin="60" fromJunction="J5" toJunction="J4" end="120" vehsPerHour="25.919489868702108"/>
  <flow id="JF96522" begin="60" fromJunction="J6" toJunction="J0" end="120" vehsPerHour="20.818691335137384"/>
  <flow id="JF96523" begin="60" fromJunction="J6" toJunction="J4" end="120" vehsPerHour="37.839700201897045"/>
  <flow id="JF96524" begin="60" fromJunction="J6" toJunction="J7" end="120" vehsPerHour="41.67450860806798"/>
  <flow id="JF96525" begin="60" fromJunction="J7" toJunction="J4" end="120" vehsPerHour="53.213625656985954"/>
  <flow id="JF96526" begin="60" fromJunction="J7" toJunction="J5" end="120" vehsPerHour="1.7593062525839351"/>
  <flow id="JF96527" begin="60" fromJunction="J7" toJunction="J6" end="120" vehsPerHour="65.25525371408924"/>
  <flow id="JF96528" begin="120" fromJunction="J0" toJunction="J3" end="180" vehsPerHour="8.354435538571774"/>
  <flow id="JF96529" begin="120" fromJunction="J0" toJunction="J4" end="180" vehsPerHour="104.32639738033362"/>
  <flow id="JF96530" begin="120" fromJunction="J0" toJunction="J5" end="180" vehsPerHour="0.06478247350283049"/>
  <flow id="JF96531" begin="120" fromJunction="J0" toJunction="J6" end="180" vehsPerHour="97.36971379434425"/>
  <flow id="JF96532" begin="120" fromJunction="J0" toJunction="J7" end="180" vehsPerHour="59.43798142758136"/>
  <flow id="JF96533" begin="120" fromJunction="J3" toJunction="J0" end="180" vehsPerHour="135.28272638622923"/>
  <flow id="JF96534" begin="120" fromJunction="J3" toJunction="J5" end="180" vehsPerHour="123.04473616794795"/>
  <flow id="JF96535" begin="120" fromJunction="J3" toJunction="J6" end="180" vehsPerHour="125.6243862904337"/>
  <flow id="JF96536" begin="120" fromJunction="J3" toJunction="J7" end="180" vehsPerHour="73.36858770368919"/>
  <flow id="JF96537" begin="120" fromJunction="J4" toJunction="J0" end="180" vehsPerHour="58.838168944374345"/>
  <flow id="JF96538" begin="120" fromJunction="J4" toJunction="J3" end="180" vehsPerHour="35.420711775464866"/>
  <flow id="JF96539" begin="120" fromJunction="J4" toJunction="J5" end="180" vehsPerHour="48.040073805163644"/>
  <flow id="JF96540" begin="120" fromJunction="J4" toJunction="J6" end="180" vehsPerHour="51.52486182443239"/>
  <flow id="JF96541" begin="120" fromJunction="J4" toJunction="J7" end="180" vehsPerHour="51.352956861605875"/>
  <flow id="JF96542" begin="120" fromJunction="J5" toJunction="J3" end="180" vehsPerHour="57.54320432894194"/>
  <flow id="JF96543" begin="120" fromJunction="J5" toJunction="J4" end="180" vehsPerHour="34.71634071309163"/>
  <flow id="JF96544" begin="120" fromJunction="J5" toJunction="J6" end="180" vehsPerHour="10.905281431067236"/>
  <flow id="JF96545" begin="120" fromJunction="J5" toJunction="J7" end="180" vehsPerHour="40.92007426862066"/>
  <flow id="JF96546" begin="120" fromJunction="J6" toJunction="J0" end="180" vehsPerHour="59.572390811048486"/>
  <flow id="JF96547" begin="120" fromJunction="J6" toJunction="J3" end="180" vehsPerHour="59.18321792375928"/>
  <flow id="JF96548" begin="120" fromJunction="J6" toJunction="J4" end="180" vehsPerHour="37.95818330513938"/>
  <flow id="JF96549" begin="120" fromJunction="J6" toJunction="J7" end="180" vehsPerHour="7.172789178965044"/>
  <flow id="JF96550" begin="120" fromJunction="J7" toJunction="J0" end="180" vehsPerHour="36.90251775899402"/>
  <flow id="JF96551" begin="120" fromJunction="J7" toJunction="J4" end="180" vehsPerHour="40.1203147167259"/>
  <flow id="JF96552" begin="120" fromJunction="J7" toJunction="J5" end="180" vehsPerHour="12.125786459695084"/>
  <flow id="JF96553" begin="180" fromJunction="J0" toJunction="J3" end="240" vehsPerHour="2.0555683625149337"/>
  <flow id="JF96554" begin="180" fromJunction="J0" toJunction="J5" end="240" vehsPerHour="96.99613308746564"/>
  <flow id="JF96555" begin="180" fromJunction="J0" toJunction="J6" end="240" vehsPerHour="113.67703030094492"/>
  <flow id="JF96556" begin="180" fromJunction="J3" toJunction="J0" end="240" vehsPerHour="45.977194013871454"/>
  <flow id="JF96557" begin="180" fromJunction="J3" toJunction="J4" end="240" vehsPerHour="33.2784449534885"/>
  <flow id="JF96558" begin="180" fromJunction="J3" toJunction="J6" end="240" vehsPerHour="119.42868374691531"/>
  <flow id="JF96559" begin="180" fromJunction="J3" toJunction="J7" end="240" vehsPerHour="84.06409420273125"/>
  <flow id="JF96560" begin="180" fromJunction="J4" toJunction="J5" end="240" vehsPerHour="34.1841835164487"/>
  <flow id="JF96561" begin="180" fromJunction="J4" toJunction="J6" end="240" vehsPerHour="2.0921235949978927"/>
  <flow id="JF96562" begin="180" fromJunction="J5" toJunction="J0" end="240" vehsPerHour="43.4718954632328"/>
  <flow id="JF96563" begin="180" fromJunction="J5" toJunction="J3" end="240" vehsPerHour="6.132070087993274"/>
  <flow id="JF96564" begin="180" fromJunction="J5" toJunction="J4" end="240" vehsPerHour="60.39823555337628"/>
  <flow id="JF96565" begin="180" fromJunction="J5" toJunction="J6" end="240" vehsPerHour="26.675612350375992"/>
  <flow id="JF96566" begin="180" fromJunction="J5" toJunction="J7" end="240" vehsPerHour="51.30280820385912"/>
  <flow id="JF96567" begin="180" fromJunction="J6" toJunction="J0" end="240" vehsPerHour="14.40464990716468"/>
  <flow id="JF96568" begin="180" fromJunction="J6" toJunction="J3" end="240" vehsPerHour="66.64326966606755"/>
  <flow id="JF96569" begin="180" fromJunction="J6" toJunction="J4" end="240" vehsPerHour="49.22734878441583"/>
  <flow id="JF96570" begin="180" fromJunction="J6" toJunction="J7" end="240" vehsPerHour="33.339698179387376"/>
  <flow id="JF96571" begin="180" fromJunction="J7" toJunction="J0" end="240" vehsPerHour="3.9490147873268433"/>
  <flow id="JF96572" begin="180" fromJunction="J7" toJunction="J3" end="240" vehsPerHour="16.464018665496155"/>
  <flow id="JF96573" begin="180" fromJunction="J7" toJunction="J5" end="240" vehsPerHour="5.347005152951908"/>
  <flow id="JF96574" begin="180" fromJunction="J7" toJunction="J6" end="240" vehsPerHour="64.52707494339366"/>
  <flow id="JF96575" begin="240" fromJunction="J0" toJunction="J3" end="300" vehsPerHour="54.43569931807013"/>
  <flow id="JF96576" begin="240" fromJunction="J0" toJunction="J6" end="300" vehsPerHour="59.712869382768325"/>
  <flow id="JF96577" begin="240" fromJunction="J0" toJunction="J7" end="300" vehsPerHour="79.46966761147225"/>
  <flow id="JF96578" begin="240" fromJunction="J3" toJunction="J0" end="300" vehsPerHour="132.76168863682483"/>
  <flow id="JF96579" begin="240" fromJunction="J3" toJunction="J5" end="300" vehsPerHour="97.48741988936756"/>
  <flow id="JF96580" begin="240" fromJunction="J3" toJunction="J6" end="300" vehsPerHour="84.22604715906655"/>
  <flow id="JF96581" begin="240" fromJunction="J3" toJunction="J7" end="300" vehsPerHour="115.40418845167123"/>
  <flow id="JF96582" begin="240" fromJunction="J4" toJunction="J0" end="300" vehsPerHour="14.264088477813539"/>
  <flow id="JF96583" begin="240" fromJunction="J4" toJunction="J3" end="300" vehsPerHour="58.36434720280276"/>
  <flow id="JF96584" begin="240" fromJunction="J4" toJunction="J5" end="300" vehsPerHour="24.792085613359287"/>
  <flow id="JF96585" begin="240" fromJunction="J4" toJunction="J6" end="300" vehsPerHour="31.01990074888538"/>
  <flow id="JF96586" begin="240" fromJunction="J4" toJunction="J7" end="300" vehsPerHour="42.07881513804567"/>
  <flow id="JF96587" begin="240" fromJunction="J5" toJunction="J0" end="300" vehsPerHour="8.489868987554656"/>
  <flow id="JF96588" begin="240" fromJunction="J5" toJunction="J6" end="300" vehsPerHour="43.64858265191342"/>
  <flow id="JF96589" begin="240" fromJunction="J6" toJunction="J3" end="300" vehsPerHour="51.80262353667749"/>
  <flow id="JF96590" begin="240" fromJunction="J6" toJunction="J4" end="300" vehsPerHour="63.73250806050615"/>
  <flow id="JF96591" begin="240" fromJunction="J6" toJunction="J5" end="300" vehsPerHour="46.23896685376594"/>
  <flow id="JF96592" begin="240" fromJunction="J6" toJunction="J7" end="300" vehsPerHour="52.31210304641827"/>
  <flow id="JF96593" begin="240" fromJunction="J7" toJunction="J0" end="300" vehsPerHour="68.29385220780145"/>
  <flow id="JF96594" begin="240" fromJunction="J7" toJunction="J3" end="300" vehsPerHour="27.03926025679108"/>
  <flow id="JF96595" begin="240" fromJunction="J7" toJunction="J4" end="300" vehsPerHour="39.973754687767276"/>
  <flow id="JF96596" begin="240" fromJunction="J7" toJunction="J5" end="300" vehsPerHour="39.20794462390104"/>
  <flow id="JF96597" begin="240" fromJunction="J7" toJunction="J6" end="300" vehsPerHour="15.217766837898742"/>
  <flow id="JF96598" begin="300" fromJunction="J0" toJunction="J3" end="360" vehsPerHour="27.10683739121319"/>
  <flow id="JF96599" begin="300" fromJunction="J0" toJunction="J5" end="360" vehsPerHour="128.4752146950426"/>
  <flow id="JF96600" begin="300" fromJunction="J0" toJunction="J6" end="360" vehsPerHour="93.03256153068803"/>
  <flow id="JF96601" begin="300" fromJunction="J0" toJunction="J7" end="360" vehsPerHour="62.552518370564016"/>
  <flow id="JF96602" begin="300" fromJunction="J3" toJunction="J6" end="360" vehsPerHour="122.68577193764003"/>
  <flow id="JF96603" begin="300" fromJunction="J4" toJunction="J3" end="360" vehsPerHour="52.516612893616525"/>
  <flow id="JF96604" begin="300" fromJunction="J4" toJunction="J5" end="360" vehsPerHour="60.460657567290845"/>
  <flow id="JF96605" begin="300" fromJunction="J4" toJunction="J6" end="360" vehsPerHour="67.40450394195533"/>
  <flow id="JF96606" begin="300" fromJunction="J4" toJunction="J7" end="360" vehsPerHour="4.622044316538329"/>
  <flow id="JF96607" begin="300" fromJunction="J5" toJunction="J0" end="360" vehsPerHour="6.0484523572080064"/>
  <flow id="JF96608" begin="300" fromJunction="J5" toJunction="J3" end="360" vehsPerHour="56.57957291425023"/>
  <flow id="JF96609" begin="300" fromJunction="J5" toJunction="J6" end="360" vehsPerHour="67.83984089573376"/>
  <flow id="JF96610" begin="300" fromJunction="J6" toJunction="J3" end="360" vehsPerHour="18.91126121817983"/>
  <flow id="JF96611" begin="300" fromJunction="J6" toJunction="J4" end="360" vehsPerHour="41.97856657921429"/>
  <flow id="JF96612" begin="300" fromJunction="J6" toJunction="J7" end="360" vehsPerHour="45.41750632699727"/>
  <flow id="JF96613" begin="300" fromJunction="J7" toJunction="J0" end="360" vehsPerHour="63.286497719376705"/>
  <flow id="JF96614" begin="300" fromJunction="J7" toJunction="J3" end="360" vehsPerHour="39.595082735583134"/>
  <flow id="JF96615" begin="300" fromJunction="J7" toJunction="J4" end="360" vehsPerHour="57.63922335929019"/>
  <flow id="JF96616" begin="300" fromJunction="J7" toJunction="J5" end="360" vehsPerHour="51.8613545339904"/>
  <flow id="JF96617" begin="360" fromJunction="J0" toJunction="J3" end="420" vehsPerHour="43.37501846388931"/>
  <flow id="JF96618" begin="360" fromJunction="J0" toJunction="J4" end="420" vehsPerHour="133.50163937480912"/>
  <flow id="JF96619" begin="360" fromJunction="J0" toJunction="J5" end="420" vehsPerHour="36.143074691742854"/>
  <flow id="JF96620" begin="360" fromJunction="J3" toJunction="J0" end="420" vehsPerHour="79.48081318576578"/>
  <flow id="JF96621" begin="360" fromJunction="J3" toJunction="J6" end="420" vehsPerHour="83.53629816635758"/>
  <flow id="JF96622" begin="360" fromJunction="J3" toJunction="J7" end="420" vehsPerHour="62.07255128804245"/>
  <flow id="JF96623" begin="360" fromJunction="J4" toJunction="J0" end="420" vehsPerHour="22.570152169618726"/>
  <flow id="JF96624" begin="360" fromJunction="J4" toJunction="J3" end="420" vehsPerHour="10.402865601024239"/>
  <flow id="JF96625" begin="360" fromJunction="J4" toJunction="J5" end="420" vehsPerHour="38.89900231494331"/>
  <flow id="JF96626" begin="360" fromJunction="J4" toJunction="J6" end="420" vehsPerHour="46.27638014676493"/>
  <flow id="JF96627" begin="360" fromJunction="J4" toJunction="J7" end="420" vehsPerHour="29.97066397728707"/>
  <flow id="JF96628" begin="360" fromJunction="J5" toJunction="J3" end="420" vehsPerHour="50.55588904069277"/>
  <flow id="JF96629" begin="360" fromJunction="J5" toJunction="J6" end="420" vehsPerHour="37.2008067310153"/>
  <flow id="JF96630" begin="360" fromJunction="J5" toJunction="J7" end="420" vehsPerHour="11.87802280283319"/>
  <flow id="JF96631" begin="360" fromJunction="J6" toJunction="J3" end="420" vehsPerHour="0.4780860081274635"/>
  <flow id="JF96632" begin="360" fromJunction="J6" toJunction="J4" end="420" vehsPerHour="24.64163358814268"/>
  <flow id="JF96633" begin="360" fromJunction="J6" toJunction="J7" end="420" vehsPerHour="49.62203636813449"/>
  <flow id="JF96634" begin="360" fromJunction="J7" toJunction="J0" end="420" vehsPerHour="10.471076309567376"/>
  <flow id="JF96635" begin="360" fromJunction="J7" toJunction="J3" end="420" vehsPerHour="29.490151540098733"/>
  <flow id="JF96636" begin="360" fromJunction="J7" toJunction="J5" end="420" vehsPerHour="8.8028620479761"/>
  <flow id="JF96637" begin="360" fromJunction="J7" toJunction="J6" end="420" vehsPerHour="56.534802361768904"/>
  <flow id="JF96638" begin="420" fromJunction="J0" toJunction="J4" end="480" vehsPerHour="16.802482437530923"/>
  <flow id="JF96639" begin="420" fromJunction="J0" toJunction="J5" end="480" vehsPerHour="116.5644954668357"/>
  <flow id="JF96640" begin="420" fromJunction="J0" toJunction="J7" end="480" vehsPerHour="44.73711988312405"/>
  <flow id="JF96641" begin="420" fromJunction="J3" toJunction="J0" end="480" vehsPerHour="128.65205696981664"/>
  <flow id="JF96642" begin="420" fromJunction="J3" toJunction="J5" end="480" vehsPerHour="72.47855241271179"/>
  <flow id="JF96643" begin="420" fromJunction="J3" toJunction="J6" end="480" vehsPerHour="12.454472259336798"/>
  <flow id="JF96644" begin="420" fromJunction="J4" toJunction="J0" end="480" vehsPerHour="56.78246861590473"/>
  <flow id="JF96645" begin="420" fromJunction="J4" toJunction="J3" end="480" vehsPerHour="66.35822417687014"/>
  <flow id="JF96646" begin="420" fromJunction="J4" toJunction="J6" end="480" vehsPerHour="35.59243917703105"/>
  <flow id="JF96647" begin="420" fromJunction="J5" toJunction="J0" end="480" vehsPerHour="19.360435932479405"/>
  <flow id="JF96648" begin="420" fromJunction="J5" toJunction="J3" end="480" vehsPerHour="8.61360630306301"/>
  <flow id="JF96649" begin="420" fromJunction="J5" toJunction="J7" end="480" vehsPerHour="35.10124928818852"/>
  <flow id="JF96650" begin="420" fromJunction="J6" toJunction="J4" end="480" vehsPerHour="55.33879074159346"/>
  <flow id="JF96651" begin="420" fromJunction="J6" toJunction="J7" end="480" vehsPerHour="8.830931369408884"/>
  <flow id="JF96652" begin="420" fromJunction="J7" toJunction="J0" end="480" vehsPerHour="23.805308085108475"/>
  <flow id="JF96653" begin="420" fromJunction="J7" toJunction="J3" end="480" vehsPerHour="56.29271830007354"/>
  <flow id="JF96654" begin="420" fromJunction="J7" toJunction="J4" end="480" vehsPerHour="23.40045534639855"/>
  <flow id="JF96655" begin="420" fromJunction="J7" toJunction="J5" end="480" vehsPerHour="48.2027950260755"/>
  <flow id="JF96656" begin="480" fromJunction="J0" toJunction="J5" end="540" vehsPerHour="101.55730085781961"/>
  <flow id="JF96657" begin="480" fromJunction="J0" toJunction="J6" end="540" vehsPerHour="93.78989628679517"/>
  <flow id="JF96658" begin="480" fromJunction="J0" toJunction="J7" end="540" vehsPerHour="97.50585239460459"/>
  <flow id="JF96659" begin="480" fromJunction="J3" toJunction="J7" end="540" vehsPerHour="75.52397143848098"/>
  <flow id="JF96660" begin="480" fromJunction="J4" toJunction="J5" end="540" vehsPerHour="15.691139172371562"/>
  <flow id="JF96661" begin="480" fromJunction="J4" toJunction="J6" end="540" vehsPerHour="67.51277457137572"/>
  <flow id="JF96662" begin="480" fromJunction="J5" toJunction="J3" end="540" vehsPerHour="20.776071195633715"/>
  <flow id="JF96663" begin="480" fromJunction="J5" toJunction="J4" end="540" vehsPerHour="66.64454883393081"/>
  <flow id="JF96664" begin="480" fromJunction="J5" toJunction="J7" end="540" vehsPerHour="29.682937479033473"/>
  <flow id="JF96665" begin="480" fromJunction="J6" toJunction="J4" end="540" vehsPerHour="40.07161651469004"/>
  <flow id="JF96666" begin="480" fromJunction="J6" toJunction="J7" end="540" vehsPerHour="10.778264716423752"/>
  <flow id="JF96667" begin="480" fromJunction="J7" toJunction="J0" end="540" vehsPerHour="10.339774002433641"/>
  <flow id="JF96668" begin="480" fromJunction="J7" toJunction="J4" end="540" vehsPerHour="36.851790774890596"/>
  <flow id="JF96669" begin="480" fromJunction="J7" toJunction="J5" end="540" vehsPerHour="44.70462349209813"/>
  <flow id="JF96670" begin="540" fromJunction="J0" toJunction="J3" end="600" vehsPerHour="46.40716592626338"/>
  <flow id="JF96671" begin="540" fromJunction="J0" toJunction="J4" end="600" vehsPerHour="32.41164743167037"/>
  <flow id="JF96672" begin="540" fromJunction="J0" toJunction="J5" end="600" vehsPerHour="38.78187449226072"/>
  <flow id="JF96673" begin="540" fromJunction="J0" toJunction="J6" end="600" vehsPerHour="11.828530394719762"/>
  <flow id="JF96674" begin="540" fromJunction="J3" toJunction="J4" end="600" vehsPerHour="31.302678693001212"/>
  <flow id="JF96675" begin="540" fromJunction="J3" toJunction="J7" end="600" vehsPerHour="95.37389535321022"/>
  <flow id="JF96676" begin="540" fromJunction="J4" toJunction="J0" end="600" vehsPerHour="30.36721712721253"/>
  <flow id="JF96677" begin="540" fromJunction="J4" toJunction="J3" end="600" vehsPerHour="41.62435042303285"/>
  <flow id="JF96678" begin="540" fromJunction="J4" toJunction="J5" end="600" vehsPerHour="31.817623943793844"/>
  <flow id="JF96679" begin="540" fromJunction="J5" toJunction="J0" end="600" vehsPerHour="11.424823570047069"/>
  <flow id="JF96680" begin="540" fromJunction="J5" toJunction="J3" end="600" vehsPerHour="32.52836602083807"/>
  <flow id="JF96681" begin="540" fromJunction="J5" toJunction="J4" end="600" vehsPerHour="47.349793733799594"/>
  <flow id="JF96682" begin="540" fromJunction="J5" toJunction="J6" end="600" vehsPerHour="41.17562758663566"/>
  <flow id="JF96683" begin="540" fromJunction="J5" toJunction="J7" end="600" vehsPerHour="30.407352363739058"/>
  <flow id="JF96684" begin="540" fromJunction="J6" toJunction="J0" end="600" vehsPerHour="5.492944878009971"/>
  <flow id="JF96685" begin="540" fromJunction="J6" toJunction="J3" end="600" vehsPerHour="45.96479678595947"/>
  <flow id="JF96686" begin="540" fromJunction="J6" toJunction="J4" end="600" vehsPerHour="7.097053553980598"/>
  <flow id="JF96687" begin="540" fromJunction="J6" toJunction="J5" end="600" vehsPerHour="62.98453365301991"/>
  <flow id="JF96688" begin="540" fromJunction="J6" toJunction="J7" end="600" vehsPerHour="60.99361282657038"/>
  <flow id="JF96689" begin="540" fromJunction="J7" toJunction="J3" end="600" vehsPerHour="33.82405911107736"/>
  <flow id="JF96690" begin="540" fromJunction="J7" toJunction="J4" end="600" vehsPerHour="36.73472041191528"/>
  <flow id="JF96691" begin="540" fromJunction="J7" toJunction="J5" end="600" vehsPerHour="67.84989771885154"/>
  <flow id="JF96692" begin="600" fromJunction="J0" toJunction="J4" end="660" vehsPerHour="100.65209373268102"/>
  <flow id="JF96693" begin="600" fromJunction="J0" toJunction="J5" end="660" vehsPerHour="109.15771978470714"/>
  <flow id="JF96694" begin="600" fromJunction="J0" toJunction="J6" end="660" vehsPerHour="114.72388947443453"/>
  <flow id="JF96695" begin="600" fromJunction="J0" toJunction="J7" end="660" vehsPerHour="48.05372607086583"/>
  <flow id="JF96696" begin="600" fromJunction="J3" toJunction="J0" end="660" vehsPerHour="74.57510530642176"/>
  <flow id="JF96697" begin="600" fromJunction="J3" toJunction="J4" end="660" vehsPerHour="121.94174947631078"/>
  <flow id="JF96698" begin="600" fromJunction="J3" toJunction="J6" end="660" vehsPerHour="34.47046018743361"/>
  <flow id="JF96699" begin="600" fromJunction="J3" toJunction="J7" end="660" vehsPerHour="118.57458678750415"/>
  <flow id="JF96700" begin="600" fromJunction="J4" toJunction="J0" end="660" vehsPerHour="22.4349787385644"/>
  <flow id="JF96701" begin="600" fromJunction="J4" toJunction="J3" end="660" vehsPerHour="66.54246763234885"/>
  <flow id="JF96702" begin="600" fromJunction="J4" toJunction="J6" end="660" vehsPerHour="64.84002434709473"/>
  <flow id="JF96703" begin="600" fromJunction="J4" toJunction="J7" end="660" vehsPerHour="52.87830439590587"/>
  <flow id="JF96704" begin="600" fromJunction="J5" toJunction="J0" end="660" vehsPerHour="57.24852877935601"/>
  <flow id="JF96705" begin="600" fromJunction="J5" toJunction="J4" end="660" vehsPerHour="0.28776943104154523"/>
  <flow id="JF96706" begin="600" fromJunction="J5" toJunction="J6" end="660" vehsPerHour="27.479740978116617"/>
  <flow id="JF96707" begin="600" fromJunction="J6" toJunction="J0" end="660" vehsPerHour="56.9186987172778"/>
  <flow id="JF96708" begin="600" fromJunction="J6" toJunction="J4" end="660" vehsPerHour="13.300278090624928"/>
  <flow id="JF96709" begin="600" fromJunction="J6" toJunction="J5" end="660" vehsPerHour="44.825027503197056"/>
  <flow id="JF96710" begin="600" fromJunction="J6" toJunction="J7" end="660" vehsPerHour="36.55329119939639"/>
  <flow id="JF96711" begin="600" fromJunction="J7" toJunction="J0" end="660" vehsPerHour="25.218175074802605"/>
  <flow id="JF96712" begin="600" fromJunction="J7" toJunction="J3" end="660" vehsPerHour="37.75257091152326"/>
  <flow id="JF96713" begin="600" fromJunction="J7" toJunction="J4" end="660" vehsPerHour="10.155416318593815"/>
  <flow id="JF96714" begin="600" fromJunction="J7" toJunction="J5" end="660" vehsPerHour="21.323233691203036"/>
  <flow id="JF96715" begin="600" fromJunction="J7" toJunction="J6" end="660" vehsPerHour="22.916921940052006"/>
  <flow id="JF96716" begin="660" fromJunction="J0" toJunction="J4" end="720" vehsPerHour="32.28747002166129"/>
  <flow id="JF96717" begin="660" fromJunction="J0" toJunction="J5" end="720" vehsPerHour="121.57477705315918"/>
  <flow id="JF96718" begin="660" fromJunction="J0" toJunction="J6" end="720" vehsPerHour="137.32579765853274"/>
  <flow id="JF96719" begin="660" fromJunction="J0" toJunction="J7" end="720" vehsPerHour="40.42455887492478"/>
  <flow id="JF96720" begin="660" fromJunction="J3" toJunction="J0" end="720" vehsPerHour="81.92210914062478"/>
  <flow id="JF96721" begin="660" fromJunction="J3" toJunction="J4" end="720" vehsPerHour="123.46365581410187"/>
  <flow id="JF96722" begin="660" fromJunction="J3" toJunction="J5" end="720" vehsPerHour="10.239103630443767"/>
  <flow id="JF96723" begin="660" fromJunction="J3" toJunction="J6" end="720" vehsPerHour="73.37828808868926"/>
  <flow id="JF96724" begin="660" fromJunction="J4" toJunction="J0" end="720" vehsPerHour="3.9865190170454774"/>
  <flow id="JF96725" begin="660" fromJunction="J4" toJunction="J5" end="720" vehsPerHour="30.760771229941742"/>
  <flow id="JF96726" begin="660" fromJunction="J4" toJunction="J6" end="720" vehsPerHour="65.80941089461845"/>
  <flow id="JF96727" begin="660" fromJunction="J5" toJunction="J0" end="720" vehsPerHour="3.552200530838283"/>
  <flow id="JF96728" begin="660" fromJunction="J5" toJunction="J3" end="720" vehsPerHour="60.88759311014429"/>
  <flow id="JF96729" begin="660" fromJunction="J5" toJunction="J4" end="720" vehsPerHour="6.055086791543396"/>
  <flow id="JF96730" begin="660" fromJunction="J5" toJunction="J7" end="720" vehsPerHour="21.65963257505811"/>
  <flow id="JF96731" begin="660" fromJunction="J6" toJunction="J0" end="720" vehsPerHour="60.56380753611972"/>
  <flow id="JF96732" begin="660" fromJunction="J6" toJunction="J3" end="720" vehsPerHour="56.882803177171304"/>
  <flow id="JF96733" begin="660" fromJunction="J6" toJunction="J4" end="720" vehsPerHour="40.48836626800906"/>
  <flow id="JF96734" begin="660" fromJunction="J6" toJunction="J5" end="720" vehsPerHour="28.180787029274985"/>
  <flow id="JF96735" begin="660" fromJunction="J6" toJunction="J7" end="720" vehsPerHour="52.02060650021951"/>
  <flow id="JF96736" begin="660" fromJunction="J7" toJunction="J3" end="720" vehsPerHour="34.18101174240064"/>
  <flow id="JF96737" begin="660" fromJunction="J7" toJunction="J6" end="720" vehsPerHour="48.85539975149926"/>
  <flow id="JF96738" begin="720" fromJunction="J0" toJunction="J3" end="780" vehsPerHour="131.57923091324244"/>
  <flow id="JF96739" begin="720" fromJunction="J0" toJunction="J5" end="780" vehsPerHour="132.29615699951168"/>
  <flow id="JF96740" begin="720" fromJunction="J0" toJunction="J6" end="780" vehsPerHour="116.86706709900287"/>
  <flow id="JF96741" begin="720" fromJunction="J3" toJunction="J0" end="780" vehsPerHour="41.78612988727325"/>
  <flow id="JF96742" begin="720" fromJunction="J3" toJunction="J5" end="780" vehsPerHour="38.79405098214885"/>
  <flow id="JF96743" begin="720" fromJunction="J4" toJunction="J0" end="780" vehsPerHour="66.42758374446605"/>
  <flow id="JF96744" begin="720" fromJunction="J4" toJunction="J3" end="780" vehsPerHour="51.151715933456444"/>
  <flow id="JF96745" begin="720" fromJunction="J4" toJunction="J7" end="780" vehsPerHour="37.34806645246025"/>
  <flow id="JF96746" begin="720" fromJunction="J5" toJunction="J3" end="780" vehsPerHour="35.65674264302946"/>
  <flow id="JF96747" begin="720" fromJunction="J5" toJunction="J4" end="780" vehsPerHour="28.629884432052894"/>
  <flow id="JF96748" begin="720" fromJunction="J5" toJunction="J6" end="780" vehsPerHour="47.802375822032005"/>
  <flow id="JF96749" begin="720" fromJunction="J5" toJunction="J7" end="780" vehsPerHour="40.22791509808229"/>
  <flow id="JF96750" begin="720" fromJunction="J6" toJunction="J0" end="780" vehsPerHour="21.319684030609036"/>
  <flow id="JF96751" begin="720" fromJunction="J6" toJunction="J3" end="780" vehsPerHour="55.58544381225038"/>
  <flow id="JF96752" begin="720" fromJunction="J6" toJunction="J4" end="780" vehsPerHour="67.92910692698928"/>
  <flow id="JF96753" begin="720" fromJunction="J6" toJunction="J5" end="780" vehsPerHour="19.970820979035665"/>
  <flow id="JF96754" begin="720" fromJunction="J6" toJunction="J7" end="780" vehsPerHour="0.5754612543690064"/>
  <flow id="JF96755" begin="720" fromJunction="J7" toJunction="J4" end="780" vehsPerHour="50.14609924096476"/>
  <flow id="JF96756" begin="720" fromJunction="J7" toJunction="J5" end="780" vehsPerHour="25.1397417576709"/>
  <flow id="JF96757" begin="720" fromJunction="J7" toJunction="J6" end="780" vehsPerHour="6.8346640264725105"/>
  <flow id="JF96758" begin="780" fromJunction="J0" toJunction="J3" end="840" vehsPerHour="47.263456920592375"/>
  <flow id="JF96759" begin="780" fromJunction="J0" toJunction="J4" end="840" vehsPerHour="137.34482959339087"/>
  <flow id="JF96760" begin="780" fromJunction="J0" toJunction="J5" end="840" vehsPerHour="24.74749119756051"/>