<?xml version="1.0" encoding="UTF-8"?>
<routes xmlns:xsi="http://www.w3.org/2001/XMLSchema-instance" xsi:noNamespaceSchemaLocation="http://sumo.dlr.de/xsd/routes_file.xsd">
  <flow id="JF118716" begin="0" fromJunction="J0" toJunction="J3" end="60" vehsPerHour="127.77260555772914"/>
  <flow id="JF118717" begin="0" fromJunction="J0" toJunction="J4" end="60" vehsPerHour="127.75218058853528"/>
  <flow id="JF118718" begin="0" fromJunction="J0" toJunction="J6" end="60" vehsPerHour="108.6033631534184"/>
  <flow id="JF118719" begin="0" fromJunction="J0" toJunction="J7" end="60" vehsPerHour="45.18026695249481"/>
  <flow id="JF118720" begin="0" fromJunction="J3" toJunction="J4" end="60" vehsPerHour="52.90274997557528"/>
  <flow id="JF118721" begin="0" fromJunction="J3" toJunction="J5" end="60" vehsPerHour="64.86510457453929"/>
  <flow id="JF118722" begin="0" fromJunction="J3" toJunction="J6" end="60" vehsPerHour="27.55272138690303"/>
  <flow id="JF118723" begin="0" fromJunction="J3" toJunction="J7" end="60" vehsPerHour="129.67825779474683"/>
  <flow id="JF118724" begin="0" fromJunction="J4" toJunction="J0" end="60" vehsPerHour="8.065205632414646"/>
  <flow id="JF118725" begin="0" fromJunction="J4" toJunction="J5" end="60" vehsPerHour="22.099551160379786"/>
  <flow id="JF118726" begin="0" fromJunction="J4" toJunction="J6" end="60" vehsPerHour="51.71662006130999"/>
  <flow id="JF118727" begin="0" fromJunction="J5" toJunction="J0" end="60" vehsPerHour="31.175529358551906"/>
  <flow id="JF118728" begin="0" fromJunction="J5" toJunction="J3" end="60" vehsPerHour="2.661982117329469"/>
  <flow id="JF118729" begin="0" fromJunction="J5" toJunction="J4" end="60" vehsPerHour="9.772691419786742"/>
  <flow id="JF118730" begin="0" fromJunction="J5" toJunction="J6" end="60" vehsPerHour="50.826352053900216"/>
  <flow id="JF118731" begin="0" fromJunction="J6" toJunction="J0" end="60" vehsPerHour="56.007186550154785"/>
  <flow id="JF118732" begin="0" fromJunction="J6" toJunction="J4" end="60" vehsPerHour="19.00600709330634"/>
  <flow id="JF118733" begin="0" fromJunction="J6" toJunction="J5" end="60" vehsPerHour="11.863605672279963"/>
  <flow id="JF118734" begin="0" fromJunction="J7" toJunction="J0" end="60" vehsPerHour="47.86034372005953"/>
  <flow id="JF118735" begin="0" fromJunction="J7" toJunction="J3" end="60" vehsPerHour="65.06173297031725"/>
  <flow id="JF118736" begin="0" fromJunction="J7" toJunction="J6" end="60" vehsPerHour="48.093785701606656"/>
  <flow id="JF118737" begin="60" fromJunction="J0" toJunction="J3" end="120" vehsPerHour="91.77566737628399"/>
  <flow id="JF118738" begin="60" fromJunction="J0" toJunction="J5" end="120" vehsPerHour="50.137461730324304"/>
  <flow id="JF118739" begin="60" fromJunction="J0" toJunction="J6" end="120" vehsPerHour="26.273506852605106"/>
  <flow id="JF118740" begin="60" fromJunction="J0" toJunction="J7" end="120" vehsPerHour="32.38259233837471"/>
  <flow id="JF118741" begin="60" fromJunction="J3" toJunction="J4" end="120" vehsPerHour="30.879505703418538"/>
  <flow id="JF118742" begin="60" fromJunction="J3" toJunction="J5" end="120" vehsPerHour="30.73961385121412"/>
  <flow id="JF118743" begin="60" fromJunction="J3" toJunction="J6" end="120" vehsPerHour="97.33412357318426"/>
  <flow id="JF118744" begin="60" fromJunction="J4" toJunction="J5" end="120" vehsPerHour="38.669451445140346"/>
  <flow id="JF118745" begin="60" fromJunction="J4" toJunction="J6" end="120" vehsPerHour="15.855977489326456"/>
  <flow id="JF118746" begin="60" fromJunction="J4" toJunction="J7" end="120" vehsPerHour="58.29596314727798"/>
  <flow id="JF118747" begin="60" fromJunction="J5" toJunction="J0" end="120" vehsPerHour="0.7410792998035808"/>
  <flow id="JF118748" begin="60" fromJunction="J5" toJunction="J3" end="120" vehsPerHour="41.95165788671546"/>
  <flow id="JF118749" begin="60" fromJunction="J5" toJunction="J4" end="120" vehsPerHour="6.95568490105948"/>
  <flow id="JF118750" begin="60" fromJunction="J5" toJunction="J6" end="120" vehsPerHour="48.478677934972666"/>
  <flow id="JF118751" begin="60" fromJunction="J5" toJunction="J7" end="120" vehsPerHour="38.86233157409643"/>
  <flow id="JF118752" begin="60" fromJunction="J6" toJunction="J0" end="120" vehsPerHour="29.522452810132464"/>
  <flow id="JF118753" begin="60" fromJunction="J7" toJunction="J0" end="120" vehsPerHour="19.209838314691144"/>
  <flow id="JF118754" begin="60" fromJunction="J7" toJunction="J4" end="120" vehsPerHour="42.9849695568581"/>
  <flow id="JF118755" begin="60" fromJunction="J7" toJunction="J6" end="120" vehsPerHour="36.561360549005194"/>
  <flow id="JF118756" begin="120" fromJunction="J0" toJunction="J4" end="180" vehsPerHour="111.4969708370649"/>
  <flow id="JF118757" begin="120" fromJunction="J0" toJunction="J6" end="180" vehsPerHour="18.697092864433298"/>
  <flow id="JF118758" begin="120" fromJunction="J0" toJunction="J7" end="180" vehsPerHour="9.85454467551611"/>
  <flow id="JF118759" begin="120" fromJunction="J3" toJunction="J0" end="180" vehsPerHour="126.2359372678024"/>
  <flow id="JF118760" begin="120" fromJunction="J3" toJunction="J5" end="180" vehsPerHour="20.7855751153002"/>
  <flow id="JF118761" begin="120" fromJunction="J3" toJunction="J6" end="180" vehsPerHour="74.52969133844978"/>
  <flow id="JF118762" begin="120" fromJunction="J4" toJunction="J3" end="180" vehsPerHour="22.986020686774136"/>
  <flow id="JF118763" begin="120" fromJunction="J4" toJunction="J6" end="180" vehsPerHour="51.23797441804134"/>
  <flow id="JF118764" begin="120" fromJunction="J4" toJunction="J7" end="180" vehsPerHour="23.148843010432817"/>
  <flow id="JF118765" begin="120" fromJunction="J5" toJunction="J0" end="180" vehsPerHour="68.32704537580558"/>
  <flow id="JF118766" begin="120" fromJunction="J5" toJunction="J3" end="180" vehsPerHour="15.772821395499685"/>
  <flow id="JF118767" begin="120" fromJunction="J5" toJunction="J4" end="180" vehsPerHour="41.01889671894019"/>
  <flow id="JF118768" begin="120" fromJunction="J5" toJunction="J7" end="180" vehsPerHour="48.6332320506732"/>
  <flow id="JF118769" begin="120" fromJunction="J6" toJunction="J0" end="180" vehsPerHour="25.074607759543767"/>
  <flow id="JF118770" begin="120" fromJunction="J6" toJunction="J3" end="180" vehsPerHour="44.44903944558595"/>
  <flow id="JF118771" begin="120" fromJunction="J6" toJunction="J5" end="180" vehsPerHour="61.71485629166996"/>
  <flow id="JF118772" begin="120" fromJunction="J7" toJunction="J0" end="180" vehsPerHour="8.902041187908628"/>
  <flow id="JF118773" begin="120" fromJunction="J7" toJunction="J3" end="180" vehsPerHour="50.56472667972849"/>
  <flow id="JF118774" begin="120" fromJunction="J7" toJunction="J6" end="180" vehsPerHour="32.88954964663878"/>
  <flow id="JF118775" begin="180" fromJunction="J0" toJunction="J3" end="240" vehsPerHour="111.05156297981831"/>
  <flow id="JF118776" begin="180" fromJunction="J0" toJunction="J4" end="240" vehsPerHour="3.9314752122494765"/>
  <flow id="JF118777" begin="180" fromJunction="J0" toJunction="J6" end="240" vehsPerHour="61.38242330633683"/>
  <flow id="JF118778" begin="180" fromJunction="J3" toJunction="J0" end="240" vehsPerHour="97.89251683627968"/>
  <flow id="JF118779" begin="180" fromJunction="J3" toJunction="J5" end="240" vehsPerHour="23.634279129013223"/>
  <flow id="JF118780" begin="180" fromJunction="J3" toJunction="J7" end="240" vehsPerHour="38.198559717844354"/>
  <flow id="JF118781" begin="180" fromJunction="J4" toJunction="J0" end="240" vehsPerHour="58.69215533791957"/>
  <flow id="JF118782" begin="180" fromJunction="J4" toJunction="J3" end="240" vehsPerHour="53.82652954790024"/>
  <flow id="JF118783" begin="180" fromJunction="J4" toJunction="J5" end="240" vehsPerHour="42.51180700336774"/>
  <flow id="JF118784" begin="180" fromJunction="J4" toJunction="J6" end="240" vehsPerHour="26.072705376064686"/>
  <flow id="JF118785" begin="180" fromJunction="J4" toJunction="J7" end="240" vehsPerHour="13.204398164488579"/>
  <flow id="JF118786" begin="180" fromJunction="J5" toJunction="J0" end="240" vehsPerHour="25.702350143060922"/>
  <flow id="JF118787" begin="180" fromJunction="J5" toJunction="J3" end="240" vehsPerHour="59.00599595304863"/>
  <flow id="JF118788" begin="180" fromJunction="J5" toJunction="J6" end="240" vehsPerHour="65.36310378464431"/>
  <flow id="JF118789" begin="180" fromJunction="J5" toJunction="J7" end="240" vehsPerHour="8.870251038995722"/>
  <flow id="JF118790" begin="180" fromJunction="J6" toJunction="J0" end="240" vehsPerHour="33.84032040910496"/>
  <flow id="JF118791" begin="180" fromJunction="J6" toJunction="J3" end="240" vehsPerHour="3.8605774304167735"/>
  <flow id="JF118792" begin="180" fromJunction="J6" toJunction="J5" end="240" vehsPerHour="43.599538074785706"/>
  <flow id="JF118793" begin="180" fromJunction="J6" toJunction="J7" end="240" vehsPerHour="54.04406195331785"/>
  <flow id="JF118794" begin="180" fromJunction="J7" toJunction="J0" end="240" vehsPerHour="15.801666559493246"/>
  <flow id="JF118795" begin="240" fromJunction="J0" toJunction="J3" end="300" vehsPerHour="68.57411414249987"/>
  <flow id="JF118796" begin="240" fromJunction="J0" toJunction="J5" end="300" vehsPerHour="123.89557566504561"/>
  <flow id="JF118797" begin="240" fromJunction="J0" toJunction="J7" end="300" vehsPerHour="4.389534238166181"/>
  <flow id="JF118798" begin="240" fromJunction="J3" toJunction="J0" end="300" vehsPerHour="101.36810626199058"/>
  <flow id="JF118799" begin="240" fromJunction="J3" toJunction="J4" end="300" vehsPerHour="118.12929940206807"/>
  <flow id="JF118800" begin="240" fromJunction="J3" toJunction="J7" end="300" vehsPerHour="88.00858204215109"/>
  <flow id="JF118801" begin="240" fromJunction="J4" toJunction="J3" end="300" vehsPerHour="13.983810572980902"/>
  <flow id="JF118802" begin="240" fromJunction="J4" toJunction="J7" end="300" vehsPerHour="22.28099955948915"/>
  <flow id="JF118803" begin="240" fromJunction="J5" toJunction="J3" end="300" vehsPerHour="3.000897354198956"/>
  <flow id="JF118804" begin="240" fromJunction="J5" toJunction="J7" end="300" vehsPerHour="7.802350612602554"/>
  <flow id="JF118805" begin="240" fromJunction="J6" toJunction="J0" end="300" vehsPerHour="55.70395476055915"/>
  <flow id="JF118806" begin="240" fromJunction="J6" toJunction="J3" end="300" vehsPerHour="33.37961368102431"/>
  <flow id="JF118807" begin="240" fromJunction="J6" toJunction="J4" end="300" vehsPerHour="62.34510043772361"/>
  <flow id="JF118808" begin="240" fromJunction="J6" toJunction="J5" end="300" vehsPerHour="45.005776979396536"/>
  <flow id="JF118809" begin="240" fromJunction="J6" toJunction="J7" end="300" vehsPerHour="24.020079433812544"/>
  <flow id="JF118810" begin="240" fromJunction="J7" toJunction="J4" end="300" vehsPerHour="44.45385666590202"/>
  <flow id="JF118811" begin="240" fromJunction="J7" toJunction="J5" end="300" vehsPerHour="32.91566537166137"/>
  <flow id="JF118812" begin="240" fromJunction="J7" toJunction="J6" end="300" vehsPerHour="7.548210129358214"/>
  <flow id="JF118813" begin="300" fromJunction="J0" toJunction="J3" end="360" vehsPerHour="82.7083880900496"/>
  <flow id="JF118814" begin="300" fromJunction="J0" toJunction="J4" end="360" vehsPerHour="66.09245201665368"/>
  <flow id="JF118815" begin="300" fromJunction="J0" toJunction="J7" end="360" vehsPerHour="44.627391454878364"/>
  <flow id="JF118816" begin="300" fromJunction="J3" toJunction="J4" end="360" vehsPerHour="22.711982277328474"/>
  <flow id="JF118817" begin="300" fromJunction="J3" toJunction="J5" end="360" vehsPerHour="93.30282908957541"/>
  <flow id="JF118818" begin="300" fromJunction="J3" toJunction="J6" end="360" vehsPerHour="70.85274004835662"/>
  <flow id="JF118819" begin="300" fromJunction="J3" toJunction="J7" end="360" vehsPerHour="2.7936214038057967"/>
  <flow id="JF118820" begin="300" fromJunction="J4" toJunction="J0" end="360" vehsPerHour="39.37958528136845"/>
  <flow id="JF118821" begin="300" fromJunction="J4" toJunction="J3" end="360" vehsPerHour="14.518124363129079"/>
  <flow id="JF118822" begin="300" fromJunction="J4" toJunction="J5" end="360" vehsPerHour="35.02325032701313"/>
  <flow id="JF118823" begin="300" fromJunction="J4" toJunction="J6" end="360" vehsPerHour="50.24303715343554"/>
  <flow id="JF118824" begin="300" fromJunction="J4" toJunction="J7" end="360" vehsPerHour="26.05293671693626"/>
  <flow id="JF118825" begin="300" fromJunction="J5" toJunction="J0" end="360" vehsPerHour="58.24694384409777"/>
  <flow id="JF118826" begin="300" fromJunction="J5" toJunction="J3" end="360" vehsPerHour="44.55434682140692"/>
  <flow id="JF118827" begin="300" fromJunction="J5" toJunction="J4" end="360" vehsPerHour="59.46699869090481"/>
  <flow id="JF118828" begin="300" fromJunction="J5" toJunction="J6" end="360" vehsPerHour="14.148999452687706"/>
  <flow id="JF118829" begin="300" fromJunction="J5" toJunction="J7" end="360" vehsPerHour="48.85221840072414"/>
  <flow id="JF118830" begin="300" fromJunction="J6" toJunction="J3" end="360" vehsPerHour="42.003343237956045"/>
  <flow id="JF118831" begin="300" fromJunction="J6" toJunction="J5" end="360" vehsPerHour="35.415466309368185"/>
  <flow id="JF118832" begin="300" fromJunction="J7" toJunction="J0" end="360" vehsPerHour="59.949774636917475"/>
  <flow id="JF118833" begin="300" fromJunction="J7" toJunction="J3" end="360" vehsPerHour="42.12559009094113"/>
  <flow id="JF118834" begin="300" fromJunction="J7" toJunction="J4" end="360" vehsPerHour="49.81653691545347"/>
  <flow id="JF118835" begin="300" fromJunction="J7" toJunction="J5" end="360" vehsPerHour="59.12974689143393"/>
  <flow id="JF118836" begin="300" fromJunction="J7" toJunction="J6" end="360" vehsPerHour="26.215634420595784"/>
  <flow id="JF118837" begin="360" fromJunction="J0" toJunction="J3" end="420" vehsPerHour="125.5211092991238"/>
  <flow id="JF118838" begin="360" fromJunction="J0" toJunction="J4" end="420" vehsPerHour="29.816686798571713"/>
  <flow id="JF118839" begin="360" fromJunction="J3" toJunction="J4" end="420" vehsPerHour="5.934215911171472"/>
  <flow id="JF118840" begin="360" fromJunction="J3" toJunction="J5" end="420" vehsPerHour="17.40149919651866"/>
  <flow id="JF118841" begin="360" fromJunction="J3" toJunction="J6" end="420" vehsPerHour="75.80480504177689"/>
  <flow id="JF118842" begin="360" fromJunction="J4" toJunction="J5" end="420" vehsPerHour="26.996693249833633"/>
  <flow id="JF118843" begin="360" fromJunction="J4" toJunction="J6" end="420" vehsPerHour="68.16892467705314"/>
  <flow id="JF118844" begin="360" fromJunction="J4" toJunction="J7" end="420" vehsPerHour="64.09723899853992"/>
  <flow id="JF118845" begin="360" fromJunction="J5" toJunction="J0" end="420" vehsPerHour="9.238041862653908"/>
  <flow id="JF118846" begin="360" fromJunction="J5" toJunction="J3" end="420" vehsPerHour="54.94313875856093"/>
  <flow id="JF118847" begin="360" fromJunction="J5" toJunction="J6" end="420" vehsPerHour="28.902107598458944"/>
  <flow id="JF118848" begin="360" fromJunction="J5" toJunction="J7" end="420" vehsPerHour="9.196986098395184"/>
  <flow id="JF118849" begin="360" fromJunction="J6" toJunction="J0" end="420" vehsPerHour="63.72984634151438"/>
  <flow id="JF118850" begin="360" fromJunction="J6" toJunction="J3" end="420" vehsPerHour="40.32144407388958"/>
  <flow id="JF118851" begin="360" fromJunction="J7" toJunction="J0" end="420" vehsPerHour="51.416560544465135"/>
  <flow id="JF118852" begin="360" fromJunction="J7" toJunction="J4" end="420" vehsPerHour="15.728489843635636"/>
  <flow id="JF118853" begin="360" fromJunction="J7" toJunction="J5" end="420" vehsPerHour="28.938839608976718"/>
  <flow id="JF118854" begin="360" fromJunction="J7" toJunction="J6" end="420" vehsPerHour="28.850161491524794"/>
  <flow id="JF118855" begin="420" fromJunction="J0" toJunction="J3" end="480" vehsPerHour="114.50051179579795"/>
  <flow id="JF118856" begin="420" fromJunction="J0" toJunction="J4" end="480" vehsPerHour="88.12526927709429"/>
  <flow id="JF118857" begin="420" fromJunction="J0" toJunction="J5" end="480" vehsPerHour="19.673169230752073"/>
  <flow id="JF118858" begin="420" fromJunction="J0" toJunction="J6" end="480" vehsPerHour="49.8573416785367"/>
  <flow id="JF118859" begin="420" fromJunction="J0" toJunction="J7" end="480" vehsPerHour="129.03709359999235"/>
  <flow id="JF118860" begin="420" fromJunction="J3" toJunction="J0" end="480" vehsPerHour="75.03981906823219"/>
  <flow id="JF118861" begin="420" fromJunction="J3" toJunction="J4" end="480" vehsPerHour="21.27236403542666"/>
  <flow id="JF118862" begin="420" fromJunction="J3" toJunction="J5" end="480" vehsPerHour="68.23140168246013"/>
  <flow id="JF118863" begin="420" fromJunction="J3" toJunction="J7" end="480" vehsPerHour="127.7346435966298"/>
  <flow id="JF118864" begin="420" fromJunction="J4" toJunction="J0" end="480" vehsPerHour="28.585452206752056"/>
  <flow id="JF118865" begin="420" fromJunction="J4" toJunction="J3" end="480" vehsPerHour="10.267132553307595"/>
  <flow id="JF118866" begin="420" fromJunction="J4" toJunction="J5" end="480" vehsPerHour="28.371336059537228"/>
  <flow id="JF118867" begin="420" fromJunction="J4" toJunction="J6" end="480" vehsPerHour="17.32509921010829"/>
  <flow id="JF118868" begin="420" fromJunction="J4" toJunction="J7" end="480" vehsPerHour="29.24490373023735"/>
  <flow id="JF118869" begin="420" fromJunction="J5" toJunction="J3" end="480" vehsPerHour="20.525881980585755"/>
  <flow id="JF118870" begin="420" fromJunction="J5" toJunction="J6" end="480" vehsPerHour="0.3610118943968713"/>
  <flow id="JF118871" begin="420" fromJunction="J5" toJunction="J7" end="480" vehsPerHour="6.51071057682125"/>
  <flow id="JF118872" begin="420" fromJunction="J6" toJunction="J0" end="480" vehsPerHour="22.150825828088347"/>
  <flow id="JF118873" begin="420" fromJunction="J6" toJunction="J3" end="480" vehsPerHour="54.7585089906945"/>
  <flow id="JF118874" begin="420" fromJunction="J6" toJunction="J4" end="480" vehsPerHour="7.948763272226694"/>
  <flow id="JF118875" begin="420" fromJunction="J6" toJunction="J5" end="480" vehsPerHour="52.00844711492106"/>
  <flow id="JF118876" begin="420" fromJunction="J7" toJunction="J0" end="480" vehsPerHour="44.7404940461376"/>
  <flow id="JF118877" begin="420" fromJunction="J7" toJunction="J3" end="480" vehsPerHour="3.8125090591902433"/>
  <flow id="JF118878" begin="420" fromJunction="J7" toJunction="J4" end="480" vehsPerHour="63.64897280826698"/>
  <flow id="JF118879" begin="420" fromJunction="J7" toJunction="J5" end="480" vehsPerHour="13.243329982543042"/>
  <flow id="JF118880" begin="420" fromJunction="J7" toJunction="J6" end="480" vehsPerHour="34.43244819230227"/>
  <flow id="JF118881" begin="480" fromJunction="J0" toJunction="J5" end="540" vehsPerHour="41.50281403805606"/>
  <flow id="JF118882" begin="480" fromJunction="J0" toJunction="J6" end="540" vehsPerHour="97.17006667336324"/>
  <flow id="JF118883" begin="480" fromJunction="J0" toJunction="J7" end="540" vehsPerHour="62.805656001658605"/>
  <flow id="JF118884" begin="480" fromJunction="J3" toJunction="J0" end="540" vehsPerHour="75.34780341726194"/>
  <flow id="JF118885" begin="480" fromJunction="J3" toJunction="J4" end="540" vehsPerHour="49.945757657920105"/>
  <flow id="JF118886" begin="480" fromJunction="J3" toJunction="J6" end="540" vehsPerHour="58.821927457328584"/>
  <flow id="JF118887" begin="480" fromJunction="J3" toJunction="J7" end="540" vehsPerHour="119.70178212082182"/>
  <flow id="JF118888" begin="480" fromJunction="J4" toJunction="J0" end="540" vehsPerHour="2.8869399935568847"/>
  <flow id="JF118889" begin="480" fromJunction="J4" toJunction="J5" end="540" vehsPerHour="52.68256224699979"/>
  <flow id="JF118890" begin="480" fromJunction="J4" toJunction="J7" end="540" vehsPerHour="44.507947626940854"/>
  <flow id="JF118891" begin="480" fromJunction="J5" toJunction="J3" end="540" vehsPerHour="23.640861326243588"/>
  <flow id="JF118892" begin="480" fromJunction="J6" toJunction="J0" end="540" vehsPerHour="60.57636049057574"/>
  <flow id="JF118893" begin="480" fromJunction="J6" toJunction="J3" end="540" vehsPerHour="38.03365572400727"/>
  <flow id="JF118894" begin="480" fromJunction="J6" toJunction="J4" end="540" vehsPerHour="37.6484684971116"/>
  <flow id="JF118895" begin="480" fromJunction="J6" toJunction="J5" end="540" vehsPerHour="8.114765770861919"/>
  <flow id="JF118896" begin="480" fromJunction="J6" toJunction="J7" end="540" vehsPerHour="4.9693831610492305"/>
  <flow id="JF118897" begin="480" fromJunction="J7" toJunction="J0" end="540" vehsPerHour="64.25114896226461"/>
  <flow id="JF118898" begin="480" fromJunction="J7" toJunction="J3" end="540" vehsPerHour="4.792323963718069"/>
  <flow id="JF118899" begin="480" fromJunction="J7" toJunction="J5" end="540" vehsPerHour="49.666813266073845"/>
  <flow id="JF118900" begin="480" fromJunction="J7" toJunction="J6" end="540" vehsPerHour="11.645552790425784"/>
  <flow id="JF118901" begin="540" fromJunction="J0" toJunction="J4" end="600" vehsPerHour="132.10225089128582"/>
  <flow id="JF118902" begin="540" fromJunction="J0" toJunction="J5" end="600" vehsPerHour="56.64523988128709"/>
  <flow id="JF118903" begin="540" fromJunction="J0" toJunction="J6" end="600" vehsPerHour="134.12678792685097"/>
  <flow id="JF118904" begin="540" fromJunction="J0" toJunction="J7" end="600" vehsPerHour="113.93045020223808"/>
  <flow id="JF118905" begin="540" fromJunction="J3" toJunction="J4" end="600" vehsPerHour="50.86352012100106"/>
  <flow id="JF118906" begin="540" fromJunction="J3" toJunction="J6" end="600" vehsPerHour="18.934738091353456"/>
  <flow id="JF118907" begin="540" fromJunction="J3" toJunction="J7" end="600" vehsPerHour="112.33896301794083"/>
  <flow id="JF118908" begin="540" fromJunction="J4" toJunction="J0" end="600" vehsPerHour="42.24402979247708"/>
  <flow id="JF118909" begin="540" fromJunction="J4" toJunction="J5" end="600" vehsPerHour="21.0464525564425"/>
  <flow id="JF118910" begin="540" fromJunction="J4" toJunction="J6" end="600" vehsPerHour="49.50707839737648"/>
  <flow id="JF118911" begin="540" fromJunction="J4" toJunction="J7" end="600" vehsPerHour="32.73455080021664"/>
  <flow id="JF118912" begin="540" fromJunction="J5" toJunction="J0" end="600" vehsPerHour="48.04519919691673"/>
  <flow id="JF118913" begin="540" fromJunction="J5" toJunction="J3" end="600" vehsPerHour="1.467399137392388"/>
  <flow id="JF118914" begin="540" fromJunction="J5" toJunction="J4" end="600" vehsPerHour="26.902120868041937"/>
  <flow id="JF118915" begin="540" fromJunction="J5" toJunction="J6" end="600" vehsPerHour="61.20054553808533"/>
  <flow id="JF118916" begin="540" fromJunction="J6" toJunction="J3" end="600" vehsPerHour="5.674048847398948"/>
  <flow id="JF118917" begin="540" fromJunction="J6" toJunction="J7" end="600" vehsPerHour="2.9117048216370742"/>
  <flow id="JF118918" begin="540" fromJunction="J7" toJunction="J0" end="600" vehsPerHour="62.74729323239108"/>
  <flow id="JF118919" begin="540" fromJunction="J7" toJunction="J3" end="600" vehsPerHour="64.29125902869416"/>
  <flow id="JF118920" begin="540" fromJunction="J7" toJunction="J4" end="600" vehsPerHour="40.938555892811166"/>
  <flow id="JF118921" begin="540" fromJunction="J7" toJunction="J6" end="600" vehsPerHour="27.06784586911656"/>
  <flow id="JF118922" begin="600" fromJunction="J0" toJunction="J3" end="660" vehsPerHour="94.09322985813964"/>
  <flow id="JF118923" begin="600" fromJunction="J0" toJunction="J4" end="660" vehsPerHour="105.87160235176748"/>
  <flow id="JF118924" begin="600" fromJunction="J0" toJunction="J5" end="660" vehsPerHour="65.51526133317833"/>
  <flow id="JF118925" begin="600" fromJunction="J0" toJunction="J6" end="660" vehsPerHour="134.7128353147101"/>
  <flow id="JF118926" begin="600" fromJunction="J0" toJunction="J7" end="660" vehsPerHour="27.560241059888643"/>
  <flow id="JF118927" begin="600" fromJunction="J3" toJunction="J4" end="660" vehsPerHour="11.81679825865332"/>
  <flow id="JF118928" begin="600" fromJunction="J3" toJunction="J5" end="660" vehsPerHour="115.15678965025761"/>
  <flow id="JF118929" begin="600" fromJunction="J3" toJunction="J6" end="660" vehsPerHour="51.08380774172617"/>
  <flow id="JF118930" begin="600" fromJunction="J3" toJunction="J7" end="660" vehsPerHour="18.676828168466972"/>
  <flow id="JF118931" begin="600" fromJunction="J4" toJunction="J0" end="660" vehsPerHour="47.12619319063453"/>
  <flow id="JF118932" begin="600" fromJunction="J4" toJunction="J3" end="660" vehsPerHour="24.50828573105107"/>
  <flow id="JF118933" begin="600" fromJunction="J4" toJunction="J5" end="660" vehsPerHour="40.53293669481063"/>
  <flow id="JF118934" begin="600" fromJunction="J5" toJunction="J0" end="660" vehsPerHour="53.43811938204722"/>
  <flow id="JF118935" begin="600" fromJunction="J5" toJunction="J3" end="660" vehsPerHour="9.214443571604866"/>
  <flow id="JF118936" begin="600" fromJunction="J5" toJunction="J4" end="660" vehsPerHour="38.79989495542957"/>
  <flow id="JF118937" begin="600" fromJunction="J6" toJunction="J0" end="660" vehsPerHour="11.94509871757002"/>
  <flow id="JF118938" begin="600" fromJunction="J6" toJunction="J3" end="660" vehsPerHour="11.025920401823145"/>
  <flow id="JF118939" begin="600" fromJunction="J6" toJunction="J4" end="660" vehsPerHour="7.003137178873886"/>
  <flow id="JF118940" begin="600" fromJunction="J6" toJunction="J5" end="660" vehsPerHour="26.411992582787818"/>
  <flow id="JF118941" begin="600" fromJunction="J6" toJunction="J7" end="660" vehsPerHour="67.56201186834511"/>
  <flow id="JF118942" begin="600" fromJunction="J7" toJunction="J3" end="660" vehsPerHour="47.56071956242681"/>
  <flow id="JF118943" begin="600" fromJunction="J7" toJunction="J5" end="660" vehsPerHour="6.6574666102166065"/>
  <flow id="JF118944" begin="600" fromJunction="J7" toJunction="J6" end="660" vehsPerHour="23.189202846932126"/>
  <flow id="JF118945" begin="660" fromJunction="J0" toJunction="J4" end="720" vehsPerHour="77.61228091063731"/>
  <flow id="JF118946" begin="660" fromJunction="J0" toJunction="J6" end="720" vehsPerHour="116.83906441858983"/>
  <flow id="JF118947" begin="660" fromJunction="J3" toJunction="J0" end="720" vehsPerHour="88.00577191853188"/>
  <flow id="JF118948" begin="660" fromJunction="J3" toJunction="J4" end="720" vehsPerHour="13.654014085182956"/>
  <flow id="JF118949" begin="660" fromJunction="J3" toJunction="J5" end="720" vehsPerHour="47.55634835277078"/>
  <flow id="JF118950" begin="660" fromJunction="J3" toJunction="J6" end="720" vehsPerHour="26.086190113710693"/>
  <flow id="JF118951" begin="660" fromJunction="J3" toJunction="J7" end="720" vehsPerHour="62.321895548116714"/>
  <flow id="JF118952" begin="660" fromJunction="J4" toJunction="J0" end="720" vehsPerHour="34.53705770586326"/>
  <flow id="JF118953" begin="660" fromJunction="J4" toJunction="J5" end="720" vehsPerHour="38.69119028624957"/>
  <flow id="JF118954" begin="660" fromJunction="J4" toJunction="J6" end="720" vehsPerHour="37.418171278433555"/>
  <flow id="JF118955" begin="660" fromJunction="J5" toJunction="J0" end="720" vehsPerHour="44.98806623576384"/>
  <flow id="JF118956" begin="660" fromJunction="J5" toJunction="J6" end="720" vehsPerHour="25.5079364053121"/>
  <flow id="JF118957" begin="660" fromJunction="J6" toJunction="J3" end="720" vehsPerHour="43.1479882887818"/>
  <flow id="JF118958" begin="660" fromJunction="J6" toJunction="J4" end="720" vehsPerHour="64.12432456958213"/>
  <flow id="JF118959" begin="660" fromJunction="J6" toJunction="J5" end="720" vehsPerHour="20.32433027015346"/>
  <flow id="JF118960" begin="660" fromJunction="J6" toJunction="J7" end="720" vehsPerHour="53.592046461449335"/>
  <flow id="JF118961" begin="660" fromJunction="J7" toJunction="J0" end="720" vehsPerHour="60.888933296463335"/>
  <flow id="JF118962" begin="660" fromJunction="J7" toJunction="J4" end="720" vehsPerHour="9.528882546664999"/>
  <flow id="JF118963" begin="660" fromJunction="J7" toJunction="J5" end="720" vehsPerHour="48.9145827809576"/>
  <flow id="JF118964" begin="660" fromJunction="J7" toJunction="J6" end="720" vehsPerHour="47.75369673747192"/>
  <flow id="JF118965" begin="720" fromJunction="J0" toJunction="J3" end="780" vehsPerHour="80.15737394349078"/>
  <flow id="JF118966" begin="720" fromJunction="J0" toJunction="J4" end="780" vehsPerHour="42.18768463723908"/>
  <flow id="JF118967" begin="720" fromJunction="J0" toJunction="J5" end="780" vehsPerHour="62.860565891224795"/>
  <flow id="JF118968" begin="720" fromJunction="J3" toJunction="J0" end="780" vehsPerHour="13.526868130040349"/>
  <flow id="JF118969" begin="720" fromJunction="J3" toJunction="J4" end="780" vehsPerHour="135.28638558467298"/>
  <flow id="JF118970" begin="720" fromJunction="J3" toJunction="J5" end="780" vehsPerHour="50.68803197068839"/>
  <flow id="JF118971" begin="720" fromJunction="J3" toJunction="J6" end="780" vehsPerHour="85.92914583525766"/>
  <flow id="JF118972" begin="720" fromJunction="J3" toJunction="J7" end="780" vehsPerHour="10.841797335467087"/>
  <flow id="JF118973" begin="720" fromJunction="J4" toJunction="J3" end="780" vehsPerHour="53.326379426252"/>
  <flow id="JF118974" begin="720" fromJunction="J4" toJunction="J5" end="780" vehsPerHour="27.84346651420236"/>
  <flow id="JF118975" begin="720" fromJunction="J4" toJunction="J6" end="780" vehsPerHour="12.538448063821892"/>
  <flow id="JF118976" begin="720" fromJunction="J4" toJunction="J7" end="780" vehsPerHour="67.92774083830096"/>
  <flow id="JF118977" begin="720" fromJunction="J5" toJunction="J0" end="780" vehsPerHour="22.800782295722957"/>
  <flow id="JF118978" begin="720" fromJunction="J5" toJunction="J4" end="780" vehsPerHour="6.929578631369478"/>
  <flow id="JF118979" begin="720" fromJunction="J6" toJunction="J4" end="780" vehsPerHour="39.081026395829696"/>
  <flow id="JF118980" begin="720" fromJunction="J6" toJunction="J5" end="780" vehsPerHour="23.983819209695515"/>
  <flow id="JF118981" begin="720" fromJunction="J6" toJunction="J7" end="780" vehsPerHour="35.96033342874233"/>