<?xml version="1.0" encoding="UTF-8"?>
<routes xmlns:xsi="http://www.w3.org/2001/XMLSchema-instance" xsi:noNamespaceSchemaLocation="http://sumo.dlr.de/xsd/routes_file.xsd">
  <flow id="JF111315" begin="0" fromJunction="J0" toJunction="J3" end="60" vehsPerHour="83.13456266828588"/>
  <flow id="JF111316" begin="0" fromJunction="J0" toJunction="J4" end="60" vehsPerHour="7.176967140309621"/>
  <flow id="JF111317" begin="0" fromJunction="J0" toJunction="J5" end="60" vehsPerHour="2.5225674115073"/>
  <flow id="JF111318" begin="0" fromJunction="J3" toJunction="J0" end="60" vehsPerHour="21.458549398617226"/>
  <flow id="JF111319" begin="0" fromJunction="J3" toJunction="J4" end="60" vehsPerHour="72.32210986825422"/>
  <flow id="JF111320" begin="0" fromJunction="J3" toJunction="J5" end="60" vehsPerHour="64.41947995221592"/>
  <flow id="JF111321" begin="0" fromJunction="J3" toJunction="J7" end="60" vehsPerHour="51.300535047252744"/>
  <flow id="JF111322" begin="0" fromJunction="J4" toJunction="J0" end="60" vehsPerHour="38.800827715446886"/>
  <flow id="JF111323" begin="0" fromJunction="J4" toJunction="J5" end="60" vehsPerHour="44.98279133961934"/>
  <flow id="JF111324" begin="0" fromJunction="J4" toJunction="J6" end="60" vehsPerHour="27.703956077001777"/>
  <flow id="JF111325" begin="0" fromJunction="J4" toJunction="J7" end="60" vehsPerHour="24.542136215911654"/>
  <flow id="JF111326" begin="0" fromJunction="J5" toJunction="J0" end="60" vehsPerHour="34.48894158423466"/>
  <flow id="JF111327" begin="0" fromJunction="J5" toJunction="J3" end="60" vehsPerHour="56.66375290638246"/>
  <flow id="JF111328" begin="0" fromJunction="J5" toJunction="J6" end="60" vehsPerHour="59.55135681086196"/>
  <flow id="JF111329" begin="0" fromJunction="J5" toJunction="J7" end="60" vehsPerHour="42.83571047455417"/>
  <flow id="JF111330" begin="0" fromJunction="J6" toJunction="J0" end="60" vehsPerHour="60.89701638982394"/>
  <flow id="JF111331" begin="0" fromJunction="J6" toJunction="J4" end="60" vehsPerHour="45.860264099990474"/>
  <flow id="JF111332" begin="0" fromJunction="J6" toJunction="J5" end="60" vehsPerHour="34.29402911390784"/>
  <flow id="JF111333" begin="0" fromJunction="J6" toJunction="J7" end="60" vehsPerHour="68.39886335137517"/>
  <flow id="JF111334" begin="0" fromJunction="J7" toJunction="J0" end="60" vehsPerHour="46.21131069092397"/>
  <flow id="JF111335" begin="0" fromJunction="J7" toJunction="J3" end="60" vehsPerHour="36.459479453156014"/>
  <flow id="JF111336" begin="0" fromJunction="J7" toJunction="J4" end="60" vehsPerHour="0.4800858567089707"/>
  <flow id="JF111337" begin="0" fromJunction="J7" toJunction="J5" end="60" vehsPerHour="30.92473470332073"/>
  <flow id="JF111338" begin="0" fromJunction="J7" toJunction="J6" end="60" vehsPerHour="24.222854466817065"/>
  <flow id="JF111339" begin="60" fromJunction="J0" toJunction="J5" end="120" vehsPerHour="50.16386885631197"/>
  <flow id="JF111340" begin="60" fromJunction="J0" toJunction="J6" end="120" vehsPerHour="29.15276394807054"/>
  <flow id="JF111341" begin="60" fromJunction="J0" toJunction="J7" end="120" vehsPerHour="92.36280326464212"/>
  <flow id="JF111342" begin="60" fromJunction="J3" toJunction="J0" end="120" vehsPerHour="23.377790076356188"/>
  <flow id="JF111343" begin="60" fromJunction="J3" toJunction="J5" end="120" vehsPerHour="7.279921368381424"/>
  <flow id="JF111344" begin="60" fromJunction="J3" toJunction="J6" end="120" vehsPerHour="17.24301236953917"/>
  <flow id="JF111345" begin="60" fromJunction="J3" toJunction="J7" end="120" vehsPerHour="49.965006800434615"/>
  <flow id="JF111346" begin="60" fromJunction="J4" toJunction="J0" end="120" vehsPerHour="37.12458693106893"/>
  <flow id="JF111347" begin="60" fromJunction="J4" toJunction="J5" end="120" vehsPerHour="55.670647238963454"/>
  <flow id="JF111348" begin="60" fromJunction="J4" toJunction="J7" end="120" vehsPerHour="32.17076603756985"/>
  <flow id="JF111349" begin="60" fromJunction="J5" toJunction="J3" end="120" vehsPerHour="28.23420265707636"/>
  <flow id="JF111350" begin="60" fromJunction="J5" toJunction="J4" end="120" vehsPerHour="51.995624986896395"/>
  <flow id="JF111351" begin="60" fromJunction="J5" toJunction="J7" end="120" vehsPerHour="51.1779791148647"/>
  <flow id="JF111352" begin="60" fromJunction="J6" toJunction="J0" end="120" vehsPerHour="56.18634838560579"/>
  <flow id="JF111353" begin="60" fromJunction="J6" toJunction="J4" end="120" vehsPerHour="50.529761188659016"/>
  <flow id="JF111354" begin="60" fromJunction="J6" toJunction="J7" end="120" vehsPerHour="6.520016492132613"/>
  <flow id="JF111355" begin="60" fromJunction="J7" toJunction="J0" end="120" vehsPerHour="14.823716980463292"/>
  <flow id="JF111356" begin="60" fromJunction="J7" toJunction="J3" end="120" vehsPerHour="31.033672916379604"/>
  <flow id="JF111357" begin="60" fromJunction="J7" toJunction="J4" end="120" vehsPerHour="41.52835554239922"/>
  <flow id="JF111358" begin="60" fromJunction="J7" toJunction="J5" end="120" vehsPerHour="59.80110913359305"/>
  <flow id="JF111359" begin="120" fromJunction="J0" toJunction="J3" end="180" vehsPerHour="3.7235935517748975"/>
  <flow id="JF111360" begin="120" fromJunction="J0" toJunction="J4" end="180" vehsPerHour="92.35906393343983"/>
  <flow id="JF111361" begin="120" fromJunction="J0" toJunction="J5" end="180" vehsPerHour="4.108717790474083"/>
  <flow id="JF111362" begin="120" fromJunction="J0" toJunction="J6" end="180" vehsPerHour="62.273935366469885"/>
  <flow id="JF111363" begin="120" fromJunction="J0" toJunction="J7" end="180" vehsPerHour="99.99534113039319"/>
  <flow id="JF111364" begin="120" fromJunction="J3" toJunction="J0" end="180" vehsPerHour="71.63714323851578"/>
  <flow id="JF111365" begin="120" fromJunction="J3" toJunction="J5" end="180" vehsPerHour="34.416238966773435"/>
  <flow id="JF111366" begin="120" fromJunction="J3" toJunction="J6" end="180" vehsPerHour="14.944624484947964"/>
  <flow id="JF111367" begin="120" fromJunction="J3" toJunction="J7" end="180" vehsPerHour="66.2291135514374"/>
  <flow id="JF111368" begin="120" fromJunction="J4" toJunction="J0" end="180" vehsPerHour="59.6923489811646"/>
  <flow id="JF111369" begin="120" fromJunction="J4" toJunction="J3" end="180" vehsPerHour="43.926160627542195"/>
  <flow id="JF111370" begin="120" fromJunction="J4" toJunction="J5" end="180" vehsPerHour="29.41465216344781"/>
  <flow id="JF111371" begin="120" fromJunction="J4" toJunction="J7" end="180" vehsPerHour="34.92317938425935"/>
  <flow id="JF111372" begin="120" fromJunction="J5" toJunction="J0" end="180" vehsPerHour="2.9888303805519856"/>
  <flow id="JF111373" begin="120" fromJunction="J5" toJunction="J3" end="180" vehsPerHour="21.124730207449893"/>
  <flow id="JF111374" begin="120" fromJunction="J5" toJunction="J4" end="180" vehsPerHour="44.77207814749539"/>
  <flow id="JF111375" begin="120" fromJunction="J5" toJunction="J6" end="180" vehsPerHour="42.70015393009539"/>
  <flow id="JF111376" begin="120" fromJunction="J5" toJunction="J7" end="180" vehsPerHour="10.790681210533911"/>
  <flow id="JF111377" begin="120" fromJunction="J6" toJunction="J3" end="180" vehsPerHour="35.32895204983533"/>
  <flow id="JF111378" begin="120" fromJunction="J7" toJunction="J0" end="180" vehsPerHour="64.93579144137902"/>
  <flow id="JF111379" begin="120" fromJunction="J7" toJunction="J3" end="180" vehsPerHour="56.899528367651705"/>
  <flow id="JF111380" begin="120" fromJunction="J7" toJunction="J5" end="180" vehsPerHour="53.02540619205361"/>
  <flow id="JF111381" begin="120" fromJunction="J7" toJunction="J6" end="180" vehsPerHour="34.77997944724147"/>
  <flow id="JF111382" begin="180" fromJunction="J0" toJunction="J3" end="240" vehsPerHour="55.1025039815827"/>
  <flow id="JF111383" begin="180" fromJunction="J0" toJunction="J6" end="240" vehsPerHour="27.638162324618737"/>
  <flow id="JF111384" begin="180" fromJunction="J0" toJunction="J7" end="240" vehsPerHour="67.62419898378178"/>
  <flow id="JF111385" begin="180" fromJunction="J3" toJunction="J0" end="240" vehsPerHour="84.5046655389033"/>
  <flow id="JF111386" begin="180" fromJunction="J3" toJunction="J4" end="240" vehsPerHour="2.6335541095771746"/>
  <flow id="JF111387" begin="180" fromJunction="J3" toJunction="J5" end="240" vehsPerHour="32.63615285528094"/>
  <flow id="JF111388" begin="180" fromJunction="J3" toJunction="J7" end="240" vehsPerHour="130.46090941510718"/>
  <flow id="JF111389" begin="180" fromJunction="J4" toJunction="J3" end="240" vehsPerHour="27.973785204330703"/>
  <flow id="JF111390" begin="180" fromJunction="J4" toJunction="J6" end="240" vehsPerHour="4.535571036082216"/>
  <flow id="JF111391" begin="180" fromJunction="J5" toJunction="J3" end="240" vehsPerHour="38.6590944798414"/>
  <flow id="JF111392" begin="180" fromJunction="J5" toJunction="J6" end="240" vehsPerHour="36.958551409434975"/>
  <flow id="JF111393" begin="180" fromJunction="J6" toJunction="J0" end="240" vehsPerHour="38.84540134390059"/>
  <flow id="JF111394" begin="180" fromJunction="J6" toJunction="J4" end="240" vehsPerHour="59.249132061864316"/>
  <flow id="JF111395" begin="180" fromJunction="J6" toJunction="J5" end="240" vehsPerHour="67.79745374800801"/>
  <flow id="JF111396" begin="180" fromJunction="J6" toJunction="J7" end="240" vehsPerHour="50.57125536524216"/>
  <flow id="JF111397" begin="180" fromJunction="J7" toJunction="J0" end="240" vehsPerHour="21.019278500528987"/>
  <flow id="JF111398" begin="180" fromJunction="J7" toJunction="J3" end="240" vehsPerHour="21.584900225730333"/>
  <flow id="JF111399" begin="180" fromJunction="J7" toJunction="J4" end="240" vehsPerHour="13.604464733342773"/>
  <flow id="JF111400" begin="180" fromJunction="J7" toJunction="J5" end="240" vehsPerHour="14.179262528749295"/>
  <flow id="JF111401" begin="240" fromJunction="J0" toJunction="J5" end="300" vehsPerHour="30.726090951240554"/>
  <flow id="JF111402" begin="240" fromJunction="J0" toJunction="J7" end="300" vehsPerHour="44.63047851579794"/>
  <flow id="JF111403" begin="240" fromJunction="J3" toJunction="J0" end="300" vehsPerHour="44.04494446059099"/>
  <flow id="JF111404" begin="240" fromJunction="J3" toJunction="J5" end="300" vehsPerHour="29.232536680360216"/>
  <flow id="JF111405" begin="240" fromJunction="J3" toJunction="J7" end="300" vehsPerHour="79.47037398736907"/>
  <flow id="JF111406" begin="240" fromJunction="J4" toJunction="J3" end="300" vehsPerHour="20.758951202190612"/>
  <flow id="JF111407" begin="240" fromJunction="J4" toJunction="J5" end="300" vehsPerHour="53.81521025918145"/>
  <flow id="JF111408" begin="240" fromJunction="J4" toJunction="J6" end="300" vehsPerHour="17.919065521859178"/>
  <flow id="JF111409" begin="240" fromJunction="J5" toJunction="J0" end="300" vehsPerHour="47.69504027276382"/>
  <flow id="JF111410" begin="240" fromJunction="J5" toJunction="J3" end="300" vehsPerHour="59.43731597507651"/>
  <flow id="JF111411" begin="240" fromJunction="J5" toJunction="J4" end="300" vehsPerHour="60.484943916265166"/>
  <flow id="JF111412" begin="240" fromJunction="J5" toJunction="J6" end="300" vehsPerHour="6.348019509045409"/>
  <flow id="JF111413" begin="240" fromJunction="J5" toJunction="J7" end="300" vehsPerHour="66.8281239949217"/>
  <flow id="JF111414" begin="240" fromJunction="J6" toJunction="J3" end="300" vehsPerHour="2.931261945318262"/>
  <flow id="JF111415" begin="240" fromJunction="J6" toJunction="J4" end="300" vehsPerHour="14.015470392607018"/>
  <flow id="JF111416" begin="240" fromJunction="J6" toJunction="J5" end="300" vehsPerHour="59.24058494031573"/>
  <flow id="JF111417" begin="240" fromJunction="J6" toJunction="J7" end="300" vehsPerHour="35.42786058363218"/>
  <flow id="JF111418" begin="240" fromJunction="J7" toJunction="J0" end="300" vehsPerHour="10.392503208268499"/>
  <flow id="JF111419" begin="240" fromJunction="J7" toJunction="J4" end="300" vehsPerHour="21.39382012035858"/>
  <flow id="JF111420" begin="300" fromJunction="J0" toJunction="J3" end="360" vehsPerHour="41.371171605513176"/>
  <flow id="JF111421" begin="300" fromJunction="J0" toJunction="J4" end="360" vehsPerHour="95.95016163447134"/>
  <flow id="JF111422" begin="300" fromJunction="J0" toJunction="J5" end="360" vehsPerHour="99.9476137407171"/>
  <flow id="JF111423" begin="300" fromJunction="J0" toJunction="J6" end="360" vehsPerHour="85.4377918819628"/>
  <flow id="JF111424" begin="300" fromJunction="J0" toJunction="J7" end="360" vehsPerHour="33.987183910460665"/>
  <flow id="JF111425" begin="300" fromJunction="J3" toJunction="J0" end="360" vehsPerHour="128.880727372818"/>
  <flow id="JF111426" begin="300" fromJunction="J3" toJunction="J4" end="360" vehsPerHour="46.898265348673654"/>
  <flow id="JF111427" begin="300" fromJunction="J3" toJunction="J5" end="360" vehsPerHour="6.587533670941611"/>
  <flow id="JF111428" begin="300" fromJunction="J3" toJunction="J7" end="360" vehsPerHour="127.63600165213495"/>
  <flow id="JF111429" begin="300" fromJunction="J4" toJunction="J0" end="360" vehsPerHour="66.83721131293538"/>
  <flow id="JF111430" begin="300" fromJunction="J4" toJunction="J3" end="360" vehsPerHour="5.925493703374507"/>
  <flow id="JF111431" begin="300" fromJunction="J4" toJunction="J5" end="360" vehsPerHour="34.89998381686217"/>
  <flow id="JF111432" begin="300" fromJunction="J4" toJunction="J7" end="360" vehsPerHour="1.4462704664985773"/>
  <flow id="JF111433" begin="300" fromJunction="J5" toJunction="J0" end="360" vehsPerHour="36.64952812153253"/>
  <flow id="JF111434" begin="300" fromJunction="J5" toJunction="J3" end="360" vehsPerHour="12.930320407169127"/>
  <flow id="JF111435" begin="300" fromJunction="J5" toJunction="J6" end="360" vehsPerHour="62.64082378853795"/>
  <flow id="JF111436" begin="300" fromJunction="J5" toJunction="J7" end="360" vehsPerHour="52.45028577889459"/>
  <flow id="JF111437" begin="300" fromJunction="J6" toJunction="J0" end="360" vehsPerHour="61.155897656543125"/>
  <flow id="JF111438" begin="300" fromJunction="J6" toJunction="J3" end="360" vehsPerHour="13.222701480464448"/>
  <flow id="JF111439" begin="300" fromJunction="J6" toJunction="J4" end="360" vehsPerHour="2.7822605385113164"/>
  <flow id="JF111440" begin="300" fromJunction="J6" toJunction="J5" end="360" vehsPerHour="30.014222909819804"/>
  <flow id="JF111441" begin="300" fromJunction="J6" toJunction="J7" end="360" vehsPerHour="1.9066953375317872"/>
  <flow id="JF111442" begin="300" fromJunction="J7" toJunction="J0" end="360" vehsPerHour="12.725832217888081"/>
  <flow id="JF111443" begin="300" fromJunction="J7" toJunction="J3" end="360" vehsPerHour="2.1747341785778906"/>
  <flow id="JF111444" begin="300" fromJunction="J7" toJunction="J4" end="360" vehsPerHour="40.82484873823322"/>
  <flow id="JF111445" begin="300" fromJunction="J7" toJunction="J5" end="360" vehsPerHour="2.858373321746624"/>
  <flow id="JF111446" begin="300" fromJunction="J7" toJunction="J6" end="360" vehsPerHour="33.29194133347199"/>
  <flow id="JF111447" begin="360" fromJunction="J0" toJunction="J4" end="420" vehsPerHour="100.93048123342433"/>
  <flow id="JF111448" begin="360" fromJunction="J0" toJunction="J5" end="420" vehsPerHour="99.8738724875026"/>
  <flow id="JF111449" begin="360" fromJunction="J0" toJunction="J6" end="420" vehsPerHour="55.443053560402035"/>
  <flow id="JF111450" begin="360" fromJunction="J0" toJunction="J7" end="420" vehsPerHour="23.204057816166934"/>
  <flow id="JF111451" begin="360" fromJunction="J3" toJunction="J0" end="420" vehsPerHour="20.313573219151014"/>
  <flow id="JF111452" begin="360" fromJunction="J3" toJunction="J4" end="420" vehsPerHour="101.28892767051781"/>
  <flow id="JF111453" begin="360" fromJunction="J3" toJunction="J5" end="420" vehsPerHour="19.56507219730814"/>
  <flow id="JF111454" begin="360" fromJunction="J3" toJunction="J7" end="420" vehsPerHour="11.217623903019172"/>
  <flow id="JF111455" begin="360" fromJunction="J4" toJunction="J0" end="420" vehsPerHour="42.34651034258655"/>
  <flow id="JF111456" begin="360" fromJunction="J4" toJunction="J3" end="420" vehsPerHour="56.67959810944381"/>
  <flow id="JF111457" begin="360" fromJunction="J4" toJunction="J5" end="420" vehsPerHour="43.44750876965979"/>
  <flow id="JF111458" begin="360" fromJunction="J5" toJunction="J0" end="420" vehsPerHour="42.996286614980825"/>
  <flow id="JF111459" begin="360" fromJunction="J5" toJunction="J3" end="420" vehsPerHour="49.059883612268806"/>
  <flow id="JF111460" begin="360" fromJunction="J5" toJunction="J4" end="420" vehsPerHour="51.45764960007091"/>
  <flow id="JF111461" begin="360" fromJunction="J5" toJunction="J6" end="420" vehsPerHour="45.79409673195996"/>
  <flow id="JF111462" begin="360" fromJunction="J5" toJunction="J7" end="420" vehsPerHour="6.281980217045018"/>
  <flow id="JF111463" begin="360" fromJunction="J6" toJunction="J0" end="420" vehsPerHour="16.858238827395862"/>
  <flow id="JF111464" begin="360" fromJunction="J6" toJunction="J3" end="420" vehsPerHour="25.924521477004166"/>
  <flow id="JF111465" begin="360" fromJunction="J6" toJunction="J4" end="420" vehsPerHour="66.38757608830127"/>
  <flow id="JF111466" begin="360" fromJunction="J6" toJunction="J5" end="420" vehsPerHour="60.27882227660176"/>
  <flow id="JF111467" begin="360" fromJunction="J6" toJunction="J7" end="420" vehsPerHour="11.080673378385093"/>
  <flow id="JF111468" begin="360" fromJunction="J7" toJunction="J3" end="420" vehsPerHour="26.564277792124702"/>
  <flow id="JF111469" begin="360" fromJunction="J7" toJunction="J4" end="420" vehsPerHour="61.11751315155447"/>
  <flow id="JF111470" begin="360" fromJunction="J7" toJunction="J5" end="420" vehsPerHour="24.612265419181107"/>
  <flow id="JF111471" begin="360" fromJunction="J7" toJunction="J6" end="420" vehsPerHour="13.046339235420975"/>
  <flow id="JF111472" begin="420" fromJunction="J0" toJunction="J3" end="480" vehsPerHour="68.92167954497275"/>
  <flow id="JF111473" begin="420" fromJunction="J0" toJunction="J4" end="480" vehsPerHour="122.15784765647926"/>
  <flow id="JF111474" begin="420" fromJunction="J0" toJunction="J5" end="480" vehsPerHour="51.91976757227881"/>
  <flow id="JF111475" begin="420" fromJunction="J0" toJunction="J6" end="480" vehsPerHour="41.475533845409245"/>
  <flow id="JF111476" begin="420" fromJunction="J0" toJunction="J7" end="480" vehsPerHour="31.892297471290373"/>
  <flow id="JF111477" begin="420" fromJunction="J3" toJunction="J0" end="480" vehsPerHour="122.24222111816411"/>
  <flow id="JF111478" begin="420" fromJunction="J3" toJunction="J4" end="480" vehsPerHour="84.11648827413346"/>
  <flow id="JF111479" begin="420" fromJunction="J3" toJunction="J5" end="480" vehsPerHour="26.201186560515566"/>
  <flow id="JF111480" begin="420" fromJunction="J3" toJunction="J6" end="480" vehsPerHour="66.47549834185287"/>
  <flow id="JF111481" begin="420" fromJunction="J4" toJunction="J0" end="480" vehsPerHour="34.403284282232946"/>
  <flow id="JF111482" begin="420" fromJunction="J4" toJunction="J6" end="480" vehsPerHour="61.48963053565543"/>
  <flow id="JF111483" begin="420" fromJunction="J4" toJunction="J7" end="480" vehsPerHour="65.65636823413763"/>
  <flow id="JF111484" begin="420" fromJunction="J5" toJunction="J0" end="480" vehsPerHour="17.573058367112775"/>
  <flow id="JF111485" begin="420" fromJunction="J5" toJunction="J3" end="480" vehsPerHour="14.626261305105844"/>
  <flow id="JF111486" begin="420" fromJunction="J5" toJunction="J6" end="480" vehsPerHour="18.216356870968134"/>
  <flow id="JF111487" begin="420" fromJunction="J6" toJunction="J0" end="480" vehsPerHour="31.069889552592368"/>
  <flow id="JF111488" begin="420" fromJunction="J6" toJunction="J4" end="480" vehsPerHour="33.28461274633517"/>
  <flow id="JF111489" begin="420" fromJunction="J6" toJunction="J5" end="480" vehsPerHour="12.540013797188738"/>
  <flow id="JF111490" begin="420" fromJunction="J6" toJunction="J7" end="480" vehsPerHour="50.173489276424014"/>
  <flow id="JF111491" begin="420" fromJunction="J7" toJunction="J0" end="480" vehsPerHour="7.1161444198027635"/>
  <flow id="JF111492" begin="420" fromJunction="J7" toJunction="J3" end="480" vehsPerHour="2.028713564103888"/>
  <flow id="JF111493" begin="420" fromJunction="J7" toJunction="J6" end="480" vehsPerHour="47.54859198221515"/>
  <flow id="JF111494" begin="480" fromJunction="J0" toJunction="J3" end="540" vehsPerHour="12.361748543059644"/>
  <flow id="JF111495" begin="480" fromJunction="J0" toJunction="J4" end="540" vehsPerHour="117.7602260652371"/>
  <flow id="JF111496" begin="480" fromJunction="J0" toJunction="J5" end="540" vehsPerHour="6.664435148067153"/>
  <flow id="JF111497" begin="480" fromJunction="J0" toJunction="J7" end="540" vehsPerHour="119.30779869042911"/>
  <flow id="JF111498" begin="480" fromJunction="J3" toJunction="J0" end="540" vehsPerHour="51.52899642552697"/>
  <flow id="JF111499" begin="480" fromJunction="J3" toJunction="J4" end="540" vehsPerHour="81.87281015660385"/>
  <flow id="JF111500" begin="480" fromJunction="J3" toJunction="J6" end="540" vehsPerHour="68.1176275038346"/>
  <flow id="JF111501" begin="480" fromJunction="J3" toJunction="J7" end="540" vehsPerHour="64.81668826809035"/>
  <flow id="JF111502" begin="480" fromJunction="J4" toJunction="J0" end="540" vehsPerHour="41.62484249521075"/>
  <flow id="JF111503" begin="480" fromJunction="J4" toJunction="J3" end="540" vehsPerHour="59.96685850159459"/>
  <flow id="JF111504" begin="480" fromJunction="J4" toJunction="J5" end="540" vehsPerHour="4.087002908536536"/>
  <flow id="JF111505" begin="480" fromJunction="J4" toJunction="J6" end="540" vehsPerHour="36.000463688768335"/>
  <flow id="JF111506" begin="480" fromJunction="J4" toJunction="J7" end="540" vehsPerHour="50.8588864905882"/>
  <flow id="JF111507" begin="480" fromJunction="J5" toJunction="J3" end="540" vehsPerHour="14.319542127198318"/>
  <flow id="JF111508" begin="480" fromJunction="J5" toJunction="J4" end="540" vehsPerHour="35.37483551027266"/>
  <flow id="JF111509" begin="480" fromJunction="J5" toJunction="J7" end="540" vehsPerHour="41.68216427394769"/>
  <flow id="JF111510" begin="480" fromJunction="J6" toJunction="J0" end="540" vehsPerHour="32.987391794556785"/>
  <flow id="JF111511" begin="480" fromJunction="J6" toJunction="J3" end="540" vehsPerHour="34.49205289769857"/>
  <flow id="JF111512" begin="480" fromJunction="J6" toJunction="J5" end="540" vehsPerHour="43.06504751655506"/>
  <flow id="JF111513" begin="480" fromJunction="J6" toJunction="J7" end="540" vehsPerHour="43.74700930199906"/>
  <flow id="JF111514" begin="480" fromJunction="J7" toJunction="J4" end="540" vehsPerHour="36.6045845380834"/>
  <flow id="JF111515" begin="540" fromJunction="J0" toJunction="J3" end="600" vehsPerHour="48.85404265126865"/>
  <flow id="JF111516" begin="540" fromJunction="J0" toJunction="J5" end="600" vehsPerHour="76.74224700703142"/>
  <flow id="JF111517" begin="540" fromJunction="J0" toJunction="J6" end="600" vehsPerHour="17.294390581939634"/>
  <flow id="JF111518" begin="540" fromJunction="J0" toJunction="J7" end="600" vehsPerHour="15.945262089438964"/>
  <flow id="JF111519" begin="540" fromJunction="J3" toJunction="J0" end="600" vehsPerHour="24.63489814140538"/>
  <flow id="JF111520" begin="540" fromJunction="J3" toJunction="J5" end="600" vehsPerHour="80.81534979031827"/>
  <flow id="JF111521" begin="540" fromJunction="J3" toJunction="J6" end="600" vehsPerHour="96.23299244560768"/>
  <flow id="JF111522" begin="540" fromJunction="J3" toJunction="J7" end="600" vehsPerHour="3.1966103575208726"/>
  <flow id="JF111523" begin="540" fromJunction="J4" toJunction="J5" end="600" vehsPerHour="56.54430299245957"/>
  <flow id="JF111524" begin="540" fromJunction="J4" toJunction="J7" end="600" vehsPerHour="68.30656221634892"/>
  <flow id="JF111525" begin="540" fromJunction="J5" toJunction="J0" end="600" vehsPerHour="10.034784973445324"/>
  <flow id="JF111526" begin="540" fromJunction="J5" toJunction="J3" end="600" vehsPerHour="22.65167231955879"/>
  <flow id="JF111527" begin="540" fromJunction="J5" toJunction="J4" end="600" vehsPerHour="40.755350077161744"/>
  <flow id="JF111528" begin="540" fromJunction="J5" toJunction="J7" end="600" vehsPerHour="27.0159763052092"/>
  <flow id="JF111529" begin="540" fromJunction="J6" toJunction="J5" end="600" vehsPerHour="44.983576440254694"/>
  <flow id="JF111530" begin="540" fromJunction="J7" toJunction="J0" end="600" vehsPerHour="34.29876365405854"/>
  <flow id="JF111531" begin="540" fromJunction="J7" toJunction="J3" end="600" vehsPerHour="26.8226163899395"/>
  <flow id="JF111532" begin="540" fromJunction="J7" toJunction="J4" end="600" vehsPerHour="29.7268785983519"/>
  <flow id="JF111533" begin="540" fromJunction="J7" toJunction="J6" end="600" vehsPerHour="64.15604544711381"/>
  <flow id="JF111534" begin="600" fromJunction="J3" toJunction="J0" end="660" vehsPerHour="90.72077003882536"/>
  <flow id="JF111535" begin="600" fromJunction="J3" toJunction="J5" end="660" vehsPerHour="81.47929197344995"/>
  <flow id="JF111536" begin="600" fromJunction="J3" toJunction="J7" end="660" vehsPerHour="106.82678277771598"/>
  <flow id="JF111537" begin="600" fromJunction="J4" toJunction="J0" end="660" vehsPerHour="13.760191387094672"/>
  <flow id="JF111538" begin="600" fromJunction="J4" toJunction="J3" end="660" vehsPerHour="67.56193593441495"/>
  <flow id="JF111539" begin="600" fromJunction="J4" toJunction="J5" end="660" vehsPerHour="49.41971437705653"/>
  <flow id="JF111540" begin="600" fromJunction="J4" toJunction="J6" end="660" vehsPerHour="2.2020318264042418"/>
  <flow id="JF111541" begin="600" fromJunction="J4" toJunction="J7" end="660" vehsPerHour="36.038992682068326"/>
  <flow id="JF111542" begin="600" fromJunction="J5" toJunction="J4" end="660" vehsPerHour="68.02585630842661"/>
  <flow id="JF111543" begin="600" fromJunction="J5" toJunction="J7" end="660" vehsPerHour="44.71046503496362"/>
  <flow id="JF111544" begin="600" fromJunction="J6" toJunction="J0" end="660" vehsPerHour="50.06735202120553"/>
  <flow id="JF111545" begin="600" fromJunction="J6" toJunction="J3" end="660" vehsPerHour="39.000025621605985"/>
  <flow id="JF111546" begin="600" fromJunction="J6" toJunction="J7" end="660" vehsPerHour="9.44802765156455"/>
  <flow id="JF111547" begin="600" fromJunction="J7" toJunction="J0" end="660" vehsPerHour="4.065514631770466"/>
  <flow id="JF111548" begin="600" fromJunction="J7" toJunction="J4" end="660" vehsPerHour="20.24468962058516"/>
  <flow id="JF111549" begin="600" fromJunction="J7" toJunction="J5" end="660" vehsPerHour="51.81507976960289"/>
  <flow id="JF111550" begin="600" fromJunction="J7" toJunction="J6" end="660" vehsPerHour="53.049634168772634"/>
  <flow id="JF111551" begin="660" fromJunction="J0" toJunction="J3" end="720" vehsPerHour="82.16805479462852"/>
  <flow id="JF111552" begin="660" fromJunction="J0" toJunction="J5" end="720" vehsPerHour="83.74588045082801"/>
  <flow id="JF111553" begin="660" fromJunction="J0" toJunction="J6" end="720" vehsPerHour="71.93185563711441"/>
  <flow id="JF111554" begin="660" fromJunction="J0" toJunction="J7" end="720" vehsPerHour="110.67333303597458"/>
  <flow id="JF111555" begin="660" fromJunction="J3" toJunction="J4" end="720" vehsPerHour="40.840128019292216"/>
  <flow id="JF111556" begin="660" fromJunction="J3" toJunction="J5" end="720" vehsPerHour="63.801522899204926"/>
  <flow id="JF111557" begin="660" fromJunction="J3" toJunction="J6" end="720" vehsPerHour="36.7966584523524"/>
  <flow id="JF111558" begin="660" fromJunction="J4" toJunction="J0" end="720" vehsPerHour="53.961558104058064"/>
  <flow id="JF111559" begin="660" fromJunction="J4" toJunction="J3" end="720" vehsPerHour="4.674552810896142"/>
  <flow id="JF111560" begin="660" fromJunction="J4" toJunction="J5" end="720" vehsPerHour="11.673460119935106"/>
  <flow id="JF111561" begin="660" fromJunction="J4" toJunction="J7" end="720" vehsPerHour="49.772246863869"/>
  <flow id="JF111562" begin="660" fromJunction="J5" toJunction="J3" end="720" vehsPerHour="66.55204126284148"/>
  <flow id="JF111563" begin="660" fromJunction="J5" toJunction="J4" end="720" vehsPerHour="63.63600369432767"/>
  <flow id="JF111564" begin="660" fromJunction="J5" toJunction="J6" end="720" vehsPerHour="50.55780911260869"/>
  <flow id="JF111565" begin="660" fromJunction="J6" toJunction="J0" end="720" vehsPerHour="5.686277183281346"/>
  <flow id="JF111566" begin="660" fromJunction="J6" toJunction="J3" end="720" vehsPerHour="28.59817445646221"/>
  <flow id="JF111567" begin="660" fromJunction="J6" toJunction="J4" end="720" vehsPerHour="16.929559428480207"/>
  <flow id="JF111568" begin="660" fromJunction="J6" toJunction="J7" end="720" vehsPerHour="32.79649881747487"/>
  <flow id="JF111569" begin="660" fromJunction="J7" toJunction="J0" end="720" vehsPerHour="58.691552531771485"/>
  <flow id="JF111570" begin="660" fromJunction="J7" toJunction="J4" end="720" vehsPerHour="47.504602484255976"/>
  <flow id="JF111571" begin="660" fromJunction="J7" toJunction="J6" end="720" vehsPerHour="35.876774219681046"/>
  <flow id="JF111572" begin="720" fromJunction="J0" toJunction="J5" end="780" vehsPerHour="106.00845820647562"/>
  <flow id="JF111573" begin="720" fromJunction="J0" toJunction="J7" end="780" vehsPerHour="33.68391015077957"/>
  <flow id="JF111574" begin="720" fromJunction="J3" toJunction="J0" end="780" vehsPerHour="129.99983992645812"/>
  <flow id="JF111575" begin="720" fromJunction="J3" toJunction="J4" end="780" vehsPerHour="123.84023433707831"/>
  <flow id="JF111576" begin="720" fromJunction="J3" toJunction="J5" end="780" vehsPerHour="69.18324778831573"/>
  <flow id="JF111577" begin="720" fromJunction="J3" toJunction="J6" end="780" vehsPerHour="119.42627795900717"/>
  <flow id="JF111578" begin="720" fromJunction="J3" toJunction="J7" end="780" vehsPerHour="112.44383087216569"/>
  <flow id="JF111579" begin="720" fromJunction="J4" toJunction="J3" end="780" vehsPerHour="8.543900178790155"/>
  <flow id="JF111580" begin="720" fromJunction="J4" toJunction="J5" end="780" vehsPerHour="33.52483365984777"/>