<?xml version="1.0" encoding="UTF-8"?>
<routes xmlns:xsi="http://www.w3.org/2001/XMLSchema-instance" xsi:noNamespaceSchemaLocation="http://sumo.dlr.de/xsd/routes_file.xsd">
  <flow id="JF87632" begin="0" fromJunction="J0" toJunction="J3" end="5000" vehsPerHour="1176.8394573953358" departLane="free"/>
  <flow id="JF87633" begin="0" fromJunction="J3" toJunction="J0" end="5000" vehsPerHour="589.9360774910438" departLane="free"/>
  <flow id="JF87634" begin="0" fromJunction="J0" toJunction="J7" end="5000" vehsPerHour="333.08321108276124" departLane="free"/>
  <flow id="JF87635" begin="0" fromJunction="J0" toJunction="J6" end="5000" vehsPerHour="331.76927164750674" departLane="free"/>
  <flow id="JF87636" begin="0" fromJunction="J0" toJunction="J4" end="5000" vehsPerHour="468.81982941034687" departLane="free"/>
  <flow id="JF87637" begin="0" fromJunction="J0" toJunction="J5" end="5000" vehsPerHour="548.8945313544375" departLane="free"/>
  <flow id="JF87638" begin="0" fromJunction="J3" toJunction="J7" end="5000" vehsPerHour="38.308068248104476" departLane="free"/>
  <flow id="JF87639" begin="0" fromJunction="J3" toJunction="J6" end="5000" vehsPerHour="54.50832310200119" departLane="free"/>
  <flow id="JF87640" begin="0" fromJunction="J3" toJunction="J4" end="5000" vehsPerHour="395.6658440280963" departLane="free"/>
  <flow id="JF87641" begin="0" fromJunction="J3" toJunction="J5" end="5000" vehsPerHour="33.51927591030264" departLane="free"/>
  <flow id="JF87642" begin="0" fromJunction="J7" toJunction="J6" end="5000" vehsPerHour="187.31489265803026" departLane="free"/>
  <flow id="JF87643" begin="0" fromJunction="J7" toJunction="J4" end="5000" vehsPerHour="156.71604564807961" departLane="free"/>
  <flow id="JF87644" begin="0" fromJunction="J7" toJunction="J5" end="5000" vehsPerHour="92.11716585193108" departLane="free"/>
  <flow id="JF87645" begin="0" fromJunction="J6" toJunction="J7" end="5000" vehsPerHour="82.79686125140849" departLane="free"/>
  <flow id="JF87646" begin="0" fromJunction="J6" toJunction="J4" end="5000" vehsPerHour="101.39477593015667" departLane="free"/>
  <flow id="JF87647" begin="0" fromJunction="J6" toJunction="J5" end="5000" vehsPerHour="233.92658730494404" departLane="free"/>
  <flow id="JF87648" begin="0" fromJunction="J4" toJunction="J7" end="5000" vehsPerHour="165.2263520449891" departLane="free"/>
  <flow id="JF87649" begin="0" fromJunction="J4" toJunction="J6" end="5000" vehsPerHour="19.777785760099114" departLane="free"/>
  <flow id="JF87650" begin="0" fromJunction="J4" toJunction="J5" end="5000" vehsPerHour="41.10409793236639" departLane="free"/>
  <flow id="JF87651" begin="0" fromJunction="J5" toJunction="J7" end="5000" vehsPerHour="41.39007389719311" departLane="free"/>
  <flow id="JF87652" begin="0" fromJunction="J5" toJunction="J6" end="5000" vehsPerHour="65.77406098938685" departLane="free"/>
  <flow id="JF87653" begin="0" fromJunction="J5" toJunction="J4" end="5000" vehsPerHour="164.46555445771102" departLane="free"/>
  <flow id="JF87654" begin="0" fromJunction="J7" toJunction="J0" end="5000" vehsPerHour="230.911833711538" departLane="free"/>
  <flow id="JF87655" begin="0" fromJunction="J7" toJunction="J3" end="5000" vehsPerHour="40.278645052286834" departLane="free"/>
  <flow id="JF87656" begin="0" fromJunction="J6" toJunction="J0" end="5000" vehsPerHour="180.76666820185113" departLane="free"/>
  <flow id="JF87657" begin="0" fromJunction="J6" toJunction="J3" end="5000" vehsPerHour="256.8019692362896" departLane="free"/>
  <flow id="JF87658" begin="0" fromJunction="J4" toJunction="J0" end="5000" vehsPerHour="230.97594578005084" departLane="free"/>
  <flow id="JF87659" begin="0" fromJunction="J4" toJunction="J3" end="5000" vehsPerHour="214.51347063085203" departLane="free"/>
  <flow id="JF87660" begin="0" fromJunction="J5" toJunction="J0" end="5000" vehsPerHour="101.19855332754908" departLane="free"/>
  <flow id="JF87661" begin="0" fromJunction="J5" toJunction="J3" end="5000" vehsPerHour="126.0022490292908" departLane="free"/>
  <flow id="JF87662" begin="5000" fromJunction="J0" toJunction="J4" end="5060" vehsPerHour="383.49477202897316" departLane="free"/>
  <flow id="JF87663" begin="5000" fromJunction="J0" toJunction="J5" end="5060" vehsPerHour="243.49333031679595" departLane="free"/>
  <flow id="JF87664" begin="5000" fromJunction="J0" toJunction="J7" end="5060" vehsPerHour="88.41504333949311" departLane="free"/>
  <flow id="JF87665" begin="5000" fromJunction="J3" toJunction="J5" end="5060" vehsPerHour="487.8781160575711" departLane="free"/>
  <flow id="JF87666" begin="5000" fromJunction="J3" toJunction="J6" end="5060" vehsPerHour="267.3694808064253" departLane="free"/>
  <flow id="JF87667" begin="5000" fromJunction="J3" toJunction="J7" end="5060" vehsPerHour="345.63084542346473" departLane="free"/>
  <flow id="JF87668" begin="5000" fromJunction="J4" toJunction="J0" end="5060" vehsPerHour="186.37101138771598" departLane="free"/>
  <flow id="JF87669" begin="5000" fromJunction="J4" toJunction="J3" end="5060" vehsPerHour="39.896189088742396" departLane="free"/>
  <flow id="JF87670" begin="5000" fromJunction="J4" toJunction="J6" end="5060" vehsPerHour="84.68544410958124" departLane="free"/>
  <flow id="JF87671" begin="5000" fromJunction="J4" toJunction="J7" end="5060" vehsPerHour="143.7630125869335" departLane="free"/>
  <flow id="JF87672" begin="5000" fromJunction="J5" toJunction="J3" end="5060" vehsPerHour="224.44633408834616" departLane="free"/>
  <flow id="JF87673" begin="5000" fromJunction="J5" toJunction="J4" end="5060" vehsPerHour="61.19591448921515" departLane="free"/>
  <flow id="JF87674" begin="5000" fromJunction="J5" toJunction="J6" end="5060" vehsPerHour="74.91763880005078" departLane="free"/>
  <flow id="JF87675" begin="5000" fromJunction="J6" toJunction="J0" end="5060" vehsPerHour="92.67880385962823" departLane="free"/>
  <flow id="JF87676" begin="5000" fromJunction="J6" toJunction="J3" end="5060" vehsPerHour="134.40260105068458" departLane="free"/>
  <flow id="JF87677" begin="5000" fromJunction="J6" toJunction="J7" end="5060" vehsPerHour="44.866667570030955" departLane="free"/>
  <flow id="JF87678" begin="5000" fromJunction="J7" toJunction="J0" end="5060" vehsPerHour="68.90220251709262" departLane="free"/>
  <flow id="JF87679" begin="5000" fromJunction="J7" toJunction="J3" end="5060" vehsPerHour="34.551955984900594" departLane="free"/>
  <flow id="JF87680" begin="5000" fromJunction="J7" toJunction="J4" end="5060" vehsPerHour="78.16413710834122" departLane="free"/>
  <flow id="JF87681" begin="5000" fromJunction="J7" toJunction="J5" end="5060" vehsPerHour="115.0762679096309" departLane="free"/>
  <flow id="JF87682" begin="5000" fromJunction="J7" toJunction="J6" end="5060" vehsPerHour="119.39747501780683" departLane="free"/>
  <flow id="JF87683" begin="5060" fromJunction="J0" toJunction="J3" end="5120" vehsPerHour="530.3749514313006" departLane="free"/>
  <flow id="JF87684" begin="5060" fromJunction="J0" toJunction="J5" end="5120" vehsPerHour="407.8531040790507" departLane="free"/>
  <flow id="JF87685" begin="5060" fromJunction="J0" toJunction="J7" end="5120" vehsPerHour="13.35313144443566" departLane="free"/>
  <flow id="JF87686" begin="5060" fromJunction="J3" toJunction="J0" end="5120" vehsPerHour="83.63417395957474" departLane="free"/>
  <flow id="JF87687" begin="5060" fromJunction="J3" toJunction="J4" end="5120" vehsPerHour="504.23566858153475" departLane="free"/>
  <flow id="JF87688" begin="5060" fromJunction="J3" toJunction="J6" end="5120" vehsPerHour="365.57062308647704" departLane="free"/>
  <flow id="JF87689" begin="5060" fromJunction="J3" toJunction="J7" end="5120" vehsPerHour="284.2007335464682" departLane="free"/>
  <flow id="JF87690" begin="5060" fromJunction="J4" toJunction="J0" end="5120" vehsPerHour="187.1806398663431" departLane="free"/>
  <flow id="JF87691" begin="5060" fromJunction="J4" toJunction="J5" end="5120" vehsPerHour="125.52086017815296" departLane="free"/>
  <flow id="JF87692" begin="5060" fromJunction="J5" toJunction="J0" end="5120" vehsPerHour="81.27132358358932" departLane="free"/>
  <flow id="JF87693" begin="5060" fromJunction="J5" toJunction="J4" end="5120" vehsPerHour="138.9015920561149" departLane="free"/>
  <flow id="JF87694" begin="5060" fromJunction="J5" toJunction="J6" end="5120" vehsPerHour="91.41940122885424" departLane="free"/>
  <flow id="JF87695" begin="5060" fromJunction="J6" toJunction="J3" end="5120" vehsPerHour="71.15979163007006" departLane="free"/>
  <flow id="JF87696" begin="5060" fromJunction="J6" toJunction="J4" end="5120" vehsPerHour="60.50786311085989" departLane="free"/>
  <flow id="JF87697" begin="5060" fromJunction="J7" toJunction="J0" end="5120" vehsPerHour="21.162936570636745" departLane="free"/>
  <flow id="JF87698" begin="5060" fromJunction="J7" toJunction="J4" end="5120" vehsPerHour="272.34960446244384" departLane="free"/>
  <flow id="JF87699" begin="5060" fromJunction="J7" toJunction="J6" end="5120" vehsPerHour="181.05011831874796" departLane="free"/>
  <flow id="JF87700" begin="5120" fromJunction="J0" toJunction="J3" end="5180" vehsPerHour="137.89803459114663" departLane="free"/>
  <flow id="JF87701" begin="5120" fromJunction="J0" toJunction="J4" end="5180" vehsPerHour="31.30336419820556" departLane="free"/>
  <flow id="JF87702" begin="5120" fromJunction="J0" toJunction="J5" end="5180" vehsPerHour="42.50201821964588" departLane="free"/>
  <flow id="JF87703" begin="5120" fromJunction="J0" toJunction="J6" end="5180" vehsPerHour="94.18955270340435" departLane="free"/>
  <flow id="JF87704" begin="5120" fromJunction="J0" toJunction="J7" end="5180" vehsPerHour="151.9452995528462" departLane="free"/>
  <flow id="JF87705" begin="5120" fromJunction="J3" toJunction="J0" end="5180" vehsPerHour="204.10431388208448" departLane="free"/>
  <flow id="JF87706" begin="5120" fromJunction="J3" toJunction="J4" end="5180" vehsPerHour="371.3513868815773" departLane="free"/>
  <flow id="JF87707" begin="5120" fromJunction="J3" toJunction="J5" end="5180" vehsPerHour="481.44458912909846" departLane="free"/>
  <flow id="JF87708" begin="5120" fromJunction="J3" toJunction="J6" end="5180" vehsPerHour="131.15924291279654" departLane="free"/>
  <flow id="JF87709" begin="5120" fromJunction="J3" toJunction="J7" end="5180" vehsPerHour="325.83037526172075" departLane="free"/>
  <flow id="JF87710" begin="5120" fromJunction="J4" toJunction="J0" end="5180" vehsPerHour="227.8333303692506" departLane="free"/>
  <flow id="JF87711" begin="5120" fromJunction="J4" toJunction="J3" end="5180" vehsPerHour="142.67549316637673" departLane="free"/>
  <flow id="JF87712" begin="5120" fromJunction="J4" toJunction="J5" end="5180" vehsPerHour="56.95200574170151" departLane="free"/>
  <flow id="JF87713" begin="5120" fromJunction="J4" toJunction="J6" end="5180" vehsPerHour="124.73331932743442" departLane="free"/>
  <flow id="JF87714" begin="5120" fromJunction="J5" toJunction="J0" end="5180" vehsPerHour="80.10800491480671" departLane="free"/>
  <flow id="JF87715" begin="5120" fromJunction="J5" toJunction="J3" end="5180" vehsPerHour="62.2875348508453" departLane="free"/>
  <flow id="JF87716" begin="5120" fromJunction="J5" toJunction="J4" end="5180" vehsPerHour="46.8451283198335" departLane="free"/>
  <flow id="JF87717" begin="5120" fromJunction="J5" toJunction="J6" end="5180" vehsPerHour="151.995031800761" departLane="free"/>
  <flow id="JF87718" begin="5120" fromJunction="J6" toJunction="J4" end="5180" vehsPerHour="264.2568400241502" departLane="free"/>
  <flow id="JF87719" begin="5120" fromJunction="J6" toJunction="J5" end="5180" vehsPerHour="254.4457183935234" departLane="free"/>
  <flow id="JF87720" begin="5120" fromJunction="J6" toJunction="J7" end="5180" vehsPerHour="247.82556630477768" departLane="free"/>
  <flow id="JF87721" begin="5120" fromJunction="J7" toJunction="J3" end="5180" vehsPerHour="18.539066720410663" departLane="free"/>
  <flow id="JF87722" begin="5120" fromJunction="J7" toJunction="J4" end="5180" vehsPerHour="167.6370740010913" departLane="free"/>
  <flow id="JF87723" begin="5120" fromJunction="J7" toJunction="J5" end="5180" vehsPerHour="153.3384525050491" departLane="free"/>
  <flow id="JF87724" begin="5120" fromJunction="J7" toJunction="J6" end="5180" vehsPerHour="188.81485432946968" departLane="free"/>
  <flow id="JF87725" begin="5180" fromJunction="J0" toJunction="J5" end="5240" vehsPerHour="462.2803318460444" departLane="free"/>
  <flow id="JF87726" begin="5180" fromJunction="J0" toJunction="J7" end="5240" vehsPerHour="460.374382078425" departLane="free"/>
  <flow id="JF87727" begin="5180" fromJunction="J3" toJunction="J4" end="5240" vehsPerHour="136.678902115053" departLane="free"/>
  <flow id="JF87728" begin="5180" fromJunction="J3" toJunction="J5" end="5240" vehsPerHour="489.5288165359128" departLane="free"/>
  <flow id="JF87729" begin="5180" fromJunction="J3" toJunction="J6" end="5240" vehsPerHour="439.21511070166133" departLane="free"/>
  <flow id="JF87730" begin="5180" fromJunction="J3" toJunction="J7" end="5240" vehsPerHour="543.707154863127" departLane="free"/>
  <flow id="JF87731" begin="5180" fromJunction="J4" toJunction="J0" end="5240" vehsPerHour="160.3098637673801" departLane="free"/>
  <flow id="JF87732" begin="5180" fromJunction="J4" toJunction="J6" end="5240" vehsPerHour="186.38753547077857" departLane="free"/>
  <flow id="JF87733" begin="5180" fromJunction="J4" toJunction="J7" end="5240" vehsPerHour="218.62806240791346" departLane="free"/>
  <flow id="JF87734" begin="5180" fromJunction="J5" toJunction="J0" end="5240" vehsPerHour="82.61974185482751" departLane="free"/>
  <flow id="JF87735" begin="5180" fromJunction="J5" toJunction="J3" end="5240" vehsPerHour="137.39990870440795" departLane="free"/>
  <flow id="JF87736" begin="5180" fromJunction="J5" toJunction="J6" end="5240" vehsPerHour="267.06015365627485" departLane="free"/>
  <flow id="JF87737" begin="5180" fromJunction="J5" toJunction="J7" end="5240" vehsPerHour="91.84897228272806" departLane="free"/>
  <flow id="JF87738" begin="5180" fromJunction="J6" toJunction="J5" end="5240" vehsPerHour="11.182383249892032" departLane="free"/>
  <flow id="JF87739" begin="5180" fromJunction="J6" toJunction="J7" end="5240" vehsPerHour="3.279589232936252" departLane="free"/>
  <flow id="JF87740" begin="5180" fromJunction="J7" toJunction="J3" end="5240" vehsPerHour="251.4052485046465" departLane="free"/>
  <flow id="JF87741" begin="5180" fromJunction="J7" toJunction="J4" end="5240" vehsPerHour="119.28681630347035" departLane="free"/>
  <flow id="JF87742" begin="5180" fromJunction="J7" toJunction="J6" end="5240" vehsPerHour="173.05487960032053" departLane="free"/>
  <flow id="JF87743" begin="5240" fromJunction="J0" toJunction="J5" end="5300" vehsPerHour="199.54600731955367" departLane="free"/>
  <flow id="JF87744" begin="5240" fromJunction="J0" toJunction="J6" end="5300" vehsPerHour="178.047400899673" departLane="free"/>
  <flow id="JF87745" begin="5240" fromJunction="J0" toJunction="J7" end="5300" vehsPerHour="515.0032571091141" departLane="free"/>
  <flow id="JF87746" begin="5240" fromJunction="J3" toJunction="J0" end="5300" vehsPerHour="265.4784239028406" departLane="free"/>
  <flow id="JF87747" begin="5240" fromJunction="J3" toJunction="J4" end="5300" vehsPerHour="229.2400178657907" departLane="free"/>
  <flow id="JF87748" begin="5240" fromJunction="J3" toJunction="J5" end="5300" vehsPerHour="216.87740882887215" departLane="free"/>
  <flow id="JF87749" begin="5240" fromJunction="J3" toJunction="J6" end="5300" vehsPerHour="179.03621355956065" departLane="free"/>
  <flow id="JF87750" begin="5240" fromJunction="J3" toJunction="J7" end="5300" vehsPerHour="207.27397535098493" departLane="free"/>
  <flow id="JF87751" begin="5240" fromJunction="J4" toJunction="J0" end="5300" vehsPerHour="239.91464404415206" departLane="free"/>
  <flow id="JF87752" begin="5240" fromJunction="J4" toJunction="J3" end="5300" vehsPerHour="266.0626534282305" departLane="free"/>
  <flow id="JF87753" begin="5240" fromJunction="J4" toJunction="J5" end="5300" vehsPerHour="59.29501398012977" departLane="free"/>
  <flow id="JF87754" begin="5240" fromJunction="J4" toJunction="J6" end="5300" vehsPerHour="8.184196243043024" departLane="free"/>
  <flow id="JF87755" begin="5240" fromJunction="J4" toJunction="J7" end="5300" vehsPerHour="187.17155994795266" departLane="free"/>
  <flow id="JF87756" begin="5240" fromJunction="J5" toJunction="J0" end="5300" vehsPerHour="180.99622632124797" departLane="free"/>
  <flow id="JF87757" begin="5240" fromJunction="J5" toJunction="J3" end="5300" vehsPerHour="239.56575176464565" departLane="free"/>
  <flow id="JF87758" begin="5240" fromJunction="J5" toJunction="J4" end="5300" vehsPerHour="59.85239872668527" departLane="free"/>
  <flow id="JF87759" begin="5240" fromJunction="J5" toJunction="J6" end="5300" vehsPerHour="230.81892280513608" departLane="free"/>
  <flow id="JF87760" begin="5240" fromJunction="J6" toJunction="J0" end="5300" vehsPerHour="25.27247679274085" departLane="free"/>
  <flow id="JF87761" begin="5240" fromJunction="J6" toJunction="J5" end="5300" vehsPerHour="129.74363669568928" departLane="free"/>
  <flow id="JF87762" begin="5240" fromJunction="J6" toJunction="J7" end="5300" vehsPerHour="230.22162566709812" departLane="free"/>
  <flow id="JF87763" begin="5240" fromJunction="J7" toJunction="J0" end="5300" vehsPerHour="150.51247494824784" departLane="free"/>
  <flow id="JF87764" begin="5240" fromJunction="J7" toJunction="J4" end="5300" vehsPerHour="134.26710133617527" departLane="free"/>
  <flow id="JF87765" begin="5240" fromJunction="J7" toJunction="J5" end="5300" vehsPerHour="187.6529050218058" departLane="free"/>
  <flow id="JF87766" begin="5240" fromJunction="J7" toJunction="J6" end="5300" vehsPerHour="217.6322532169282" departLane="free"/>
  <flow id="JF87767" begin="5300" fromJunction="J0" toJunction="J3" end="5360" vehsPerHour="389.690578810269" departLane="free"/>
  <flow id="JF87768" begin="5300" fromJunction="J0" toJunction="J4" end="5360" vehsPerHour="8.269964771746924" departLane="free"/>
  <flow id="JF87769" begin="5300" fromJunction="J0" toJunction="J6" end="5360" vehsPerHour="145.1601479901963" departLane="free"/>
  <flow id="JF87770" begin="5300" fromJunction="J3" toJunction="J0" end="5360" vehsPerHour="541.7875096336517" departLane="free"/>
  <flow id="JF87771" begin="5300" fromJunction="J3" toJunction="J4" end="5360" vehsPerHour="96.94741719878569" departLane="free"/>
  <flow id="JF87772" begin="5300" fromJunction="J3" toJunction="J5" end="5360" vehsPerHour="253.20404918220248" departLane="free"/>
  <flow id="JF87773" begin="5300" fromJunction="J3" toJunction="J6" end="5360" vehsPerHour="541.4750349272676" departLane="free"/>
  <flow id="JF87774" begin="5300" fromJunction="J3" toJunction="J7" end="5360" vehsPerHour="145.56991132794056" departLane="free"/>
  <flow id="JF87775" begin="5300" fromJunction="J4" toJunction="J6" end="5360" vehsPerHour="202.23488486779775" departLane="free"/>
  <flow id="JF87776" begin="5300" fromJunction="J4" toJunction="J7" end="5360" vehsPerHour="70.72813430000328" departLane="free"/>
  <flow id="JF87777" begin="5300" fromJunction="J5" toJunction="J0" end="5360" vehsPerHour="64.26256579794082" departLane="free"/>
  <flow id="JF87778" begin="5300" fromJunction="J5" toJunction="J3" end="5360" vehsPerHour="188.7264106592108" departLane="free"/>
  <flow id="JF87779" begin="5300" fromJunction="J5" toJunction="J4" end="5360" vehsPerHour="191.8757198252419" departLane="free"/>
  <flow id="JF87780" begin="5300" fromJunction="J5" toJunction="J6" end="5360" vehsPerHour="127.9905280070876" departLane="free"/>
  <flow id="JF87781" begin="5300" fromJunction="J5" toJunction="J7" end="5360" vehsPerHour="19.293124544786828" departLane="free"/>
  <flow id="JF87782" begin="5300" fromJunction="J6" toJunction="J0" end="5360" vehsPerHour="110.36573145563982" departLane="free"/>
  <flow id="JF87783" begin="5300" fromJunction="J6" toJunction="J4" end="5360" vehsPerHour="75.77411469444394" departLane="free"/>
  <flow id="JF87784" begin="5300" fromJunction="J6" toJunction="J5" end="5360" vehsPerHour="271.6148153016809" departLane="free"/>
  <flow id="JF87785" begin="5300" fromJunction="J6" toJunction="J7" end="5360" vehsPerHour="175.37538122199905" departLane="free"/>
  <flow id="JF87786" begin="5300" fromJunction="J7" toJunction="J3" end="5360" vehsPerHour="122.7005383367716" departLane="free"/>
  <flow id="JF87787" begin="5300" fromJunction="J7" toJunction="J4" end="5360" vehsPerHour="184.89267716737206" departLane="free"/>
  <flow id="JF87788" begin="5300" fromJunction="J7" toJunction="J5" end="5360" vehsPerHour="203.51289642534687" departLane="free"/>
  <flow id="JF87789" begin="5360" fromJunction="J0" toJunction="J3" end="5420" vehsPerHour="430.00593245858863" departLane="free"/>
  <flow id="JF87790" begin="5360" fromJunction="J0" toJunction="J4" end="5420" vehsPerHour="166.5596120935066" departLane="free"/>
  <flow id="JF87791" begin="5360" fromJunction="J0" toJunction="J6" end="5420" vehsPerHour="279.59414812358347" departLane="free"/>
  <flow id="JF87792" begin="5360" fromJunction="J3" toJunction="J0" end="5420" vehsPerHour="302.6586362181655" departLane="free"/>
  <flow id="JF87793" begin="5360" fromJunction="J3" toJunction="J4" end="5420" vehsPerHour="150.84332751551912" departLane="free"/>
  <flow id="JF87794" begin="5360" fromJunction="J3" toJunction="J5" end="5420" vehsPerHour="7.671706831948382" departLane="free"/>
  <flow id="JF87795" begin="5360" fromJunction="J3" toJunction="J6" end="5420" vehsPerHour="139.5917889173299" departLane="free"/>
  <flow id="JF87796" begin="5360" fromJunction="J3" toJunction="J7" end="5420" vehsPerHour="274.316267941871" departLane="free"/>
  <flow id="JF87797" begin="5360" fromJunction="J4" toJunction="J0" end="5420" vehsPerHour="251.3552093560386" departLane="free"/>
  <flow id="JF87798" begin="5360" fromJunction="J4" toJunction="J3" end="5420" vehsPerHour="186.08631843392493" departLane="free"/>
  <flow id="JF87799" begin="5360" fromJunction="J4" toJunction="J6" end="5420" vehsPerHour="219.21229725683915" departLane="free"/>
  <flow id="JF87800" begin="5360" fromJunction="J4" toJunction="J7" end="5420" vehsPerHour="105.71099162500656" departLane="free"/>
  <flow id="JF87801" begin="5360" fromJunction="J5" toJunction="J3" end="5420" vehsPerHour="198.50472424375147" departLane="free"/>
  <flow id="JF87802" begin="5360" fromJunction="J5" toJunction="J4" end="5420" vehsPerHour="75.22033677651254" departLane="free"/>
  <flow id="JF87803" begin="5360" fromJunction="J5" toJunction="J7" end="5420" vehsPerHour="145.75217311720323" departLane="free"/>
  <flow id="JF87804" begin="5360" fromJunction="J6" toJunction="J4" end="5420" vehsPerHour="17.25003952816564" departLane="free"/>
  <flow id="JF87805" begin="5360" fromJunction="J6" toJunction="J5" end="5420" vehsPerHour="111.54490135708846" departLane="free"/>
  <flow id="JF87806" begin="5360" fromJunction="J6" toJunction="J7" end="5420" vehsPerHour="227.1537281403022" departLane="free"/>
  <flow id="JF87807" begin="5360" fromJunction="J7" toJunction="J0" end="5420" vehsPerHour="22.675829834203928" departLane="free"/>
  <flow id="JF87808" begin="5360" fromJunction="J7" toJunction="J5" end="5420" vehsPerHour="126.70912514112513" departLane="free"/>
  <flow id="JF87809" begin="5420" fromJunction="J0" toJunction="J4" end="5480" vehsPerHour="435.15469710356416" departLane="free"/>
  <flow id="JF87810" begin="5420" fromJunction="J0" toJunction="J5" end="5480" vehsPerHour="267.20537854595966" departLane="free"/>
  <flow id="JF87811" begin="5420" fromJunction="J0" toJunction="J6" end="5480" vehsPerHour="148.96441397465063" departLane="free"/>
  <flow id="JF87812" begin="5420" fromJunction="J0" toJunction="J7" end="5480" vehsPerHour="24.646897239638847" departLane="free"/>
  <flow id="JF87813" begin="5420" fromJunction="J3" toJunction="J0" end="5480" vehsPerHour="388.79818084495037" departLane="free"/>
  <flow id="JF87814" begin="5420" fromJunction="J3" toJunction="J5" end="5480" vehsPerHour="168.68005335333717" departLane="free"/>
  <flow id="JF87815" begin="5420" fromJunction="J4" toJunction="J3" end="5480" vehsPerHour="115.60125620886244" departLane="free"/>
  <flow id="JF87816" begin="5420" fromJunction="J4" toJunction="J7" end="5480" vehsPerHour="54.251310371018356" departLane="free"/>
  <flow id="JF87817" begin="5420" fromJunction="J5" toJunction="J0" end="5480" vehsPerHour="233.12381524819617" departLane="free"/>
  <flow id="JF87818" begin="5420" fromJunction="J5" toJunction="J4" end="5480" vehsPerHour="151.07373430943622" departLane="free"/>
  <flow id="JF87819" begin="5420" fromJunction="J5" toJunction="J6" end="5480" vehsPerHour="150.4171635282896" departLane="free"/>
  <flow id="JF87820" begin="5420" fromJunction="J6" toJunction="J0" end="5480" vehsPerHour="132.77543728208968" departLane="free"/>
  <flow id="JF87821" begin="5420" fromJunction="J6" toJunction="J3" end="5480" vehsPerHour="237.0659395699166" departLane="free"/>
  <flow id="JF87822" begin="5420" fromJunction="J6" toJunction="J4" end="5480" vehsPerHour="269.587817995365" departLane="free"/>
  <flow id="JF87823" begin="5420" fromJunction="J6" toJunction="J5" end="5480" vehsPerHour="178.78728863048073" departLane="free"/>
  <flow id="JF87824" begin="5420" fromJunction="J7" toJunction="J3" end="5480" vehsPerHour="107.39401929610807" departLane="free"/>
  <flow id="JF87825" begin="5420" fromJunction="J7" toJunction="J4" end="5480" vehsPerHour="57.96523862135115" departLane="free"/>
  <flow id="JF87826" begin="5420" fromJunction="J7" toJunction="J5" end="5480" vehsPerHour="33.262635180900666" departLane="free"/>
  <flow id="JF87827" begin="5420" fromJunction="J7" toJunction="J6" end="5480" vehsPerHour="162.736396970366" departLane="free"/>
  <flow id="JF87828" begin="5480" fromJunction="J0" toJunction="J3" end="5540" vehsPerHour="467.2173415877238" departLane="free"/>
  <flow id="JF87829" begin="5480" fromJunction="J0" toJunction="J4" end="5540" vehsPerHour="224.51605998881277" departLane="free"/>
  <flow id="JF87830" begin="5480" fromJunction="J0" toJunction="J6" end="5540" vehsPerHour="360.6488166692864" departLane="free"/>
  <flow id="JF87831" begin="5480" fromJunction="J0" toJunction="J7" end="5540" vehsPerHour="441.6097146471581" departLane="free"/>
  <flow id="JF87832" begin="5480" fromJunction="J3" toJunction="J0" end="5540" vehsPerHour="318.3340833862235" departLane="free"/>
  <flow id="JF87833" begin="5480" fromJunction="J3" toJunction="J4" end="5540" vehsPerHour="157.362602970029" departLane="free"/>
  <flow id="JF87834" begin="5480" fromJunction="J3" toJunction="J5" end="5540" vehsPerHour="141.5568993528519" departLane="free"/>
  <flow id="JF87835" begin="5480" fromJunction="J3" toJunction="J7" end="5540" vehsPerHour="21.427840242459315" departLane="free"/>
  <flow id="JF87836" begin="5480" fromJunction="J4" toJunction="J0" end="5540" vehsPerHour="75.35394903530721" departLane="free"/>
  <flow id="JF87837" begin="5480" fromJunction="J4" toJunction="J5" end="5540" vehsPerHour="93.84576123383108" departLane="free"/>
  <flow id="JF87838" begin="5480" fromJunction="J4" toJunction="J6" end="5540" vehsPerHour="104.88022861134705" departLane="free"/>
  <flow id="JF87839" begin="5480" fromJunction="J4" toJunction="J7" end="5540" vehsPerHour="256.8922958369681" departLane="free"/>
  <flow id="JF87840" begin="5480" fromJunction="J5" toJunction="J0" end="5540" vehsPerHour="96.4533323623208" departLane="free"/>
  <flow id="JF87841" begin="5480" fromJunction="J5" toJunction="J4" end="5540" vehsPerHour="120.43111776565966" departLane="free"/>
  <flow id="JF87842" begin="5480" fromJunction="J5" toJunction="J6" end="5540" vehsPerHour="14.5279383511847" departLane="free"/>
  <flow id="JF87843" begin="5480" fromJunction="J5" toJunction="J7" end="5540" vehsPerHour="191.64628483303528" departLane="free"/>
  <flow id="JF87844" begin="5480" fromJunction="J6" toJunction="J0" end="5540" vehsPerHour="263.34132640797634" departLane="free"/>
  <flow id="JF87845" begin="5480" fromJunction="J6" toJunction="J3" end="5540" vehsPerHour="10.781015551478259" departLane="free"/>
  <flow id="JF87846" begin="5480" fromJunction="J6" toJunction="J4" end="5540" vehsPerHour="37.37736036142977" departLane="free"/>
  <flow id="JF87847" begin="5480" fromJunction="J6" toJunction="J5" end="5540" vehsPerHour="119.30051810727814" departLane="free"/>
  <flow id="JF87848" begin="5480" fromJunction="J6" toJunction="J7" end="5540" vehsPerHour="14.645961385338019" departLane="free"/>
  <flow id="JF87849" begin="5480" fromJunction="J7" toJunction="J0" end="5540" vehsPerHour="153.8993136226757" departLane="free"/>
  <flow id="JF87850" begin="5480" fromJunction="J7" toJunction="J3" end="5540" vehsPerHour="43.33637325840515" departLane="free"/>
  <flow id="JF87851" begin="5480" fromJunction="J7" toJunction="J5" end="5540" vehsPerHour="96.56392515475605" departLane="free"/>
  <flow id="JF87852" begin="5480" fromJunction="J7" toJunction="J6" end="5540" vehsPerHour="163.82342797538183" departLane="free"/>
  <flow id="JF87853" begin="5540" fromJunction="J0" toJunction="J5" end="5600" vehsPerHour="543.9409999220467" departLane="free"/>
  <flow id="JF87854" begin="5540" fromJunction="J0" toJunction="J6" end="5600" vehsPerHour="341.47850036330794" departLane="free"/>
  <flow id="JF87855" begin="5540" fromJunction="J0" toJunction="J7" end="5600" vehsPerHour="455.1206018286129" departLane="free"/>
  <flow id="JF87856" begin="5540" fromJunction="J3" toJunction="J0" end="5600" vehsPerHour="233.68213603129684" departLane="free"/>
  <flow id="JF87857" begin="5540" fromJunction="J3" toJunction="J4" end="5600" vehsPerHour="26.947176136304478" departLane="free"/>
  <flow id="JF87858" begin="5540" fromJunction="J3" toJunction="J5" end="5600" vehsPerHour="117.28206102515757" departLane="free"/>