<?xml version="1.0" encoding="UTF-8"?>
<routes xmlns:xsi="http://www.w3.org/2001/XMLSchema-instance" xsi:noNamespaceSchemaLocation="http://sumo.dlr.de/xsd/routes_file.xsd">
  <flow id="JF93940" begin="0" fromJunction="J0" toJunction="J3" end="5000" vehsPerHour="108.83607035746057" departLane="free"/>
  <flow id="JF93941" begin="0" fromJunction="J3" toJunction="J0" end="5000" vehsPerHour="122.70387424305319" departLane="free"/>
  <flow id="JF93942" begin="0" fromJunction="J0" toJunction="J5" end="5000" vehsPerHour="414.0920145450902" departLane="free"/>
  <flow id="JF93943" begin="0" fromJunction="J0" toJunction="J6" end="5000" vehsPerHour="108.44199458961533" departLane="free"/>
  <flow id="JF93944" begin="0" fromJunction="J0" toJunction="J4" end="5000" vehsPerHour="320.2831270295309" departLane="free"/>
  <flow id="JF93945" begin="0" fromJunction="J0" toJunction="J7" end="5000" vehsPerHour="112.03484946752843" departLane="free"/>
  <flow id="JF93946" begin="0" fromJunction="J3" toJunction="J5" end="5000" vehsPerHour="544.9438664134786" departLane="free"/>
  <flow id="JF93947" begin="0" fromJunction="J3" toJunction="J6" end="5000" vehsPerHour="315.1763194050274" departLane="free"/>
  <flow id="JF93948" begin="0" fromJunction="J3" toJunction="J4" end="5000" vehsPerHour="410.4251410270315" departLane="free"/>
  <flow id="JF93949" begin="0" fromJunction="J3" toJunction="J7" end="5000" vehsPerHour="327.22707738970274" departLane="free"/>
  <flow id="JF93950" begin="0" fromJunction="J5" toJunction="J6" end="5000" vehsPerHour="33.827649643588195" departLane="free"/>
  <flow id="JF93951" begin="0" fromJunction="J5" toJunction="J4" end="5000" vehsPerHour="38.888541108174785" departLane="free"/>
  <flow id="JF93952" begin="0" fromJunction="J5" toJunction="J7" end="5000" vehsPerHour="17.919712532504" departLane="free"/>
  <flow id="JF93953" begin="0" fromJunction="J6" toJunction="J5" end="5000" vehsPerHour="65.25341372321125" departLane="free"/>
  <flow id="JF93954" begin="0" fromJunction="J6" toJunction="J4" end="5000" vehsPerHour="15.288760285571824" departLane="free"/>
  <flow id="JF93955" begin="0" fromJunction="J6" toJunction="J7" end="5000" vehsPerHour="22.55116173670492" departLane="free"/>
  <flow id="JF93956" begin="0" fromJunction="J4" toJunction="J5" end="5000" vehsPerHour="9.781557990759675" departLane="free"/>
  <flow id="JF93957" begin="0" fromJunction="J4" toJunction="J6" end="5000" vehsPerHour="26.90337915672937" departLane="free"/>
  <flow id="JF93958" begin="0" fromJunction="J4" toJunction="J7" end="5000" vehsPerHour="13.419932782884036" departLane="free"/>
  <flow id="JF93959" begin="0" fromJunction="J7" toJunction="J5" end="5000" vehsPerHour="41.95033497194519" departLane="free"/>
  <flow id="JF93960" begin="0" fromJunction="J7" toJunction="J6" end="5000" vehsPerHour="1.0566293857526219" departLane="free"/>
  <flow id="JF93961" begin="0" fromJunction="J7" toJunction="J4" end="5000" vehsPerHour="31.70184238784575" departLane="free"/>
  <flow id="JF93962" begin="0" fromJunction="J5" toJunction="J0" end="5000" vehsPerHour="59.242874260303005" departLane="free"/>
  <flow id="JF93963" begin="0" fromJunction="J5" toJunction="J3" end="5000" vehsPerHour="181.39257825330205" departLane="free"/>
  <flow id="JF93964" begin="0" fromJunction="J6" toJunction="J0" end="5000" vehsPerHour="26.43404669467809" departLane="free"/>
  <flow id="JF93965" begin="0" fromJunction="J6" toJunction="J3" end="5000" vehsPerHour="179.9842490568506" departLane="free"/>
  <flow id="JF93966" begin="0" fromJunction="J4" toJunction="J0" end="5000" vehsPerHour="59.875840833786" departLane="free"/>
  <flow id="JF93967" begin="0" fromJunction="J4" toJunction="J3" end="5000" vehsPerHour="184.81136521084687" departLane="free"/>
  <flow id="JF93968" begin="0" fromJunction="J7" toJunction="J0" end="5000" vehsPerHour="91.4089758868078" departLane="free"/>
  <flow id="JF93969" begin="0" fromJunction="J7" toJunction="J3" end="5000" vehsPerHour="6.334557707059851" departLane="free"/>
  <flow id="JF93970" begin="5000" fromJunction="J0" toJunction="J3" end="5060" vehsPerHour="119.32008694383843" departLane="free"/>
  <flow id="JF93971" begin="5000" fromJunction="J3" toJunction="J0" end="5060" vehsPerHour="113.24268426618114" departLane="free"/>
  <flow id="JF93972" begin="5000" fromJunction="J0" toJunction="J5" end="5060" vehsPerHour="78.65198769921437" departLane="free"/>
  <flow id="JF93973" begin="5000" fromJunction="J0" toJunction="J6" end="5060" vehsPerHour="65.50818682740432" departLane="free"/>
  <flow id="JF93974" begin="5000" fromJunction="J0" toJunction="J4" end="5060" vehsPerHour="27.972058810960213" departLane="free"/>
  <flow id="JF93975" begin="5000" fromJunction="J0" toJunction="J7" end="5060" vehsPerHour="19.90710766446887" departLane="free"/>
  <flow id="JF93976" begin="5000" fromJunction="J3" toJunction="J5" end="5060" vehsPerHour="37.493556080302746" departLane="free"/>
  <flow id="JF93977" begin="5000" fromJunction="J3" toJunction="J6" end="5060" vehsPerHour="64.92763584327083" departLane="free"/>
  <flow id="JF93978" begin="5000" fromJunction="J3" toJunction="J4" end="5060" vehsPerHour="66.69390545463376" departLane="free"/>
  <flow id="JF93979" begin="5000" fromJunction="J3" toJunction="J7" end="5060" vehsPerHour="58.78840673918949" departLane="free"/>
  <flow id="JF93980" begin="5000" fromJunction="J5" toJunction="J6" end="5060" vehsPerHour="16.039509955680177" departLane="free"/>
  <flow id="JF93981" begin="5000" fromJunction="J5" toJunction="J4" end="5060" vehsPerHour="51.84264806396924" departLane="free"/>
  <flow id="JF93982" begin="5000" fromJunction="J5" toJunction="J7" end="5060" vehsPerHour="53.44200752690139" departLane="free"/>
  <flow id="JF93983" begin="5000" fromJunction="J6" toJunction="J5" end="5060" vehsPerHour="53.769107671525035" departLane="free"/>
  <flow id="JF93984" begin="5000" fromJunction="J6" toJunction="J4" end="5060" vehsPerHour="44.70048046884867" departLane="free"/>
  <flow id="JF93985" begin="5000" fromJunction="J6" toJunction="J7" end="5060" vehsPerHour="46.22002546652284" departLane="free"/>
  <flow id="JF93986" begin="5000" fromJunction="J4" toJunction="J5" end="5060" vehsPerHour="6.103737369234858" departLane="free"/>
  <flow id="JF93987" begin="5000" fromJunction="J4" toJunction="J6" end="5060" vehsPerHour="67.78860333258265" departLane="free"/>
  <flow id="JF93988" begin="5000" fromJunction="J4" toJunction="J7" end="5060" vehsPerHour="14.654376863881023" departLane="free"/>
  <flow id="JF93989" begin="5000" fromJunction="J7" toJunction="J5" end="5060" vehsPerHour="62.03780967057402" departLane="free"/>
  <flow id="JF93990" begin="5000" fromJunction="J7" toJunction="J6" end="5060" vehsPerHour="29.16480020847924" departLane="free"/>
  <flow id="JF93991" begin="5000" fromJunction="J7" toJunction="J4" end="5060" vehsPerHour="67.48178687979365" departLane="free"/>
  <flow id="JF93992" begin="5000" fromJunction="J5" toJunction="J0" end="5060" vehsPerHour="15.614847571048555" departLane="free"/>
  <flow id="JF93993" begin="5000" fromJunction="J5" toJunction="J3" end="5060" vehsPerHour="38.14125330887088" departLane="free"/>
  <flow id="JF93994" begin="5000" fromJunction="J6" toJunction="J0" end="5060" vehsPerHour="60.49608552259242" departLane="free"/>
  <flow id="JF93995" begin="5000" fromJunction="J6" toJunction="J3" end="5060" vehsPerHour="12.739100738942957" departLane="free"/>
  <flow id="JF93996" begin="5000" fromJunction="J4" toJunction="J0" end="5060" vehsPerHour="44.07389917558844" departLane="free"/>
  <flow id="JF93997" begin="5000" fromJunction="J4" toJunction="J3" end="5060" vehsPerHour="57.71186342907766" departLane="free"/>
  <flow id="JF93998" begin="5000" fromJunction="J7" toJunction="J0" end="5060" vehsPerHour="59.077047806535695" departLane="free"/>
  <flow id="JF93999" begin="5000" fromJunction="J7" toJunction="J3" end="5060" vehsPerHour="22.45092515811853" departLane="free"/>
  <flow id="JF94000" begin="5060" fromJunction="J0" toJunction="J3" end="5120" vehsPerHour="83.34442005126333" departLane="free"/>
  <flow id="JF94001" begin="5060" fromJunction="J3" toJunction="J0" end="5120" vehsPerHour="104.8079892278942" departLane="free"/>
  <flow id="JF94002" begin="5060" fromJunction="J0" toJunction="J5" end="5120" vehsPerHour="49.483633650221265" departLane="free"/>
  <flow id="JF94003" begin="5060" fromJunction="J0" toJunction="J6" end="5120" vehsPerHour="88.69237842935122" departLane="free"/>
  <flow id="JF94004" begin="5060" fromJunction="J0" toJunction="J4" end="5120" vehsPerHour="107.08932728959824" departLane="free"/>
  <flow id="JF94005" begin="5060" fromJunction="J0" toJunction="J7" end="5120" vehsPerHour="56.260376129564904" departLane="free"/>
  <flow id="JF94006" begin="5060" fromJunction="J3" toJunction="J5" end="5120" vehsPerHour="89.84301386130358" departLane="free"/>
  <flow id="JF94007" begin="5060" fromJunction="J3" toJunction="J6" end="5120" vehsPerHour="123.76498656673604" departLane="free"/>
  <flow id="JF94008" begin="5060" fromJunction="J3" toJunction="J4" end="5120" vehsPerHour="11.508341399215492" departLane="free"/>
  <flow id="JF94009" begin="5060" fromJunction="J3" toJunction="J7" end="5120" vehsPerHour="77.05350330891767" departLane="free"/>
  <flow id="JF94010" begin="5120" fromJunction="J0" toJunction="J3" end="5180" vehsPerHour="16.386540461118553" departLane="free"/>
  <flow id="JF94011" begin="5120" fromJunction="J3" toJunction="J0" end="5180" vehsPerHour="99.32111294604533" departLane="free"/>
  <flow id="JF94012" begin="5120" fromJunction="J0" toJunction="J5" end="5180" vehsPerHour="19.541944075000778" departLane="free"/>
  <flow id="JF94013" begin="5120" fromJunction="J0" toJunction="J6" end="5180" vehsPerHour="91.54601581731816" departLane="free"/>
  <flow id="JF94014" begin="5120" fromJunction="J0" toJunction="J4" end="5180" vehsPerHour="74.2651937759993" departLane="free"/>
  <flow id="JF94015" begin="5120" fromJunction="J0" toJunction="J7" end="5180" vehsPerHour="104.83617104609365" departLane="free"/>
  <flow id="JF94016" begin="5120" fromJunction="J3" toJunction="J5" end="5180" vehsPerHour="106.43374040520608" departLane="free"/>
  <flow id="JF94017" begin="5120" fromJunction="J3" toJunction="J6" end="5180" vehsPerHour="1.579558259878466" departLane="free"/>
  <flow id="JF94018" begin="5120" fromJunction="J3" toJunction="J4" end="5180" vehsPerHour="42.50797625921814" departLane="free"/>
  <flow id="JF94019" begin="5120" fromJunction="J3" toJunction="J7" end="5180" vehsPerHour="67.17056902465538" departLane="free"/>
  <flow id="JF94020" begin="5180" fromJunction="J0" toJunction="J3" end="5240" vehsPerHour="42.982290416709894" departLane="free"/>
  <flow id="JF94021" begin="5180" fromJunction="J3" toJunction="J0" end="5240" vehsPerHour="7.984687996433634" departLane="free"/>
  <flow id="JF94022" begin="5180" fromJunction="J0" toJunction="J5" end="5240" vehsPerHour="104.02069270919068" departLane="free"/>
  <flow id="JF94023" begin="5180" fromJunction="J0" toJunction="J6" end="5240" vehsPerHour="16.47159929461941" departLane="free"/>
  <flow id="JF94024" begin="5180" fromJunction="J0" toJunction="J4" end="5240" vehsPerHour="132.72019218489052" departLane="free"/>
  <flow id="JF94025" begin="5180" fromJunction="J0" toJunction="J7" end="5240" vehsPerHour="6.854740051295323" departLane="free"/>
  <flow id="JF94026" begin="5180" fromJunction="J3" toJunction="J5" end="5240" vehsPerHour="77.6656624609774" departLane="free"/>
  <flow id="JF94027" begin="5180" fromJunction="J3" toJunction="J6" end="5240" vehsPerHour="69.22947507930941" departLane="free"/>
  <flow id="JF94028" begin="5180" fromJunction="J3" toJunction="J4" end="5240" vehsPerHour="123.98233329319125" departLane="free"/>
  <flow id="JF94029" begin="5180" fromJunction="J3" toJunction="J7" end="5240" vehsPerHour="96.43340224217481" departLane="free"/>
  <flow id="JF94030" begin="5180" fromJunction="J5" toJunction="J6" end="5240" vehsPerHour="15.494971907090981" departLane="free"/>
  <flow id="JF94031" begin="5180" fromJunction="J5" toJunction="J4" end="5240" vehsPerHour="47.827671039809864" departLane="free"/>
  <flow id="JF94032" begin="5180" fromJunction="J5" toJunction="J7" end="5240" vehsPerHour="46.83225718933207" departLane="free"/>
  <flow id="JF94033" begin="5180" fromJunction="J6" toJunction="J5" end="5240" vehsPerHour="63.22704678516146" departLane="free"/>
  <flow id="JF94034" begin="5180" fromJunction="J6" toJunction="J4" end="5240" vehsPerHour="28.452502273268898" departLane="free"/>
  <flow id="JF94035" begin="5180" fromJunction="J6" toJunction="J7" end="5240" vehsPerHour="30.160659401081624" departLane="free"/>
  <flow id="JF94036" begin="5180" fromJunction="J4" toJunction="J5" end="5240" vehsPerHour="60.92109329885769" departLane="free"/>
  <flow id="JF94037" begin="5180" fromJunction="J4" toJunction="J6" end="5240" vehsPerHour="68.2751127578238" departLane="free"/>
  <flow id="JF94038" begin="5180" fromJunction="J4" toJunction="J7" end="5240" vehsPerHour="22.93907521633721" departLane="free"/>
  <flow id="JF94039" begin="5180" fromJunction="J7" toJunction="J5" end="5240" vehsPerHour="11.473663512211234" departLane="free"/>
  <flow id="JF94040" begin="5180" fromJunction="J7" toJunction="J6" end="5240" vehsPerHour="62.031656870961335" departLane="free"/>
  <flow id="JF94041" begin="5180" fromJunction="J7" toJunction="J4" end="5240" vehsPerHour="46.93971424406946" departLane="free"/>
  <flow id="JF94042" begin="5180" fromJunction="J5" toJunction="J0" end="5240" vehsPerHour="16.20752074446734" departLane="free"/>
  <flow id="JF94043" begin="5180" fromJunction="J5" toJunction="J3" end="5240" vehsPerHour="23.57150287941905" departLane="free"/>
  <flow id="JF94044" begin="5180" fromJunction="J6" toJunction="J0" end="5240" vehsPerHour="8.784090875025916" departLane="free"/>
  <flow id="JF94045" begin="5180" fromJunction="J6" toJunction="J3" end="5240" vehsPerHour="36.28360801545181" departLane="free"/>
  <flow id="JF94046" begin="5180" fromJunction="J4" toJunction="J0" end="5240" vehsPerHour="66.10068031459843" departLane="free"/>
  <flow id="JF94047" begin="5180" fromJunction="J4" toJunction="J3" end="5240" vehsPerHour="55.08355989954116" departLane="free"/>
  <flow id="JF94048" begin="5180" fromJunction="J7" toJunction="J0" end="5240" vehsPerHour="54.32147538195606" departLane="free"/>
  <flow id="JF94049" begin="5180" fromJunction="J7" toJunction="J3" end="5240" vehsPerHour="65.1131656730318" departLane="free"/>
  <flow id="JF94050" begin="5240" fromJunction="J0" toJunction="J3" end="5300" vehsPerHour="54.56788989888672" departLane="free"/>
  <flow id="JF94051" begin="5240" fromJunction="J3" toJunction="J0" end="5300" vehsPerHour="57.13032920024922" departLane="free"/>
  <flow id="JF94052" begin="5240" fromJunction="J0" toJunction="J5" end="5300" vehsPerHour="37.36881869145475" departLane="free"/>
  <flow id="JF94053" begin="5240" fromJunction="J0" toJunction="J6" end="5300" vehsPerHour="2.356003103392374" departLane="free"/>
  <flow id="JF94054" begin="5240" fromJunction="J0" toJunction="J4" end="5300" vehsPerHour="40.59607328821245" departLane="free"/>
  <flow id="JF94055" begin="5240" fromJunction="J0" toJunction="J7" end="5300" vehsPerHour="13.77202854756699" departLane="free"/>
  <flow id="JF94056" begin="5240" fromJunction="J3" toJunction="J5" end="5300" vehsPerHour="99.21528018533913" departLane="free"/>
  <flow id="JF94057" begin="5240" fromJunction="J3" toJunction="J6" end="5300" vehsPerHour="94.57028787504377" departLane="free"/>
  <flow id="JF94058" begin="5240" fromJunction="J3" toJunction="J4" end="5300" vehsPerHour="105.1246261512796" departLane="free"/>
  <flow id="JF94059" begin="5240" fromJunction="J3" toJunction="J7" end="5300" vehsPerHour="12.561964189467002" departLane="free"/>
  <flow id="JF94060" begin="5300" fromJunction="J0" toJunction="J3" end="5360" vehsPerHour="86.73341435267812" departLane="free"/>
  <flow id="JF94061" begin="5300" fromJunction="J3" toJunction="J0" end="5360" vehsPerHour="77.13920379378537" departLane="free"/>
  <flow id="JF94062" begin="5300" fromJunction="J0" toJunction="J5" end="5360" vehsPerHour="48.99549491673524" departLane="free"/>
  <flow id="JF94063" begin="5300" fromJunction="J0" toJunction="J6" end="5360" vehsPerHour="81.11163286671885" departLane="free"/>
  <flow id="JF94064" begin="5300" fromJunction="J0" toJunction="J4" end="5360" vehsPerHour="16.054275979949185" departLane="free"/>
  <flow id="JF94065" begin="5300" fromJunction="J0" toJunction="J7" end="5360" vehsPerHour="52.38300870917658" departLane="free"/>
  <flow id="JF94066" begin="5300" fromJunction="J3" toJunction="J5" end="5360" vehsPerHour="2.7990573432631782" departLane="free"/>
  <flow id="JF94067" begin="5300" fromJunction="J3" toJunction="J6" end="5360" vehsPerHour="9.443296660350672" departLane="free"/>
  <flow id="JF94068" begin="5300" fromJunction="J3" toJunction="J4" end="5360" vehsPerHour="22.419273045332318" departLane="free"/>
  <flow id="JF94069" begin="5300" fromJunction="J3" toJunction="J7" end="5360" vehsPerHour="4.414245831329651" departLane="free"/>
  <flow id="JF94070" begin="5300" fromJunction="J5" toJunction="J6" end="5360" vehsPerHour="40.98571370635796" departLane="free"/>
  <flow id="JF94071" begin="5300" fromJunction="J5" toJunction="J4" end="5360" vehsPerHour="18.84336968464808" departLane="free"/>
  <flow id="JF94072" begin="5300" fromJunction="J5" toJunction="J7" end="5360" vehsPerHour="65.33023808391304" departLane="free"/>
  <flow id="JF94073" begin="5300" fromJunction="J6" toJunction="J5" end="5360" vehsPerHour="12.158669287534234" departLane="free"/>
  <flow id="JF94074" begin="5300" fromJunction="J6" toJunction="J4" end="5360" vehsPerHour="50.30613090253522" departLane="free"/>
  <flow id="JF94075" begin="5300" fromJunction="J6" toJunction="J7" end="5360" vehsPerHour="27.169515192145955" departLane="free"/>
  <flow id="JF94076" begin="5300" fromJunction="J4" toJunction="J5" end="5360" vehsPerHour="38.77367901762201" departLane="free"/>
  <flow id="JF94077" begin="5300" fromJunction="J4" toJunction="J6" end="5360" vehsPerHour="67.60386818005273" departLane="free"/>
  <flow id="JF94078" begin="5300" fromJunction="J4" toJunction="J7" end="5360" vehsPerHour="52.51416522167607" departLane="free"/>
  <flow id="JF94079" begin="5300" fromJunction="J7" toJunction="J5" end="5360" vehsPerHour="65.67110110362852" departLane="free"/>
  <flow id="JF94080" begin="5300" fromJunction="J7" toJunction="J6" end="5360" vehsPerHour="13.50707006810372" departLane="free"/>
  <flow id="JF94081" begin="5300" fromJunction="J7" toJunction="J4" end="5360" vehsPerHour="11.552421199180234" departLane="free"/>
  <flow id="JF94082" begin="5300" fromJunction="J5" toJunction="J0" end="5360" vehsPerHour="36.625793631166225" departLane="free"/>
  <flow id="JF94083" begin="5300" fromJunction="J5" toJunction="J3" end="5360" vehsPerHour="57.200626285277735" departLane="free"/>
  <flow id="JF94084" begin="5300" fromJunction="J6" toJunction="J0" end="5360" vehsPerHour="38.76217081500827" departLane="free"/>
  <flow id="JF94085" begin="5300" fromJunction="J6" toJunction="J3" end="5360" vehsPerHour="66.94493078579525" departLane="free"/>
  <flow id="JF94086" begin="5300" fromJunction="J4" toJunction="J0" end="5360" vehsPerHour="52.86286977883829" departLane="free"/>
  <flow id="JF94087" begin="5300" fromJunction="J4" toJunction="J3" end="5360" vehsPerHour="20.35487565146885" departLane="free"/>
  <flow id="JF94088" begin="5300" fromJunction="J7" toJunction="J0" end="5360" vehsPerHour="62.6384568918644" departLane="free"/>
  <flow id="JF94089" begin="5300" fromJunction="J7" toJunction="J3" end="5360" vehsPerHour="60.24678231077551" departLane="free"/>
  <flow id="JF94090" begin="5360" fromJunction="J0" toJunction="J3" end="5420" vehsPerHour="117.86653024350372" departLane="free"/>
  <flow id="JF94091" begin="5360" fromJunction="J3" toJunction="J0" end="5420" vehsPerHour="77.4413169032926" departLane="free"/>
  <flow id="JF94092" begin="5360" fromJunction="J0" toJunction="J5" end="5420" vehsPerHour="24.183726092885212" departLane="free"/>
  <flow id="JF94093" begin="5360" fromJunction="J0" toJunction="J6" end="5420" vehsPerHour="108.44278759470266" departLane="free"/>
  <flow id="JF94094" begin="5360" fromJunction="J0" toJunction="J4" end="5420" vehsPerHour="121.77495329425109" departLane="free"/>
  <flow id="JF94095" begin="5360" fromJunction="J0" toJunction="J7" end="5420" vehsPerHour="113.5445447971342" departLane="free"/>
  <flow id="JF94096" begin="5360" fromJunction="J3" toJunction="J5" end="5420" vehsPerHour="11.181132320442005" departLane="free"/>
  <flow id="JF94097" begin="5360" fromJunction="J3" toJunction="J6" end="5420" vehsPerHour="133.92723294456417" departLane="free"/>
  <flow id="JF94098" begin="5360" fromJunction="J3" toJunction="J4" end="5420" vehsPerHour="6.008700130487621" departLane="free"/>
  <flow id="JF94099" begin="5360" fromJunction="J3" toJunction="J7" end="5420" vehsPerHour="55.94157604818774" departLane="free"/>
  <flow id="JF94100" begin="5360" fromJunction="J5" toJunction="J6" end="5420" vehsPerHour="45.15522144555481" departLane="free"/>
  <flow id="JF94101" begin="5360" fromJunction="J5" toJunction="J4" end="5420" vehsPerHour="55.47541471200993" departLane="free"/>
  <flow id="JF94102" begin="5360" fromJunction="J5" toJunction="J7" end="5420" vehsPerHour="7.8043052291776585" departLane="free"/>
  <flow id="JF94103" begin="5360" fromJunction="J6" toJunction="J5" end="5420" vehsPerHour="67.15990347360905" departLane="free"/>
  <flow id="JF94104" begin="5360" fromJunction="J6" toJunction="J4" end="5420" vehsPerHour="17.06447500778715" departLane="free"/>
  <flow id="JF94105" begin="5360" fromJunction="J6" toJunction="J7" end="5420" vehsPerHour="60.50072926902232" departLane="free"/>
  <flow id="JF94106" begin="5360" fromJunction="J4" toJunction="J5" end="5420" vehsPerHour="49.29881570832733" departLane="free"/>
  <flow id="JF94107" begin="5360" fromJunction="J4" toJunction="J6" end="5420" vehsPerHour="56.36540605558872" departLane="free"/>
  <flow id="JF94108" begin="5360" fromJunction="J4" toJunction="J7" end="5420" vehsPerHour="38.164199981498676" departLane="free"/>
  <flow id="JF94109" begin="5360" fromJunction="J7" toJunction="J5" end="5420" vehsPerHour="59.8467772319437" departLane="free"/>
  <flow id="JF94110" begin="5360" fromJunction="J7" toJunction="J6" end="5420" vehsPerHour="15.427823599967082" departLane="free"/>
  <flow id="JF94111" begin="5360" fromJunction="J7" toJunction="J4" end="5420" vehsPerHour="11.941644371168291" departLane="free"/>
  <flow id="JF94112" begin="5360" fromJunction="J5" toJunction="J0" end="5420" vehsPerHour="22.89460178897836" departLane="free"/>
  <flow id="JF94113" begin="5360" fromJunction="J5" toJunction="J3" end="5420" vehsPerHour="49.469860339153726" departLane="free"/>
  <flow id="JF94114" begin="5360" fromJunction="J6" toJunction="J0" end="5420" vehsPerHour="57.62610022009594" departLane="free"/>
  <flow id="JF94115" begin="5360" fromJunction="J6" toJunction="J3" end="5420" vehsPerHour="11.664874070315157" departLane="free"/>
  <flow id="JF94116" begin="5360" fromJunction="J4" toJunction="J0" end="5420" vehsPerHour="36.16033412016658" departLane="free"/>
  <flow id="JF94117" begin="5360" fromJunction="J4" toJunction="J3" end="5420" vehsPerHour="25.45036833874109" departLane="free"/>
  <flow id="JF94118" begin="5360" fromJunction="J7" toJunction="J0" end="5420" vehsPerHour="49.34536567399918" departLane="free"/>
  <flow id="JF94119" begin="5360" fromJunction="J7" toJunction="J3" end="5420" vehsPerHour="34.72737327922721" departLane="free"/>
  <flow id="JF94120" begin="5420" fromJunction="J0" toJunction="J3" end="5480" vehsPerHour="78.66654545945748" departLane="free"/>
  <flow id="JF94121" begin="5420" fromJunction="J3" toJunction="J0" end="5480" vehsPerHour="132.5337460154407" departLane="free"/>
  <flow id="JF94122" begin="5420" fromJunction="J0" toJunction="J5" end="5480" vehsPerHour="8.07789468726831" departLane="free"/>
  <flow id="JF94123" begin="5420" fromJunction="J0" toJunction="J6" end="5480" vehsPerHour="10.055749578091675" departLane="free"/>
  <flow id="JF94124" begin="5420" fromJunction="J0" toJunction="J4" end="5480" vehsPerHour="62.932645165121095" departLane="free"/>
  <flow id="JF94125" begin="5420" fromJunction="J0" toJunction="J7" end="5480" vehsPerHour="122.23354833370294" departLane="free"/>
  <flow id="JF94126" begin="5420" fromJunction="J3" toJunction="J5" end="5480" vehsPerHour="49.622939754342994" departLane="free"/>
  <flow id="JF94127" begin="5420" fromJunction="J3" toJunction="J6" end="5480" vehsPerHour="14.472777372895996" departLane="free"/>
  <flow id="JF94128" begin="5420" fromJunction="J3" toJunction="J4" end="5480" vehsPerHour="25.025217013567133" departLane="free"/>
  <flow id="JF94129" begin="5420" fromJunction="J3" toJunction="J7" end="5480" vehsPerHour="104.06821412955709" departLane="free"/>
  <flow id="JF94130" begin="5420" fromJunction="J5" toJunction="J6" end="5480" vehsPerHour="11.099651785259578" departLane="free"/>
  <flow id="JF94131" begin="5420" fromJunction="J5" toJunction="J4" end="5480" vehsPerHour="63.18881132372549" departLane="free"/>
  <flow id="JF94132" begin="5420" fromJunction="J5" toJunction="J7" end="5480" vehsPerHour="52.74130805749575" departLane="free"/>
  <flow id="JF94133" begin="5420" fromJunction="J6" toJunction="J5" end="5480" vehsPerHour="7.995995284286744" departLane="free"/>
  <flow id="JF94134" begin="5420" fromJunction="J6" toJunction="J4" end="5480" vehsPerHour="51.520623673613315" departLane="free"/>
  <flow id="JF94135" begin="5420" fromJunction="J6" toJunction="J7" end="5480" vehsPerHour="51.167889332174376" departLane="free"/>
  <flow id="JF94136" begin="5420" fromJunction="J4" toJunction="J5" end="5480" vehsPerHour="4.927791797699609" departLane="free"/>
  <flow id="JF94137" begin="5420" fromJunction="J4" toJunction="J6" end="5480" vehsPerHour="6.085036022624488" departLane="free"/>
  <flow id="JF94138" begin="5420" fromJunction="J4" toJunction="J7" end="5480" vehsPerHour="29.24560973509994" departLane="free"/>
  <flow id="JF94139" begin="5420" fromJunction="J7" toJunction="J5" end="5480" vehsPerHour="62.07124328093017" departLane="free"/>
  <flow id="JF94140" begin="5420" fromJunction="J7" toJunction="J6" end="5480" vehsPerHour="43.855529401679554" departLane="free"/>
  <flow id="JF94141" begin="5420" fromJunction="J7" toJunction="J4" end="5480" vehsPerHour="60.55590419845071" departLane="free"/>
  <flow id="JF94142" begin="5420" fromJunction="J5" toJunction="J0" end="5480" vehsPerHour="10.199333992228155" departLane="free"/>
  <flow id="JF94143" begin="5420" fromJunction="J5" toJunction="J3" end="5480" vehsPerHour="4.448061033336554" departLane="free"/>
  <flow id="JF94144" begin="5420" fromJunction="J6" toJunction="J0" end="5480" vehsPerHour="5.655349557285737" departLane="free"/>
  <flow id="JF94145" begin="5420" fromJunction="J6" toJunction="J3" end="5480" vehsPerHour="34.031803370602766" departLane="free"/>
  <flow id="JF94146" begin="5420" fromJunction="J4" toJunction="J0" end="5480" vehsPerHour="23.547855569183966" departLane="free"/>
  <flow id="JF94147" begin="5420" fromJunction="J4" toJunction="J3" end="5480" vehsPerHour="53.12427556244959" departLane="free"/>
  <flow id="JF94148" begin="5420" fromJunction="J7" toJunction="J0" end="5480" vehsPerHour="67.45540223680166" departLane="free"/>
  <flow id="JF94149" begin="5420" fromJunction="J7" toJunction="J3" end="5480" vehsPerHour="45.86346690462825" departLane="free"/>
  <flow id="JF94150" begin="5480" fromJunction="J0" toJunction="J3" end="5540" vehsPerHour="1.1510780466766766" departLane="free"/>
  <flow id="JF94151" begin="5480" fromJunction="J3" toJunction="J0" end="5540" vehsPerHour="129.28122026233237" departLane="free"/>
  <flow id="JF94152" begin="5480" fromJunction="J0" toJunction="J5" end="5540" vehsPerHour="25.653504224203566" departLane="free"/>
  <flow id="JF94153" begin="5480" fromJunction="J0" toJunction="J6" end="5540" vehsPerHour="39.89779970610026" departLane="free"/>
  <flow id="JF94154" begin="5480" fromJunction="J0" toJunction="J4" end="5540" vehsPerHour="101.05392856730185" departLane="free"/>
  <flow id="JF94155" begin="5480" fromJunction="J0" toJunction="J7" end="5540" vehsPerHour="42.03366025052607" departLane="free"/>
  <flow id="JF94156" begin="5480" fromJunction="J3" toJunction="J5" end="5540" vehsPerHour="120.11329909097168" departLane="free"/>
  <flow id="JF94157" begin="5480" fromJunction="J3" toJunction="J6" end="5540" vehsPerHour="127.35145398100663" departLane="free"/>
  <flow id="JF94158" begin="5480" fromJunction="J3" toJunction="J4" end="5540" vehsPerHour="19.30824709874728" departLane="free"/>
  <flow id="JF94159" begin="5480" fromJunction="J3" toJunction="J7" end="5540" vehsPerHour="96.34580651744145" departLane="free"/>
  <flow id="JF94160" begin="5540" fromJunction="J0" toJunction="J3" end="5600" vehsPerHour="118.65528137743193" departLane="free"/>
  <flow id="JF94161" begin="5540" fromJunction="J3" toJunction="J0" end="5600" vehsPerHour="1.0286410433251723" departLane="free"/>
  <flow id="JF94162" begin="5540" fromJunction="J0" toJunction="J5" end="5600" vehsPerHour="65.18876709209117" departLane="free"/>
  <flow id="JF94163" begin="5540" fromJunction="J0" toJunction="J6" end="5600" vehsPerHour="110.02589976872179" departLane="free"/>
  <flow id="JF94164" begin="5540" fromJunction="J0" toJunction="J4" end="5600" vehsPerHour="6.692970524088111" departLane="free"/>
  <flow id="JF94165" begin="5540" fromJunction="J0" toJunction="J7" end="5600" vehsPerHour="40.47734694403979" departLane="free"/>
  <flow id="JF94166" begin="5540" fromJunction="J3" toJunction="J5" end="5600" vehsPerHour="96.59082674991205" departLane="free"/>