<?xml version="1.0" encoding="UTF-8"?>
<routes xmlns:xsi="http://www.w3.org/2001/XMLSchema-instance" xsi:noNamespaceSchemaLocation="http://sumo.dlr.de/xsd/routes_file.xsd">
  <flow id="JF91940" begin="0" fromJunction="J0" toJunction="J3" end="5000" vehsPerHour="29.03781694400382" departLane="free"/>
  <flow id="JF91941" begin="0" fromJunction="J3" toJunction="J0" end="5000" vehsPerHour="93.26263030130681" departLane="free"/>
  <flow id="JF91942" begin="0" fromJunction="J0" toJunction="J5" end="5000" vehsPerHour="215.41213950413623" departLane="free"/>
  <flow id="JF91943" begin="0" fromJunction="J0" toJunction="J6" end="5000" vehsPerHour="311.8414223412011" departLane="free"/>
  <flow id="JF91944" begin="0" fromJunction="J0" toJunction="J4" end="5000" vehsPerHour="142.15306126779987" departLane="free"/>
  <flow id="JF91945" begin="0" fromJunction="J0" toJunction="J7" end="5000" vehsPerHour="236.33653452397402" departLane="free"/>
  <flow id="JF91946" begin="0" fromJunction="J3" toJunction="J5" end="5000" vehsPerHour="64.29121059394276" departLane="free"/>
  <flow id="JF91947" begin="0" fromJunction="J3" toJunction="J6" end="5000" vehsPerHour="452.4088961102851" departLane="free"/>
  <flow id="JF91948" begin="0" fromJunction="J3" toJunction="J4" end="5000" vehsPerHour="215.36722821538814" departLane="free"/>
  <flow id="JF91949" begin="0" fromJunction="J3" toJunction="J7" end="5000" vehsPerHour="118.72858385148483" departLane="free"/>
  <flow id="JF91950" begin="0" fromJunction="J5" toJunction="J6" end="5000" vehsPerHour="13.167296658027926" departLane="free"/>
  <flow id="JF91951" begin="0" fromJunction="J5" toJunction="J4" end="5000" vehsPerHour="17.135652219622063" departLane="free"/>
  <flow id="JF91952" begin="0" fromJunction="J5" toJunction="J7" end="5000" vehsPerHour="50.825130856359685" departLane="free"/>
  <flow id="JF91953" begin="0" fromJunction="J6" toJunction="J5" end="5000" vehsPerHour="24.653702357961357" departLane="free"/>
  <flow id="JF91954" begin="0" fromJunction="J6" toJunction="J4" end="5000" vehsPerHour="10.143660851305523" departLane="free"/>
  <flow id="JF91955" begin="0" fromJunction="J6" toJunction="J7" end="5000" vehsPerHour="5.214537772897366" departLane="free"/>
  <flow id="JF91956" begin="0" fromJunction="J4" toJunction="J5" end="5000" vehsPerHour="17.439712907410346" departLane="free"/>
  <flow id="JF91957" begin="0" fromJunction="J4" toJunction="J6" end="5000" vehsPerHour="51.281001688506834" departLane="free"/>
  <flow id="JF91958" begin="0" fromJunction="J4" toJunction="J7" end="5000" vehsPerHour="10.726099333906843" departLane="free"/>
  <flow id="JF91959" begin="0" fromJunction="J7" toJunction="J5" end="5000" vehsPerHour="60.449907106008396" departLane="free"/>
  <flow id="JF91960" begin="0" fromJunction="J7" toJunction="J6" end="5000" vehsPerHour="40.90041020204071" departLane="free"/>
  <flow id="JF91961" begin="0" fromJunction="J7" toJunction="J4" end="5000" vehsPerHour="38.286141453759626" departLane="free"/>
  <flow id="JF91962" begin="0" fromJunction="J5" toJunction="J0" end="5000" vehsPerHour="262.38933939445286" departLane="free"/>
  <flow id="JF91963" begin="0" fromJunction="J5" toJunction="J3" end="5000" vehsPerHour="51.09905502373643" departLane="free"/>
  <flow id="JF91964" begin="0" fromJunction="J6" toJunction="J0" end="5000" vehsPerHour="21.638822777284805" departLane="free"/>
  <flow id="JF91965" begin="0" fromJunction="J6" toJunction="J3" end="5000" vehsPerHour="18.9008519124878" departLane="free"/>
  <flow id="JF91966" begin="0" fromJunction="J4" toJunction="J0" end="5000" vehsPerHour="42.197072688702896" departLane="free"/>
  <flow id="JF91967" begin="0" fromJunction="J4" toJunction="J3" end="5000" vehsPerHour="227.1991475087495" departLane="free"/>
  <flow id="JF91968" begin="0" fromJunction="J7" toJunction="J0" end="5000" vehsPerHour="49.883744624805374" departLane="free"/>
  <flow id="JF91969" begin="0" fromJunction="J7" toJunction="J3" end="5000" vehsPerHour="114.57886605211715" departLane="free"/>
  <flow id="JF91970" begin="5000" fromJunction="J0" toJunction="J3" end="5060" vehsPerHour="37.237480761247824" departLane="free"/>
  <flow id="JF91971" begin="5000" fromJunction="J3" toJunction="J0" end="5060" vehsPerHour="101.58247262310302" departLane="free"/>
  <flow id="JF91972" begin="5000" fromJunction="J0" toJunction="J5" end="5060" vehsPerHour="65.23836287370875" departLane="free"/>
  <flow id="JF91973" begin="5000" fromJunction="J0" toJunction="J6" end="5060" vehsPerHour="62.52183261806036" departLane="free"/>
  <flow id="JF91974" begin="5000" fromJunction="J0" toJunction="J4" end="5060" vehsPerHour="98.72305435132955" departLane="free"/>
  <flow id="JF91975" begin="5000" fromJunction="J0" toJunction="J7" end="5060" vehsPerHour="130.36151667971367" departLane="free"/>
  <flow id="JF91976" begin="5000" fromJunction="J3" toJunction="J5" end="5060" vehsPerHour="100.89836512007031" departLane="free"/>
  <flow id="JF91977" begin="5000" fromJunction="J3" toJunction="J6" end="5060" vehsPerHour="96.05640145801279" departLane="free"/>
  <flow id="JF91978" begin="5000" fromJunction="J3" toJunction="J4" end="5060" vehsPerHour="50.46586626113335" departLane="free"/>
  <flow id="JF91979" begin="5000" fromJunction="J3" toJunction="J7" end="5060" vehsPerHour="95.00768166774422" departLane="free"/>
  <flow id="JF91980" begin="5000" fromJunction="J5" toJunction="J6" end="5060" vehsPerHour="53.903971637766084" departLane="free"/>
  <flow id="JF91981" begin="5000" fromJunction="J5" toJunction="J4" end="5060" vehsPerHour="66.00395669154803" departLane="free"/>
  <flow id="JF91982" begin="5000" fromJunction="J5" toJunction="J7" end="5060" vehsPerHour="31.096049616778302" departLane="free"/>
  <flow id="JF91983" begin="5000" fromJunction="J6" toJunction="J5" end="5060" vehsPerHour="61.43342288691573" departLane="free"/>
  <flow id="JF91984" begin="5000" fromJunction="J6" toJunction="J4" end="5060" vehsPerHour="24.261653904558948" departLane="free"/>
  <flow id="JF91985" begin="5000" fromJunction="J6" toJunction="J7" end="5060" vehsPerHour="63.45665111119395" departLane="free"/>
  <flow id="JF91986" begin="5000" fromJunction="J4" toJunction="J5" end="5060" vehsPerHour="60.35056942332104" departLane="free"/>
  <flow id="JF91987" begin="5000" fromJunction="J4" toJunction="J6" end="5060" vehsPerHour="56.094058427435826" departLane="free"/>
  <flow id="JF91988" begin="5000" fromJunction="J4" toJunction="J7" end="5060" vehsPerHour="42.02480802122869" departLane="free"/>
  <flow id="JF91989" begin="5000" fromJunction="J7" toJunction="J5" end="5060" vehsPerHour="67.41181293824742" departLane="free"/>
  <flow id="JF91990" begin="5000" fromJunction="J7" toJunction="J6" end="5060" vehsPerHour="44.78714290943814" departLane="free"/>
  <flow id="JF91991" begin="5000" fromJunction="J7" toJunction="J4" end="5060" vehsPerHour="36.332069606413505" departLane="free"/>
  <flow id="JF91992" begin="5000" fromJunction="J5" toJunction="J0" end="5060" vehsPerHour="60.26510837070813" departLane="free"/>
  <flow id="JF91993" begin="5000" fromJunction="J5" toJunction="J3" end="5060" vehsPerHour="16.823076669971776" departLane="free"/>
  <flow id="JF91994" begin="5000" fromJunction="J6" toJunction="J0" end="5060" vehsPerHour="5.983093761135041" departLane="free"/>
  <flow id="JF91995" begin="5000" fromJunction="J6" toJunction="J3" end="5060" vehsPerHour="59.44040235177534" departLane="free"/>
  <flow id="JF91996" begin="5000" fromJunction="J4" toJunction="J0" end="5060" vehsPerHour="29.297367776435248" departLane="free"/>
  <flow id="JF91997" begin="5000" fromJunction="J4" toJunction="J3" end="5060" vehsPerHour="8.07342968613862" departLane="free"/>
  <flow id="JF91998" begin="5000" fromJunction="J7" toJunction="J0" end="5060" vehsPerHour="1.3867711480769576" departLane="free"/>
  <flow id="JF91999" begin="5000" fromJunction="J7" toJunction="J3" end="5060" vehsPerHour="26.135214561098397" departLane="free"/>
  <flow id="JF92000" begin="5060" fromJunction="J0" toJunction="J3" end="5120" vehsPerHour="77.6158309336037" departLane="free"/>
  <flow id="JF92001" begin="5060" fromJunction="J3" toJunction="J0" end="5120" vehsPerHour="16.771270390288475" departLane="free"/>
  <flow id="JF92002" begin="5060" fromJunction="J0" toJunction="J5" end="5120" vehsPerHour="46.63889672357086" departLane="free"/>
  <flow id="JF92003" begin="5060" fromJunction="J0" toJunction="J6" end="5120" vehsPerHour="126.61975546322252" departLane="free"/>
  <flow id="JF92004" begin="5060" fromJunction="J0" toJunction="J4" end="5120" vehsPerHour="54.5577956001197" departLane="free"/>
  <flow id="JF92005" begin="5060" fromJunction="J0" toJunction="J7" end="5120" vehsPerHour="33.24888779467707" departLane="free"/>
  <flow id="JF92006" begin="5060" fromJunction="J3" toJunction="J5" end="5120" vehsPerHour="67.5058863639134" departLane="free"/>
  <flow id="JF92007" begin="5060" fromJunction="J3" toJunction="J6" end="5120" vehsPerHour="50.488037667698705" departLane="free"/>
  <flow id="JF92008" begin="5060" fromJunction="J3" toJunction="J4" end="5120" vehsPerHour="66.63597451290168" departLane="free"/>
  <flow id="JF92009" begin="5060" fromJunction="J3" toJunction="J7" end="5120" vehsPerHour="136.5450679205225" departLane="free"/>
  <flow id="JF92010" begin="5120" fromJunction="J0" toJunction="J3" end="5180" vehsPerHour="110.82311467214693" departLane="free"/>
  <flow id="JF92011" begin="5120" fromJunction="J3" toJunction="J0" end="5180" vehsPerHour="111.08537847906267" departLane="free"/>
  <flow id="JF92012" begin="5120" fromJunction="J0" toJunction="J5" end="5180" vehsPerHour="29.759329532780036" departLane="free"/>
  <flow id="JF92013" begin="5120" fromJunction="J0" toJunction="J6" end="5180" vehsPerHour="133.82172187402767" departLane="free"/>
  <flow id="JF92014" begin="5120" fromJunction="J0" toJunction="J4" end="5180" vehsPerHour="116.82991536392396" departLane="free"/>
  <flow id="JF92015" begin="5120" fromJunction="J0" toJunction="J7" end="5180" vehsPerHour="32.035402783145884" departLane="free"/>
  <flow id="JF92016" begin="5120" fromJunction="J3" toJunction="J5" end="5180" vehsPerHour="78.38455374175403" departLane="free"/>
  <flow id="JF92017" begin="5120" fromJunction="J3" toJunction="J6" end="5180" vehsPerHour="7.074426293702958" departLane="free"/>
  <flow id="JF92018" begin="5120" fromJunction="J3" toJunction="J4" end="5180" vehsPerHour="40.47203371316764" departLane="free"/>
  <flow id="JF92019" begin="5120" fromJunction="J3" toJunction="J7" end="5180" vehsPerHour="74.50458958034363" departLane="free"/>
  <flow id="JF92020" begin="5180" fromJunction="J0" toJunction="J3" end="5240" vehsPerHour="38.26606391915057" departLane="free"/>
  <flow id="JF92021" begin="5180" fromJunction="J3" toJunction="J0" end="5240" vehsPerHour="101.32888529579446" departLane="free"/>
  <flow id="JF92022" begin="5180" fromJunction="J0" toJunction="J5" end="5240" vehsPerHour="84.77798982894805" departLane="free"/>
  <flow id="JF92023" begin="5180" fromJunction="J0" toJunction="J6" end="5240" vehsPerHour="22.268976430451175" departLane="free"/>
  <flow id="JF92024" begin="5180" fromJunction="J0" toJunction="J4" end="5240" vehsPerHour="36.80688389102694" departLane="free"/>
  <flow id="JF92025" begin="5180" fromJunction="J0" toJunction="J7" end="5240" vehsPerHour="55.405650333855654" departLane="free"/>
  <flow id="JF92026" begin="5180" fromJunction="J3" toJunction="J5" end="5240" vehsPerHour="42.462563535532404" departLane="free"/>
  <flow id="JF92027" begin="5180" fromJunction="J3" toJunction="J6" end="5240" vehsPerHour="38.30514364842247" departLane="free"/>
  <flow id="JF92028" begin="5180" fromJunction="J3" toJunction="J4" end="5240" vehsPerHour="94.33232803007337" departLane="free"/>
  <flow id="JF92029" begin="5180" fromJunction="J3" toJunction="J7" end="5240" vehsPerHour="41.5961028807283" departLane="free"/>
  <flow id="JF92030" begin="5240" fromJunction="J0" toJunction="J3" end="5300" vehsPerHour="81.62927571218977" departLane="free"/>
  <flow id="JF92031" begin="5240" fromJunction="J3" toJunction="J0" end="5300" vehsPerHour="34.849823160155175" departLane="free"/>
  <flow id="JF92032" begin="5240" fromJunction="J0" toJunction="J5" end="5300" vehsPerHour="108.44524014636137" departLane="free"/>
  <flow id="JF92033" begin="5240" fromJunction="J0" toJunction="J6" end="5300" vehsPerHour="116.34734941852567" departLane="free"/>
  <flow id="JF92034" begin="5240" fromJunction="J0" toJunction="J4" end="5300" vehsPerHour="0.00657156043274203" departLane="free"/>
  <flow id="JF92035" begin="5240" fromJunction="J0" toJunction="J7" end="5300" vehsPerHour="76.6933786738645" departLane="free"/>
  <flow id="JF92036" begin="5240" fromJunction="J3" toJunction="J5" end="5300" vehsPerHour="12.97230336517496" departLane="free"/>
  <flow id="JF92037" begin="5240" fromJunction="J3" toJunction="J6" end="5300" vehsPerHour="113.13872652670295" departLane="free"/>
  <flow id="JF92038" begin="5240" fromJunction="J3" toJunction="J4" end="5300" vehsPerHour="31.258872061008663" departLane="free"/>
  <flow id="JF92039" begin="5240" fromJunction="J3" toJunction="J7" end="5300" vehsPerHour="2.0057584674902835" departLane="free"/>
  <flow id="JF92040" begin="5300" fromJunction="J0" toJunction="J3" end="5360" vehsPerHour="114.31962416867708" departLane="free"/>
  <flow id="JF92041" begin="5300" fromJunction="J3" toJunction="J0" end="5360" vehsPerHour="132.639446347016" departLane="free"/>
  <flow id="JF92042" begin="5300" fromJunction="J0" toJunction="J5" end="5360" vehsPerHour="129.39869630602493" departLane="free"/>
  <flow id="JF92043" begin="5300" fromJunction="J0" toJunction="J6" end="5360" vehsPerHour="5.202097901679614" departLane="free"/>
  <flow id="JF92044" begin="5300" fromJunction="J0" toJunction="J4" end="5360" vehsPerHour="55.51144336129915" departLane="free"/>
  <flow id="JF92045" begin="5300" fromJunction="J0" toJunction="J7" end="5360" vehsPerHour="27.746044873904196" departLane="free"/>
  <flow id="JF92046" begin="5300" fromJunction="J3" toJunction="J5" end="5360" vehsPerHour="83.36078811539457" departLane="free"/>
  <flow id="JF92047" begin="5300" fromJunction="J3" toJunction="J6" end="5360" vehsPerHour="110.50142844567564" departLane="free"/>
  <flow id="JF92048" begin="5300" fromJunction="J3" toJunction="J4" end="5360" vehsPerHour="16.388235360132285" departLane="free"/>
  <flow id="JF92049" begin="5300" fromJunction="J3" toJunction="J7" end="5360" vehsPerHour="97.44216911383367" departLane="free"/>
  <flow id="JF92050" begin="5300" fromJunction="J5" toJunction="J6" end="5360" vehsPerHour="42.5739575705828" departLane="free"/>
  <flow id="JF92051" begin="5300" fromJunction="J5" toJunction="J4" end="5360" vehsPerHour="16.926923092125616" departLane="free"/>
  <flow id="JF92052" begin="5300" fromJunction="J5" toJunction="J7" end="5360" vehsPerHour="0.9487159790392531" departLane="free"/>
  <flow id="JF92053" begin="5300" fromJunction="J6" toJunction="J5" end="5360" vehsPerHour="11.344072061736261" departLane="free"/>
  <flow id="JF92054" begin="5300" fromJunction="J6" toJunction="J4" end="5360" vehsPerHour="33.928311266969224" departLane="free"/>
  <flow id="JF92055" begin="5300" fromJunction="J6" toJunction="J7" end="5360" vehsPerHour="47.90851146232768" departLane="free"/>
  <flow id="JF92056" begin="5300" fromJunction="J4" toJunction="J5" end="5360" vehsPerHour="25.39238983570018" departLane="free"/>
  <flow id="JF92057" begin="5300" fromJunction="J4" toJunction="J6" end="5360" vehsPerHour="0.770942638080946" departLane="free"/>
  <flow id="JF92058" begin="5300" fromJunction="J4" toJunction="J7" end="5360" vehsPerHour="51.74992059849175" departLane="free"/>
  <flow id="JF92059" begin="5300" fromJunction="J7" toJunction="J5" end="5360" vehsPerHour="68.25590931905765" departLane="free"/>
  <flow id="JF92060" begin="5300" fromJunction="J7" toJunction="J6" end="5360" vehsPerHour="67.23161658782548" departLane="free"/>
  <flow id="JF92061" begin="5300" fromJunction="J7" toJunction="J4" end="5360" vehsPerHour="41.593886755991086" departLane="free"/>
  <flow id="JF92062" begin="5300" fromJunction="J5" toJunction="J0" end="5360" vehsPerHour="43.39615166768381" departLane="free"/>
  <flow id="JF92063" begin="5300" fromJunction="J5" toJunction="J3" end="5360" vehsPerHour="38.99076951938142" departLane="free"/>
  <flow id="JF92064" begin="5300" fromJunction="J6" toJunction="J0" end="5360" vehsPerHour="7.4770432802022215" departLane="free"/>
  <flow id="JF92065" begin="5300" fromJunction="J6" toJunction="J3" end="5360" vehsPerHour="11.84011022517871" departLane="free"/>
  <flow id="JF92066" begin="5300" fromJunction="J4" toJunction="J0" end="5360" vehsPerHour="51.13235762426294" departLane="free"/>
  <flow id="JF92067" begin="5300" fromJunction="J4" toJunction="J3" end="5360" vehsPerHour="39.514182325490125" departLane="free"/>
  <flow id="JF92068" begin="5300" fromJunction="J7" toJunction="J0" end="5360" vehsPerHour="62.73496759677293" departLane="free"/>
  <flow id="JF92069" begin="5300" fromJunction="J7" toJunction="J3" end="5360" vehsPerHour="18.87869293096271" departLane="free"/>
  <flow id="JF92070" begin="5360" fromJunction="J0" toJunction="J3" end="5420" vehsPerHour="85.4190053479872" departLane="free"/>
  <flow id="JF92071" begin="5360" fromJunction="J3" toJunction="J0" end="5420" vehsPerHour="94.07922287511494" departLane="free"/>
  <flow id="JF92072" begin="5360" fromJunction="J0" toJunction="J5" end="5420" vehsPerHour="116.98895004298275" departLane="free"/>
  <flow id="JF92073" begin="5360" fromJunction="J0" toJunction="J6" end="5420" vehsPerHour="30.431340048775677" departLane="free"/>
  <flow id="JF92074" begin="5360" fromJunction="J0" toJunction="J4" end="5420" vehsPerHour="101.79343951799622" departLane="free"/>
  <flow id="JF92075" begin="5360" fromJunction="J0" toJunction="J7" end="5420" vehsPerHour="99.79389886104897" departLane="free"/>
  <flow id="JF92076" begin="5360" fromJunction="J3" toJunction="J5" end="5420" vehsPerHour="85.53767810261674" departLane="free"/>
  <flow id="JF92077" begin="5360" fromJunction="J3" toJunction="J6" end="5420" vehsPerHour="89.49388952003481" departLane="free"/>
  <flow id="JF92078" begin="5360" fromJunction="J3" toJunction="J4" end="5420" vehsPerHour="0.5429693796083355" departLane="free"/>
  <flow id="JF92079" begin="5360" fromJunction="J3" toJunction="J7" end="5420" vehsPerHour="114.85466064055827" departLane="free"/>
  <flow id="JF92080" begin="5360" fromJunction="J5" toJunction="J6" end="5420" vehsPerHour="60.31528814208878" departLane="free"/>
  <flow id="JF92081" begin="5360" fromJunction="J5" toJunction="J4" end="5420" vehsPerHour="63.720268107206515" departLane="free"/>
  <flow id="JF92082" begin="5360" fromJunction="J5" toJunction="J7" end="5420" vehsPerHour="19.80760868658205" departLane="free"/>
  <flow id="JF92083" begin="5360" fromJunction="J6" toJunction="J5" end="5420" vehsPerHour="67.32385801803046" departLane="free"/>
  <flow id="JF92084" begin="5360" fromJunction="J6" toJunction="J4" end="5420" vehsPerHour="57.849922660222774" departLane="free"/>
  <flow id="JF92085" begin="5360" fromJunction="J6" toJunction="J7" end="5420" vehsPerHour="11.79689828425781" departLane="free"/>
  <flow id="JF92086" begin="5360" fromJunction="J4" toJunction="J5" end="5420" vehsPerHour="9.846405980721444" departLane="free"/>
  <flow id="JF92087" begin="5360" fromJunction="J4" toJunction="J6" end="5420" vehsPerHour="47.39810862751151" departLane="free"/>
  <flow id="JF92088" begin="5360" fromJunction="J4" toJunction="J7" end="5420" vehsPerHour="18.506155566766118" departLane="free"/>
  <flow id="JF92089" begin="5360" fromJunction="J7" toJunction="J5" end="5420" vehsPerHour="57.34549465800854" departLane="free"/>
  <flow id="JF92090" begin="5360" fromJunction="J7" toJunction="J6" end="5420" vehsPerHour="47.2756090108599" departLane="free"/>
  <flow id="JF92091" begin="5360" fromJunction="J7" toJunction="J4" end="5420" vehsPerHour="26.518011281266052" departLane="free"/>
  <flow id="JF92092" begin="5360" fromJunction="J5" toJunction="J0" end="5420" vehsPerHour="33.056992002288396" departLane="free"/>
  <flow id="JF92093" begin="5360" fromJunction="J5" toJunction="J3" end="5420" vehsPerHour="50.13865589470124" departLane="free"/>
  <flow id="JF92094" begin="5360" fromJunction="J6" toJunction="J0" end="5420" vehsPerHour="19.382483019105543" departLane="free"/>
  <flow id="JF92095" begin="5360" fromJunction="J6" toJunction="J3" end="5420" vehsPerHour="47.732060725680746" departLane="free"/>
  <flow id="JF92096" begin="5360" fromJunction="J4" toJunction="J0" end="5420" vehsPerHour="61.60908469671396" departLane="free"/>
  <flow id="JF92097" begin="5360" fromJunction="J4" toJunction="J3" end="5420" vehsPerHour="37.26480153301294" departLane="free"/>
  <flow id="JF92098" begin="5360" fromJunction="J7" toJunction="J0" end="5420" vehsPerHour="65.76776744562092" departLane="free"/>
  <flow id="JF92099" begin="5360" fromJunction="J7" toJunction="J3" end="5420" vehsPerHour="48.20614885066838" departLane="free"/>
  <flow id="JF92100" begin="5420" fromJunction="J0" toJunction="J3" end="5480" vehsPerHour="51.9585205707163" departLane="free"/>
  <flow id="JF92101" begin="5420" fromJunction="J3" toJunction="J0" end="5480" vehsPerHour="50.69973282997478" departLane="free"/>
  <flow id="JF92102" begin="5420" fromJunction="J0" toJunction="J5" end="5480" vehsPerHour="68.19794629986875" departLane="free"/>
  <flow id="JF92103" begin="5420" fromJunction="J0" toJunction="J6" end="5480" vehsPerHour="16.003019562335172" departLane="free"/>
  <flow id="JF92104" begin="5420" fromJunction="J0" toJunction="J4" end="5480" vehsPerHour="78.49931119358686" departLane="free"/>
  <flow id="JF92105" begin="5420" fromJunction="J0" toJunction="J7" end="5480" vehsPerHour="131.46840696681915" departLane="free"/>
  <flow id="JF92106" begin="5420" fromJunction="J3" toJunction="J5" end="5480" vehsPerHour="40.56905065275223" departLane="free"/>
  <flow id="JF92107" begin="5420" fromJunction="J3" toJunction="J6" end="5480" vehsPerHour="22.79098486475474" departLane="free"/>
  <flow id="JF92108" begin="5420" fromJunction="J3" toJunction="J4" end="5480" vehsPerHour="121.4528022017542" departLane="free"/>
  <flow id="JF92109" begin="5420" fromJunction="J3" toJunction="J7" end="5480" vehsPerHour="22.946272274474467" departLane="free"/>
  <flow id="JF92110" begin="5420" fromJunction="J5" toJunction="J6" end="5480" vehsPerHour="17.87659907264352" departLane="free"/>
  <flow id="JF92111" begin="5420" fromJunction="J5" toJunction="J4" end="5480" vehsPerHour="58.763969590747344" departLane="free"/>
  <flow id="JF92112" begin="5420" fromJunction="J5" toJunction="J7" end="5480" vehsPerHour="48.38232352250859" departLane="free"/>
  <flow id="JF92113" begin="5420" fromJunction="J6" toJunction="J5" end="5480" vehsPerHour="53.2637640950232" departLane="free"/>
  <flow id="JF92114" begin="5420" fromJunction="J6" toJunction="J4" end="5480" vehsPerHour="57.18955483679684" departLane="free"/>
  <flow id="JF92115" begin="5420" fromJunction="J6" toJunction="J7" end="5480" vehsPerHour="10.884423520072335" departLane="free"/>
  <flow id="JF92116" begin="5420" fromJunction="J4" toJunction="J5" end="5480" vehsPerHour="60.182056501728106" departLane="free"/>
  <flow id="JF92117" begin="5420" fromJunction="J4" toJunction="J6" end="5480" vehsPerHour="31.733077135759604" departLane="free"/>
  <flow id="JF92118" begin="5420" fromJunction="J4" toJunction="J7" end="5480" vehsPerHour="65.38242931403605" departLane="free"/>
  <flow id="JF92119" begin="5420" fromJunction="J7" toJunction="J5" end="5480" vehsPerHour="24.401056918412927" departLane="free"/>
  <flow id="JF92120" begin="5420" fromJunction="J7" toJunction="J6" end="5480" vehsPerHour="20.06289163140295" departLane="free"/>
  <flow id="JF92121" begin="5420" fromJunction="J7" toJunction="J4" end="5480" vehsPerHour="56.269467702727475" departLane="free"/>
  <flow id="JF92122" begin="5420" fromJunction="J5" toJunction="J0" end="5480" vehsPerHour="51.491741679916316" departLane="free"/>
  <flow id="JF92123" begin="5420" fromJunction="J5" toJunction="J3" end="5480" vehsPerHour="37.694183155978514" departLane="free"/>
  <flow id="JF92124" begin="5420" fromJunction="J6" toJunction="J0" end="5480" vehsPerHour="66.08121427336094" departLane="free"/>
  <flow id="JF92125" begin="5420" fromJunction="J6" toJunction="J3" end="5480" vehsPerHour="54.47160878343546" departLane="free"/>
  <flow id="JF92126" begin="5420" fromJunction="J4" toJunction="J0" end="5480" vehsPerHour="42.95526076340791" departLane="free"/>
  <flow id="JF92127" begin="5420" fromJunction="J4" toJunction="J3" end="5480" vehsPerHour="7.148693974571767" departLane="free"/>
  <flow id="JF92128" begin="5420" fromJunction="J7" toJunction="J0" end="5480" vehsPerHour="18.771174277964317" departLane="free"/>
  <flow id="JF92129" begin="5420" fromJunction="J7" toJunction="J3" end="5480" vehsPerHour="38.29297511905691" departLane="free"/>
  <flow id="JF92130" begin="5480" fromJunction="J0" toJunction="J3" end="5540" vehsPerHour="64.06351989815597" departLane="free"/>
  <flow id="JF92131" begin="5480" fromJunction="J3" toJunction="J0" end="5540" vehsPerHour="128.4028077239528" departLane="free"/>
  <flow id="JF92132" begin="5480" fromJunction="J0" toJunction="J5" end="5540" vehsPerHour="90.84404707569503" departLane="free"/>
  <flow id="JF92133" begin="5480" fromJunction="J0" toJunction="J6" end="5540" vehsPerHour="10.539182170582654" departLane="free"/>
  <flow id="JF92134" begin="5480" fromJunction="J0" toJunction="J4" end="5540" vehsPerHour="47.326194524969324" departLane="free"/>
  <flow id="JF92135" begin="5480" fromJunction="J0" toJunction="J7" end="5540" vehsPerHour="42.796498962140305" departLane="free"/>
  <flow id="JF92136" begin="5480" fromJunction="J3" toJunction="J5" end="5540" vehsPerHour="69.58351047265012" departLane="free"/>
  <flow id="JF92137" begin="5480" fromJunction="J3" toJunction="J6" end="5540" vehsPerHour="9.65307297588706" departLane="free"/>
  <flow id="JF92138" begin="5480" fromJunction="J3" toJunction="J4" end="5540" vehsPerHour="123.70206158932976" departLane="free"/>
  <flow id="JF92139" begin="5480" fromJunction="J3" toJunction="J7" end="5540" vehsPerHour="96.77817680821538" departLane="free"/>
  <flow id="JF92140" begin="5480" fromJunction="J5" toJunction="J6" end="5540" vehsPerHour="29.824564351711338" departLane="free"/>
  <flow id="JF92141" begin="5480" fromJunction="J5" toJunction="J4" end="5540" vehsPerHour="29.456586073128957" departLane="free"/>
  <flow id="JF92142" begin="5480" fromJunction="J5" toJunction="J7" end="5540" vehsPerHour="67.97279588449587" departLane="free"/>
  <flow id="JF92143" begin="5480" fromJunction="J6" toJunction="J5" end="5540" vehsPerHour="48.65701711983672" departLane="free"/>
  <flow id="JF92144" begin="5480" fromJunction="J6" toJunction="J4" end="5540" vehsPerHour="56.65684857523537" departLane="free"/>
  <flow id="JF92145" begin="5480" fromJunction="J6" toJunction="J7" end="5540" vehsPerHour="52.02025234407314" departLane="free"/>
  <flow id="JF92146" begin="5480" fromJunction="J4" toJunction="J5" end="5540" vehsPerHour="20.57693475547205" departLane="free"/>
  <flow id="JF92147" begin="5480" fromJunction="J4" toJunction="J6" end="5540" vehsPerHour="64.89429282842542" departLane="free"/>
  <flow id="JF92148" begin="5480" fromJunction="J4" toJunction="J7" end="5540" vehsPerHour="5.7733049681558954" departLane="free"/>
  <flow id="JF92149" begin="5480" fromJunction="J7" toJunction="J5" end="5540" vehsPerHour="22.66062186584081" departLane="free"/>
  <flow id="JF92150" begin="5480" fromJunction="J7" toJunction="J6" end="5540" vehsPerHour="50.0285588486038" departLane="free"/>
  <flow id="JF92151" begin="5480" fromJunction="J7" toJunction="J4" end="5540" vehsPerHour="9.447870533717374" departLane="free"/>
  <flow id="JF92152" begin="5480" fromJunction="J5" toJunction="J0" end="5540" vehsPerHour="57.823870464359466" departLane="free"/>
  <flow id="JF92153" begin="5480" fromJunction="J5" toJunction="J3" end="5540" vehsPerHour="54.472610860830855" departLane="free"/>
  <flow id="JF92154" begin="5480" fromJunction="J6" toJunction="J0" end="5540" vehsPerHour="63.68776294661679" departLane="free"/>
  <flow id="JF92155" begin="5480" fromJunction="J6" toJunction="J3" end="5540" vehsPerHour="26.74071755316857" departLane="free"/>
  <flow id="JF92156" begin="5480" fromJunction="J4" toJunction="J0" end="5540" vehsPerHour="51.179946599188995" departLane="free"/>
  <flow id="JF92157" begin="5480" fromJunction="J4" toJunction="J3" end="5540" vehsPerHour="54.2725509811842" departLane="free"/>
  <flow id="JF92158" begin="5480" fromJunction="J7" toJunction="J0" end="5540" vehsPerHour="2.004245471693517" departLane="free"/>
  <flow id="JF92159" begin="5480" fromJunction="J7" toJunction="J3" end="5540" vehsPerHour="21.029042000764175" departLane="free"/>
  <flow id="JF92160" begin="5540" fromJunction="J0" toJunction="J3" end="5600" vehsPerHour="87.45674320319924" departLane="free"/>
  <flow id="JF92161" begin="5540" fromJunction="J3" toJunction="J0" end="5600" vehsPerHour="86.3201916789021" departLane="free"/>
  <flow id="JF92162" begin="5540" fromJunction="J0" toJunction="J5" end="5600" vehsPerHour="53.78465751897699" departLane="free"/>
  <flow id="JF92163" begin="5540" fromJunction="J0" toJunction="J6" end="5600" vehsPerHour="45.23681943762112" departLane="free"/>
  <flow id="JF92164" begin="5540" fromJunction="J0" toJunction="J4" end="5600" vehsPerHour="74.28609305261234" departLane="free"/>
  <flow id="JF92165" begin="5540" fromJunction="J0" toJunction="J7" end="5600" vehsPerHour="43.02659738966809" departLane="free"/>
  <flow id="JF92166" begin="5540" fromJunction="J3" toJunction="J5" end="5600" vehsPerHour="7.4114745152489885" departLane="free"/>