<?xml version="1.0" encoding="UTF-8"?>
<routes xmlns:xsi="http://www.w3.org/2001/XMLSchema-instance" xsi:noNamespaceSchemaLocation="http://sumo.dlr.de/xsd/routes_file.xsd">
  <flow id="JF98020" begin="0" fromJunction="J0" toJunction="J3" end="5000" vehsPerHour="24.284957987589614" departLane="free"/>
  <flow id="JF98021" begin="0" fromJunction="J3" toJunction="J0" end="5000" vehsPerHour="129.88258001768466" departLane="free"/>
  <flow id="JF98022" begin="0" fromJunction="J0" toJunction="J5" end="5000" vehsPerHour="411.4598257281197" departLane="free"/>
  <flow id="JF98023" begin="0" fromJunction="J0" toJunction="J6" end="5000" vehsPerHour="212.12421508358065" departLane="free"/>
  <flow id="JF98024" begin="0" fromJunction="J0" toJunction="J4" end="5000" vehsPerHour="145.2579369205528" departLane="free"/>
  <flow id="JF98025" begin="0" fromJunction="J0" toJunction="J7" end="5000" vehsPerHour="134.84791629978048" departLane="free"/>
  <flow id="JF98026" begin="0" fromJunction="J3" toJunction="J5" end="5000" vehsPerHour="164.09538032921384" departLane="free"/>
  <flow id="JF98027" begin="0" fromJunction="J3" toJunction="J6" end="5000" vehsPerHour="139.55950100821977" departLane="free"/>
  <flow id="JF98028" begin="0" fromJunction="J3" toJunction="J4" end="5000" vehsPerHour="171.21158843614464" departLane="free"/>
  <flow id="JF98029" begin="0" fromJunction="J3" toJunction="J7" end="5000" vehsPerHour="263.4605481370585" departLane="free"/>
  <flow id="JF98030" begin="0" fromJunction="J5" toJunction="J6" end="5000" vehsPerHour="8.994394173594937" departLane="free"/>
  <flow id="JF98031" begin="0" fromJunction="J5" toJunction="J4" end="5000" vehsPerHour="45.296509573573104" departLane="free"/>
  <flow id="JF98032" begin="0" fromJunction="J5" toJunction="J7" end="5000" vehsPerHour="23.504544425343557" departLane="free"/>
  <flow id="JF98033" begin="0" fromJunction="J6" toJunction="J5" end="5000" vehsPerHour="33.37902772849755" departLane="free"/>
  <flow id="JF98034" begin="0" fromJunction="J6" toJunction="J4" end="5000" vehsPerHour="11.029412077682082" departLane="free"/>
  <flow id="JF98035" begin="0" fromJunction="J6" toJunction="J7" end="5000" vehsPerHour="60.35415947980277" departLane="free"/>
  <flow id="JF98036" begin="0" fromJunction="J4" toJunction="J5" end="5000" vehsPerHour="46.55502053422506" departLane="free"/>
  <flow id="JF98037" begin="0" fromJunction="J4" toJunction="J6" end="5000" vehsPerHour="14.95394753155435" departLane="free"/>
  <flow id="JF98038" begin="0" fromJunction="J4" toJunction="J7" end="5000" vehsPerHour="7.808279060311442" departLane="free"/>
  <flow id="JF98039" begin="0" fromJunction="J7" toJunction="J5" end="5000" vehsPerHour="25.844729678135906" departLane="free"/>
  <flow id="JF98040" begin="0" fromJunction="J7" toJunction="J6" end="5000" vehsPerHour="0.041073078716915914" departLane="free"/>
  <flow id="JF98041" begin="0" fromJunction="J7" toJunction="J4" end="5000" vehsPerHour="19.48107691585132" departLane="free"/>
  <flow id="JF98042" begin="0" fromJunction="J5" toJunction="J0" end="5000" vehsPerHour="85.91995217209617" departLane="free"/>
  <flow id="JF98043" begin="0" fromJunction="J5" toJunction="J3" end="5000" vehsPerHour="114.40717222106888" departLane="free"/>
  <flow id="JF98044" begin="0" fromJunction="J6" toJunction="J0" end="5000" vehsPerHour="221.23995569546804" departLane="free"/>
  <flow id="JF98045" begin="0" fromJunction="J6" toJunction="J3" end="5000" vehsPerHour="227.0756148917349" departLane="free"/>
  <flow id="JF98046" begin="0" fromJunction="J4" toJunction="J0" end="5000" vehsPerHour="179.18098314694518" departLane="free"/>
  <flow id="JF98047" begin="0" fromJunction="J4" toJunction="J3" end="5000" vehsPerHour="201.69135448418612" departLane="free"/>
  <flow id="JF98048" begin="0" fromJunction="J7" toJunction="J0" end="5000" vehsPerHour="52.49631983415012" departLane="free"/>
  <flow id="JF98049" begin="0" fromJunction="J7" toJunction="J3" end="5000" vehsPerHour="2.9216725211248895" departLane="free"/>
  <flow id="JF98050" begin="5000" fromJunction="J0" toJunction="J3" end="5060" vehsPerHour="11.099375890830496" departLane="free"/>
  <flow id="JF98051" begin="5000" fromJunction="J3" toJunction="J0" end="5060" vehsPerHour="55.46374219913617" departLane="free"/>
  <flow id="JF98052" begin="5000" fromJunction="J0" toJunction="J5" end="5060" vehsPerHour="28.145300448835616" departLane="free"/>
  <flow id="JF98053" begin="5000" fromJunction="J0" toJunction="J6" end="5060" vehsPerHour="105.4774263710679" departLane="free"/>
  <flow id="JF98054" begin="5000" fromJunction="J0" toJunction="J4" end="5060" vehsPerHour="36.26121598923944" departLane="free"/>
  <flow id="JF98055" begin="5000" fromJunction="J0" toJunction="J7" end="5060" vehsPerHour="6.3993990384145345" departLane="free"/>
  <flow id="JF98056" begin="5000" fromJunction="J3" toJunction="J5" end="5060" vehsPerHour="128.0522250683248" departLane="free"/>
  <flow id="JF98057" begin="5000" fromJunction="J3" toJunction="J6" end="5060" vehsPerHour="80.4828938650468" departLane="free"/>
  <flow id="JF98058" begin="5000" fromJunction="J3" toJunction="J4" end="5060" vehsPerHour="45.26973372632015" departLane="free"/>
  <flow id="JF98059" begin="5000" fromJunction="J3" toJunction="J7" end="5060" vehsPerHour="55.547946719735094" departLane="free"/>
  <flow id="JF98060" begin="5000" fromJunction="J5" toJunction="J6" end="5060" vehsPerHour="40.24658092909193" departLane="free"/>
  <flow id="JF98061" begin="5000" fromJunction="J5" toJunction="J4" end="5060" vehsPerHour="0.399652112944952" departLane="free"/>
  <flow id="JF98062" begin="5000" fromJunction="J5" toJunction="J7" end="5060" vehsPerHour="5.441815543980818" departLane="free"/>
  <flow id="JF98063" begin="5000" fromJunction="J6" toJunction="J5" end="5060" vehsPerHour="1.1554817718299941" departLane="free"/>
  <flow id="JF98064" begin="5000" fromJunction="J6" toJunction="J4" end="5060" vehsPerHour="36.342801150646906" departLane="free"/>
  <flow id="JF98065" begin="5000" fromJunction="J6" toJunction="J7" end="5060" vehsPerHour="66.4471668707117" departLane="free"/>
  <flow id="JF98066" begin="5000" fromJunction="J4" toJunction="J5" end="5060" vehsPerHour="26.037410659479097" departLane="free"/>
  <flow id="JF98067" begin="5000" fromJunction="J4" toJunction="J6" end="5060" vehsPerHour="18.747003022527146" departLane="free"/>
  <flow id="JF98068" begin="5000" fromJunction="J4" toJunction="J7" end="5060" vehsPerHour="29.389839597399835" departLane="free"/>
  <flow id="JF98069" begin="5000" fromJunction="J7" toJunction="J5" end="5060" vehsPerHour="6.642137362037435" departLane="free"/>
  <flow id="JF98070" begin="5000" fromJunction="J7" toJunction="J6" end="5060" vehsPerHour="37.890182802834005" departLane="free"/>
  <flow id="JF98071" begin="5000" fromJunction="J7" toJunction="J4" end="5060" vehsPerHour="13.825908592206003" departLane="free"/>
  <flow id="JF98072" begin="5000" fromJunction="J5" toJunction="J0" end="5060" vehsPerHour="7.0846115394538645" departLane="free"/>
  <flow id="JF98073" begin="5000" fromJunction="J5" toJunction="J3" end="5060" vehsPerHour="56.095953992117565" departLane="free"/>
  <flow id="JF98074" begin="5000" fromJunction="J6" toJunction="J0" end="5060" vehsPerHour="51.293502529624625" departLane="free"/>
  <flow id="JF98075" begin="5000" fromJunction="J6" toJunction="J3" end="5060" vehsPerHour="40.18228651072918" departLane="free"/>
  <flow id="JF98076" begin="5000" fromJunction="J4" toJunction="J0" end="5060" vehsPerHour="17.047881041555815" departLane="free"/>
  <flow id="JF98077" begin="5000" fromJunction="J4" toJunction="J3" end="5060" vehsPerHour="36.68496247494862" departLane="free"/>
  <flow id="JF98078" begin="5000" fromJunction="J7" toJunction="J0" end="5060" vehsPerHour="52.49625031866429" departLane="free"/>
  <flow id="JF98079" begin="5000" fromJunction="J7" toJunction="J3" end="5060" vehsPerHour="35.09953162097957" departLane="free"/>
  <flow id="JF98080" begin="5060" fromJunction="J0" toJunction="J3" end="5120" vehsPerHour="51.35307505912458" departLane="free"/>
  <flow id="JF98081" begin="5060" fromJunction="J3" toJunction="J0" end="5120" vehsPerHour="87.42399654079676" departLane="free"/>
  <flow id="JF98082" begin="5060" fromJunction="J0" toJunction="J5" end="5120" vehsPerHour="101.40687346434349" departLane="free"/>
  <flow id="JF98083" begin="5060" fromJunction="J0" toJunction="J6" end="5120" vehsPerHour="124.10131972635503" departLane="free"/>
  <flow id="JF98084" begin="5060" fromJunction="J0" toJunction="J4" end="5120" vehsPerHour="58.3842498536756" departLane="free"/>
  <flow id="JF98085" begin="5060" fromJunction="J0" toJunction="J7" end="5120" vehsPerHour="36.413368946106075" departLane="free"/>
  <flow id="JF98086" begin="5060" fromJunction="J3" toJunction="J5" end="5120" vehsPerHour="47.76141568022916" departLane="free"/>
  <flow id="JF98087" begin="5060" fromJunction="J3" toJunction="J6" end="5120" vehsPerHour="126.3658094819796" departLane="free"/>
  <flow id="JF98088" begin="5060" fromJunction="J3" toJunction="J4" end="5120" vehsPerHour="111.51255810027673" departLane="free"/>
  <flow id="JF98089" begin="5060" fromJunction="J3" toJunction="J7" end="5120" vehsPerHour="21.559175797536817" departLane="free"/>
  <flow id="JF98090" begin="5060" fromJunction="J5" toJunction="J6" end="5120" vehsPerHour="16.190775607621642" departLane="free"/>
  <flow id="JF98091" begin="5060" fromJunction="J5" toJunction="J4" end="5120" vehsPerHour="54.174903044837286" departLane="free"/>
  <flow id="JF98092" begin="5060" fromJunction="J5" toJunction="J7" end="5120" vehsPerHour="1.2203119013614563" departLane="free"/>
  <flow id="JF98093" begin="5060" fromJunction="J6" toJunction="J5" end="5120" vehsPerHour="34.408207659235586" departLane="free"/>
  <flow id="JF98094" begin="5060" fromJunction="J6" toJunction="J4" end="5120" vehsPerHour="15.620698293064898" departLane="free"/>
  <flow id="JF98095" begin="5060" fromJunction="J6" toJunction="J7" end="5120" vehsPerHour="24.382574396965378" departLane="free"/>
  <flow id="JF98096" begin="5060" fromJunction="J4" toJunction="J5" end="5120" vehsPerHour="41.7345544634367" departLane="free"/>
  <flow id="JF98097" begin="5060" fromJunction="J4" toJunction="J6" end="5120" vehsPerHour="11.05871449121103" departLane="free"/>
  <flow id="JF98098" begin="5060" fromJunction="J4" toJunction="J7" end="5120" vehsPerHour="66.4545633644938" departLane="free"/>
  <flow id="JF98099" begin="5060" fromJunction="J7" toJunction="J5" end="5120" vehsPerHour="68.35004828096011" departLane="free"/>
  <flow id="JF98100" begin="5060" fromJunction="J7" toJunction="J6" end="5120" vehsPerHour="9.05478267946842" departLane="free"/>
  <flow id="JF98101" begin="5060" fromJunction="J7" toJunction="J4" end="5120" vehsPerHour="63.25313791770175" departLane="free"/>
  <flow id="JF98102" begin="5060" fromJunction="J5" toJunction="J0" end="5120" vehsPerHour="7.5899881449020485" departLane="free"/>
  <flow id="JF98103" begin="5060" fromJunction="J5" toJunction="J3" end="5120" vehsPerHour="59.4451887812549" departLane="free"/>
  <flow id="JF98104" begin="5060" fromJunction="J6" toJunction="J0" end="5120" vehsPerHour="49.38303697272669" departLane="free"/>
  <flow id="JF98105" begin="5060" fromJunction="J6" toJunction="J3" end="5120" vehsPerHour="41.357959356549635" departLane="free"/>
  <flow id="JF98106" begin="5060" fromJunction="J4" toJunction="J0" end="5120" vehsPerHour="61.72281059271464" departLane="free"/>
  <flow id="JF98107" begin="5060" fromJunction="J4" toJunction="J3" end="5120" vehsPerHour="23.726676937394828" departLane="free"/>
  <flow id="JF98108" begin="5060" fromJunction="J7" toJunction="J0" end="5120" vehsPerHour="23.120298444230333" departLane="free"/>
  <flow id="JF98109" begin="5060" fromJunction="J7" toJunction="J3" end="5120" vehsPerHour="22.5260477656863" departLane="free"/>
  <flow id="JF98110" begin="5120" fromJunction="J0" toJunction="J3" end="5180" vehsPerHour="68.89508151389587" departLane="free"/>
  <flow id="JF98111" begin="5120" fromJunction="J3" toJunction="J0" end="5180" vehsPerHour="115.26020295197151" departLane="free"/>
  <flow id="JF98112" begin="5120" fromJunction="J0" toJunction="J5" end="5180" vehsPerHour="82.2021912074305" departLane="free"/>
  <flow id="JF98113" begin="5120" fromJunction="J0" toJunction="J6" end="5180" vehsPerHour="23.188712651151565" departLane="free"/>
  <flow id="JF98114" begin="5120" fromJunction="J0" toJunction="J4" end="5180" vehsPerHour="96.33417792673096" departLane="free"/>
  <flow id="JF98115" begin="5120" fromJunction="J0" toJunction="J7" end="5180" vehsPerHour="128.02727898639466" departLane="free"/>
  <flow id="JF98116" begin="5120" fromJunction="J3" toJunction="J5" end="5180" vehsPerHour="93.75938290718999" departLane="free"/>
  <flow id="JF98117" begin="5120" fromJunction="J3" toJunction="J6" end="5180" vehsPerHour="78.87551842549034" departLane="free"/>
  <flow id="JF98118" begin="5120" fromJunction="J3" toJunction="J4" end="5180" vehsPerHour="135.6621054072637" departLane="free"/>
  <flow id="JF98119" begin="5120" fromJunction="J3" toJunction="J7" end="5180" vehsPerHour="126.9812518522903" departLane="free"/>
  <flow id="JF98120" begin="5120" fromJunction="J5" toJunction="J6" end="5180" vehsPerHour="37.53043056759963" departLane="free"/>
  <flow id="JF98121" begin="5120" fromJunction="J5" toJunction="J4" end="5180" vehsPerHour="36.939421698627925" departLane="free"/>
  <flow id="JF98122" begin="5120" fromJunction="J5" toJunction="J7" end="5180" vehsPerHour="53.26668382776701" departLane="free"/>
  <flow id="JF98123" begin="5120" fromJunction="J6" toJunction="J5" end="5180" vehsPerHour="21.502052862427885" departLane="free"/>
  <flow id="JF98124" begin="5120" fromJunction="J6" toJunction="J4" end="5180" vehsPerHour="0.7482550322084617" departLane="free"/>
  <flow id="JF98125" begin="5120" fromJunction="J6" toJunction="J7" end="5180" vehsPerHour="57.899710862066954" departLane="free"/>
  <flow id="JF98126" begin="5120" fromJunction="J4" toJunction="J5" end="5180" vehsPerHour="63.309063841035396" departLane="free"/>
  <flow id="JF98127" begin="5120" fromJunction="J4" toJunction="J6" end="5180" vehsPerHour="29.23120213953607" departLane="free"/>
  <flow id="JF98128" begin="5120" fromJunction="J4" toJunction="J7" end="5180" vehsPerHour="28.727979049137733" departLane="free"/>
  <flow id="JF98129" begin="5120" fromJunction="J7" toJunction="J5" end="5180" vehsPerHour="21.499063877692272" departLane="free"/>
  <flow id="JF98130" begin="5120" fromJunction="J7" toJunction="J6" end="5180" vehsPerHour="58.57593608285326" departLane="free"/>
  <flow id="JF98131" begin="5120" fromJunction="J7" toJunction="J4" end="5180" vehsPerHour="12.483362061825314" departLane="free"/>
  <flow id="JF98132" begin="5120" fromJunction="J5" toJunction="J0" end="5180" vehsPerHour="58.03565432192031" departLane="free"/>
  <flow id="JF98133" begin="5120" fromJunction="J5" toJunction="J3" end="5180" vehsPerHour="30.83548460019847" departLane="free"/>
  <flow id="JF98134" begin="5120" fromJunction="J6" toJunction="J0" end="5180" vehsPerHour="51.736446139035394" departLane="free"/>
  <flow id="JF98135" begin="5120" fromJunction="J6" toJunction="J3" end="5180" vehsPerHour="20.303597336895514" departLane="free"/>
  <flow id="JF98136" begin="5120" fromJunction="J4" toJunction="J0" end="5180" vehsPerHour="35.37935384590361" departLane="free"/>
  <flow id="JF98137" begin="5120" fromJunction="J4" toJunction="J3" end="5180" vehsPerHour="22.102256467766306" departLane="free"/>
  <flow id="JF98138" begin="5120" fromJunction="J7" toJunction="J0" end="5180" vehsPerHour="31.263668928951738" departLane="free"/>
  <flow id="JF98139" begin="5120" fromJunction="J7" toJunction="J3" end="5180" vehsPerHour="16.469146127561277" departLane="free"/>
  <flow id="JF98140" begin="5180" fromJunction="J0" toJunction="J3" end="5240" vehsPerHour="90.65429496165437" departLane="free"/>
  <flow id="JF98141" begin="5180" fromJunction="J3" toJunction="J0" end="5240" vehsPerHour="82.19288084275595" departLane="free"/>
  <flow id="JF98142" begin="5180" fromJunction="J0" toJunction="J5" end="5240" vehsPerHour="105.4125057978468" departLane="free"/>
  <flow id="JF98143" begin="5180" fromJunction="J0" toJunction="J6" end="5240" vehsPerHour="103.72918624080084" departLane="free"/>
  <flow id="JF98144" begin="5180" fromJunction="J0" toJunction="J4" end="5240" vehsPerHour="16.403966982442213" departLane="free"/>
  <flow id="JF98145" begin="5180" fromJunction="J0" toJunction="J7" end="5240" vehsPerHour="91.93510962158977" departLane="free"/>
  <flow id="JF98146" begin="5180" fromJunction="J3" toJunction="J5" end="5240" vehsPerHour="120.36965229788439" departLane="free"/>
  <flow id="JF98147" begin="5180" fromJunction="J3" toJunction="J6" end="5240" vehsPerHour="132.54852103795054" departLane="free"/>
  <flow id="JF98148" begin="5180" fromJunction="J3" toJunction="J4" end="5240" vehsPerHour="40.86998991130561" departLane="free"/>
  <flow id="JF98149" begin="5180" fromJunction="J3" toJunction="J7" end="5240" vehsPerHour="93.48389416760921" departLane="free"/>
  <flow id="JF98150" begin="5180" fromJunction="J5" toJunction="J6" end="5240" vehsPerHour="32.32193103408567" departLane="free"/>
  <flow id="JF98151" begin="5180" fromJunction="J5" toJunction="J4" end="5240" vehsPerHour="59.79932007306423" departLane="free"/>
  <flow id="JF98152" begin="5180" fromJunction="J5" toJunction="J7" end="5240" vehsPerHour="54.981829018421216" departLane="free"/>
  <flow id="JF98153" begin="5180" fromJunction="J6" toJunction="J5" end="5240" vehsPerHour="18.68089452118627" departLane="free"/>
  <flow id="JF98154" begin="5180" fromJunction="J6" toJunction="J4" end="5240" vehsPerHour="55.462071297163384" departLane="free"/>
  <flow id="JF98155" begin="5180" fromJunction="J6" toJunction="J7" end="5240" vehsPerHour="44.10123544014175" departLane="free"/>
  <flow id="JF98156" begin="5180" fromJunction="J4" toJunction="J5" end="5240" vehsPerHour="55.65466881177398" departLane="free"/>
  <flow id="JF98157" begin="5180" fromJunction="J4" toJunction="J6" end="5240" vehsPerHour="54.03894348296735" departLane="free"/>
  <flow id="JF98158" begin="5180" fromJunction="J4" toJunction="J7" end="5240" vehsPerHour="56.67555440184589" departLane="free"/>
  <flow id="JF98159" begin="5180" fromJunction="J7" toJunction="J5" end="5240" vehsPerHour="50.60866893025583" departLane="free"/>
  <flow id="JF98160" begin="5180" fromJunction="J7" toJunction="J6" end="5240" vehsPerHour="17.305991639087114" departLane="free"/>
  <flow id="JF98161" begin="5180" fromJunction="J7" toJunction="J4" end="5240" vehsPerHour="21.892384880189706" departLane="free"/>
  <flow id="JF98162" begin="5180" fromJunction="J5" toJunction="J0" end="5240" vehsPerHour="56.51761428359571" departLane="free"/>
  <flow id="JF98163" begin="5180" fromJunction="J5" toJunction="J3" end="5240" vehsPerHour="54.34695475948057" departLane="free"/>
  <flow id="JF98164" begin="5180" fromJunction="J6" toJunction="J0" end="5240" vehsPerHour="30.555686950612625" departLane="free"/>
  <flow id="JF98165" begin="5180" fromJunction="J6" toJunction="J3" end="5240" vehsPerHour="3.494294820831478" departLane="free"/>
  <flow id="JF98166" begin="5180" fromJunction="J4" toJunction="J0" end="5240" vehsPerHour="9.98354556590465" departLane="free"/>
  <flow id="JF98167" begin="5180" fromJunction="J4" toJunction="J3" end="5240" vehsPerHour="6.825133961431253" departLane="free"/>
  <flow id="JF98168" begin="5180" fromJunction="J7" toJunction="J0" end="5240" vehsPerHour="12.493507482410081" departLane="free"/>
  <flow id="JF98169" begin="5180" fromJunction="J7" toJunction="J3" end="5240" vehsPerHour="22.36347259430473" departLane="free"/>
  <flow id="JF98170" begin="5240" fromJunction="J0" toJunction="J3" end="5300" vehsPerHour="94.17175505562284" departLane="free"/>
  <flow id="JF98171" begin="5240" fromJunction="J3" toJunction="J0" end="5300" vehsPerHour="87.7624552723634" departLane="free"/>
  <flow id="JF98172" begin="5240" fromJunction="J0" toJunction="J5" end="5300" vehsPerHour="1.4858869166193829" departLane="free"/>
  <flow id="JF98173" begin="5240" fromJunction="J0" toJunction="J6" end="5300" vehsPerHour="57.69863195103897" departLane="free"/>
  <flow id="JF98174" begin="5240" fromJunction="J0" toJunction="J4" end="5300" vehsPerHour="36.81963257299534" departLane="free"/>
  <flow id="JF98175" begin="5240" fromJunction="J0" toJunction="J7" end="5300" vehsPerHour="3.9342752714259417" departLane="free"/>
  <flow id="JF98176" begin="5240" fromJunction="J3" toJunction="J5" end="5300" vehsPerHour="19.06452546154504" departLane="free"/>
  <flow id="JF98177" begin="5240" fromJunction="J3" toJunction="J6" end="5300" vehsPerHour="98.90769453030268" departLane="free"/>
  <flow id="JF98178" begin="5240" fromJunction="J3" toJunction="J4" end="5300" vehsPerHour="84.21470352282861" departLane="free"/>
  <flow id="JF98179" begin="5240" fromJunction="J3" toJunction="J7" end="5300" vehsPerHour="121.77483929671321" departLane="free"/>
  <flow id="JF98180" begin="5240" fromJunction="J5" toJunction="J6" end="5300" vehsPerHour="60.81988678714788" departLane="free"/>
  <flow id="JF98181" begin="5240" fromJunction="J5" toJunction="J4" end="5300" vehsPerHour="3.4144588705402357" departLane="free"/>
  <flow id="JF98182" begin="5240" fromJunction="J5" toJunction="J7" end="5300" vehsPerHour="57.75249093557804" departLane="free"/>
  <flow id="JF98183" begin="5240" fromJunction="J6" toJunction="J5" end="5300" vehsPerHour="38.895544524859126" departLane="free"/>
  <flow id="JF98184" begin="5240" fromJunction="J6" toJunction="J4" end="5300" vehsPerHour="59.34081965496161" departLane="free"/>
  <flow id="JF98185" begin="5240" fromJunction="J6" toJunction="J7" end="5300" vehsPerHour="26.44557997429887" departLane="free"/>
  <flow id="JF98186" begin="5240" fromJunction="J4" toJunction="J5" end="5300" vehsPerHour="31.482671562939398" departLane="free"/>
  <flow id="JF98187" begin="5240" fromJunction="J4" toJunction="J6" end="5300" vehsPerHour="19.369409337304557" departLane="free"/>
  <flow id="JF98188" begin="5240" fromJunction="J4" toJunction="J7" end="5300" vehsPerHour="52.80176693037095" departLane="free"/>
  <flow id="JF98189" begin="5240" fromJunction="J7" toJunction="J5" end="5300" vehsPerHour="37.82509447775242" departLane="free"/>
  <flow id="JF98190" begin="5240" fromJunction="J7" toJunction="J6" end="5300" vehsPerHour="54.368405644786314" departLane="free"/>
  <flow id="JF98191" begin="5240" fromJunction="J7" toJunction="J4" end="5300" vehsPerHour="51.895128705333555" departLane="free"/>
  <flow id="JF98192" begin="5240" fromJunction="J5" toJunction="J0" end="5300" vehsPerHour="26.44419590138891" departLane="free"/>
  <flow id="JF98193" begin="5240" fromJunction="J5" toJunction="J3" end="5300" vehsPerHour="22.00599480154449" departLane="free"/>
  <flow id="JF98194" begin="5240" fromJunction="J6" toJunction="J0" end="5300" vehsPerHour="65.72979401159495" departLane="free"/>
  <flow id="JF98195" begin="5240" fromJunction="J6" toJunction="J3" end="5300" vehsPerHour="34.612444814242835" departLane="free"/>
  <flow id="JF98196" begin="5240" fromJunction="J4" toJunction="J0" end="5300" vehsPerHour="54.49587636349398" departLane="free"/>
  <flow id="JF98197" begin="5240" fromJunction="J4" toJunction="J3" end="5300" vehsPerHour="50.931457571365726" departLane="free"/>
  <flow id="JF98198" begin="5240" fromJunction="J7" toJunction="J0" end="5300" vehsPerHour="9.642616418214011" departLane="free"/>
  <flow id="JF98199" begin="5240" fromJunction="J7" toJunction="J3" end="5300" vehsPerHour="37.15048226486012" departLane="free"/>
  <flow id="JF98200" begin="5300" fromJunction="J0" toJunction="J3" end="5360" vehsPerHour="117.72557722899349" departLane="free"/>
  <flow id="JF98201" begin="5300" fromJunction="J3" toJunction="J0" end="5360" vehsPerHour="128.99904753439262" departLane="free"/>
  <flow id="JF98202" begin="5300" fromJunction="J0" toJunction="J5" end="5360" vehsPerHour="25.677383611543647" departLane="free"/>
  <flow id="JF98203" begin="5300" fromJunction="J0" toJunction="J6" end="5360" vehsPerHour="62.696850806925056" departLane="free"/>
  <flow id="JF98204" begin="5300" fromJunction="J0" toJunction="J4" end="5360" vehsPerHour="90.16775141352312" departLane="free"/>
  <flow id="JF98205" begin="5300" fromJunction="J0" toJunction="J7" end="5360" vehsPerHour="84.40471059756376" departLane="free"/>
  <flow id="JF98206" begin="5300" fromJunction="J3" toJunction="J5" end="5360" vehsPerHour="25.07627125290137" departLane="free"/>
  <flow id="JF98207" begin="5300" fromJunction="J3" toJunction="J6" end="5360" vehsPerHour="99.23517741189919" departLane="free"/>
  <flow id="JF98208" begin="5300" fromJunction="J3" toJunction="J4" end="5360" vehsPerHour="63.725170860923825" departLane="free"/>
  <flow id="JF98209" begin="5300" fromJunction="J3" toJunction="J7" end="5360" vehsPerHour="136.6248631172692" departLane="free"/>
  <flow id="JF98210" begin="5300" fromJunction="J5" toJunction="J6" end="5360" vehsPerHour="3.3501843000479767" departLane="free"/>
  <flow id="JF98211" begin="5300" fromJunction="J5" toJunction="J4" end="5360" vehsPerHour="27.473973537021287" departLane="free"/>
  <flow id="JF98212" begin="5300" fromJunction="J5" toJunction="J7" end="5360" vehsPerHour="21.902559181728886" departLane="free"/>
  <flow id="JF98213" begin="5300" fromJunction="J6" toJunction="J5" end="5360" vehsPerHour="19.789942159851044" departLane="free"/>
  <flow id="JF98214" begin="5300" fromJunction="J6" toJunction="J4" end="5360" vehsPerHour="35.800431698101775" departLane="free"/>
  <flow id="JF98215" begin="5300" fromJunction="J6" toJunction="J7" end="5360" vehsPerHour="6.763063367192662" departLane="free"/>
  <flow id="JF98216" begin="5300" fromJunction="J4" toJunction="J5" end="5360" vehsPerHour="56.492990280476846" departLane="free"/>
  <flow id="JF98217" begin="5300" fromJunction="J4" toJunction="J6" end="5360" vehsPerHour="67.79759819613726" departLane="free"/>
  <flow id="JF98218" begin="5300" fromJunction="J4" toJunction="J7" end="5360" vehsPerHour="3.0095176136735353" departLane="free"/>
  <flow id="JF98219" begin="5300" fromJunction="J7" toJunction="J5" end="5360" vehsPerHour="39.78191957850826" departLane="free"/>
  <flow id="JF98220" begin="5300" fromJunction="J7" toJunction="J6" end="5360" vehsPerHour="28.958328538244487" departLane="free"/>
  <flow id="JF98221" begin="5300" fromJunction="J7" toJunction="J4" end="5360" vehsPerHour="46.629018984518154" departLane="free"/>
  <flow id="JF98222" begin="5300" fromJunction="J5" toJunction="J0" end="5360" vehsPerHour="6.643424913502506" departLane="free"/>
  <flow id="JF98223" begin="5300" fromJunction="J5" toJunction="J3" end="5360" vehsPerHour="55.653678164476005" departLane="free"/>
  <flow id="JF98224" begin="5300" fromJunction="J6" toJunction="J0" end="5360" vehsPerHour="23.88119602699954" departLane="free"/>
  <flow id="JF98225" begin="5300" fromJunction="J6" toJunction="J3" end="5360" vehsPerHour="34.60196334430914" departLane="free"/>
  <flow id="JF98226" begin="5300" fromJunction="J4" toJunction="J0" end="5360" vehsPerHour="68.13703844079805" departLane="free"/>
  <flow id="JF98227" begin="5300" fromJunction="J4" toJunction="J3" end="5360" vehsPerHour="56.91030592418549" departLane="free"/>
  <flow id="JF98228" begin="5300" fromJunction="J7" toJunction="J0" end="5360" vehsPerHour="28.720885423885093" departLane="free"/>
  <flow id="JF98229" begin="5300" fromJunction="J7" toJunction="J3" end="5360" vehsPerHour="14.703849696015805" departLane="free"/>
  <flow id="JF98230" begin="5360" fromJunction="J0" toJunction="J3" end="5420" vehsPerHour="119.9644125339858" departLane="free"/>
  <flow id="JF98231" begin="5360" fromJunction="J3" toJunction="J0" end="5420" vehsPerHour="3.836241098585705" departLane="free"/>
  <flow id="JF98232" begin="5360" fromJunction="J0" toJunction="J5" end="5420" vehsPerHour="67.48423765242404" departLane="free"/>
  <flow id="JF98233" begin="5360" fromJunction="J0" toJunction="J6" end="5420" vehsPerHour="119.79366003043839" departLane="free"/>
  <flow id="JF98234" begin="5360" fromJunction="J0" toJunction="J4" end="5420" vehsPerHour="59.436026952937716" departLane="free"/>
  <flow id="JF98235" begin="5360" fromJunction="J0" toJunction="J7" end="5420" vehsPerHour="53.00434083346539" departLane="free"/>
  <flow id="JF98236" begin="5360" fromJunction="J3" toJunction="J5" end="5420" vehsPerHour="44.738031758977705" departLane="free"/>
  <flow id="JF98237" begin="5360" fromJunction="J3" toJunction="J6" end="5420" vehsPerHour="0.47445165223445745" departLane="free"/>
  <flow id="JF98238" begin="5360" fromJunction="J3" toJunction="J4" end="5420" vehsPerHour="111.63799907474171" departLane="free"/>
  <flow id="JF98239" begin="5360" fromJunction="J3" toJunction="J7" end="5420" vehsPerHour="13.251962500337502" departLane="free"/>
  <flow id="JF98240" begin="5360" fromJunction="J5" toJunction="J6" end="5420" vehsPerHour="46.995719716261384" departLane="free"/>
  <flow id="JF98241" begin="5360" fromJunction="J5" toJunction="J4" end="5420" vehsPerHour="40.40087646672814" departLane="free"/>
  <flow id="JF98242" begin="5360" fromJunction="J5" toJunction="J7" end="5420" vehsPerHour="55.69653349878849" departLane="free"/>
  <flow id="JF98243" begin="5360" fromJunction="J6" toJunction="J5" end="5420" vehsPerHour="46.36315019576279" departLane="free"/>
  <flow id="JF98244" begin="5360" fromJunction="J6" toJunction="J4" end="5420" vehsPerHour="45.73563622955007" departLane="free"/>
  <flow id="JF98245" begin="5360" fromJunction="J6" toJunction="J7" end="5420" vehsPerHour="60.646538442968954" departLane="free"/>
  <flow id="JF98246" begin="5360" fromJunction="J4" toJunction="J5" end="5420" vehsPerHour="0.9109346144326651" departLane="free"/>