<?xml version="1.0" encoding="UTF-8"?>
<routes xmlns:xsi="http://www.w3.org/2001/XMLSchema-instance" xsi:noNamespaceSchemaLocation="http://sumo.dlr.de/xsd/routes_file.xsd">
  <flow id="JF95980" begin="0" fromJunction="J0" toJunction="J3" end="5000" vehsPerHour="10.262561343689251" departLane="free"/>
  <flow id="JF95981" begin="0" fromJunction="J3" toJunction="J0" end="5000" vehsPerHour="97.57437899445338" departLane="free"/>
  <flow id="JF95982" begin="0" fromJunction="J0" toJunction="J5" end="5000" vehsPerHour="109.14586613176006" departLane="free"/>
  <flow id="JF95983" begin="0" fromJunction="J0" toJunction="J6" end="5000" vehsPerHour="396.8777980789998" departLane="free"/>
  <flow id="JF95984" begin="0" fromJunction="J0" toJunction="J4" end="5000" vehsPerHour="249.0239837316063" departLane="free"/>
  <flow id="JF95985" begin="0" fromJunction="J0" toJunction="J7" end="5000" vehsPerHour="267.27601681056973" departLane="free"/>
  <flow id="JF95986" begin="0" fromJunction="J3" toJunction="J5" end="5000" vehsPerHour="1.1464106833974723" departLane="free"/>
  <flow id="JF95987" begin="0" fromJunction="J3" toJunction="J6" end="5000" vehsPerHour="156.45287252398813" departLane="free"/>
  <flow id="JF95988" begin="0" fromJunction="J3" toJunction="J4" end="5000" vehsPerHour="325.27599695818867" departLane="free"/>
  <flow id="JF95989" begin="0" fromJunction="J3" toJunction="J7" end="5000" vehsPerHour="217.8864011157462" departLane="free"/>
  <flow id="JF95990" begin="0" fromJunction="J5" toJunction="J6" end="5000" vehsPerHour="40.98689110727562" departLane="free"/>
  <flow id="JF95991" begin="0" fromJunction="J5" toJunction="J4" end="5000" vehsPerHour="52.76879524199409" departLane="free"/>
  <flow id="JF95992" begin="0" fromJunction="J5" toJunction="J7" end="5000" vehsPerHour="20.12634702594478" departLane="free"/>
  <flow id="JF95993" begin="0" fromJunction="J6" toJunction="J5" end="5000" vehsPerHour="43.16099778313619" departLane="free"/>
  <flow id="JF95994" begin="0" fromJunction="J6" toJunction="J4" end="5000" vehsPerHour="20.551019567669375" departLane="free"/>
  <flow id="JF95995" begin="0" fromJunction="J6" toJunction="J7" end="5000" vehsPerHour="26.598056104563735" departLane="free"/>
  <flow id="JF95996" begin="0" fromJunction="J4" toJunction="J5" end="5000" vehsPerHour="19.68508880059355" departLane="free"/>
  <flow id="JF95997" begin="0" fromJunction="J4" toJunction="J6" end="5000" vehsPerHour="12.83236551989668" departLane="free"/>
  <flow id="JF95998" begin="0" fromJunction="J4" toJunction="J7" end="5000" vehsPerHour="16.99596942918314" departLane="free"/>
  <flow id="JF95999" begin="0" fromJunction="J7" toJunction="J5" end="5000" vehsPerHour="34.1428895455604" departLane="free"/>
  <flow id="JF96000" begin="0" fromJunction="J7" toJunction="J6" end="5000" vehsPerHour="52.21366330544034" departLane="free"/>
  <flow id="JF96001" begin="0" fromJunction="J7" toJunction="J4" end="5000" vehsPerHour="15.164033391154577" departLane="free"/>
  <flow id="JF96002" begin="0" fromJunction="J5" toJunction="J0" end="5000" vehsPerHour="55.988857801527836" departLane="free"/>
  <flow id="JF96003" begin="0" fromJunction="J5" toJunction="J3" end="5000" vehsPerHour="134.22490406835277" departLane="free"/>
  <flow id="JF96004" begin="0" fromJunction="J6" toJunction="J0" end="5000" vehsPerHour="91.33498440441842" departLane="free"/>
  <flow id="JF96005" begin="0" fromJunction="J6" toJunction="J3" end="5000" vehsPerHour="234.45133503161344" departLane="free"/>
  <flow id="JF96006" begin="0" fromJunction="J4" toJunction="J0" end="5000" vehsPerHour="149.49835922375647" departLane="free"/>
  <flow id="JF96007" begin="0" fromJunction="J4" toJunction="J3" end="5000" vehsPerHour="238.83964390635356" departLane="free"/>
  <flow id="JF96008" begin="0" fromJunction="J7" toJunction="J0" end="5000" vehsPerHour="104.41632533755865" departLane="free"/>
  <flow id="JF96009" begin="0" fromJunction="J7" toJunction="J3" end="5000" vehsPerHour="239.10305566255855" departLane="free"/>
  <flow id="JF96010" begin="5000" fromJunction="J0" toJunction="J3" end="5060" vehsPerHour="84.53274133844697" departLane="free"/>
  <flow id="JF96011" begin="5000" fromJunction="J3" toJunction="J0" end="5060" vehsPerHour="48.99305386453654" departLane="free"/>
  <flow id="JF96012" begin="5000" fromJunction="J0" toJunction="J5" end="5060" vehsPerHour="100.04127194239392" departLane="free"/>
  <flow id="JF96013" begin="5000" fromJunction="J0" toJunction="J6" end="5060" vehsPerHour="29.626361124062367" departLane="free"/>
  <flow id="JF96014" begin="5000" fromJunction="J0" toJunction="J4" end="5060" vehsPerHour="66.3354611403591" departLane="free"/>
  <flow id="JF96015" begin="5000" fromJunction="J0" toJunction="J7" end="5060" vehsPerHour="9.925102382347673" departLane="free"/>
  <flow id="JF96016" begin="5000" fromJunction="J3" toJunction="J5" end="5060" vehsPerHour="42.236775774992694" departLane="free"/>
  <flow id="JF96017" begin="5000" fromJunction="J3" toJunction="J6" end="5060" vehsPerHour="57.42066403581536" departLane="free"/>
  <flow id="JF96018" begin="5000" fromJunction="J3" toJunction="J4" end="5060" vehsPerHour="100.24903631131772" departLane="free"/>
  <flow id="JF96019" begin="5000" fromJunction="J3" toJunction="J7" end="5060" vehsPerHour="9.072383417241904" departLane="free"/>
  <flow id="JF96020" begin="5000" fromJunction="J5" toJunction="J6" end="5060" vehsPerHour="23.87409014243541" departLane="free"/>
  <flow id="JF96021" begin="5000" fromJunction="J5" toJunction="J4" end="5060" vehsPerHour="58.058482112828294" departLane="free"/>
  <flow id="JF96022" begin="5000" fromJunction="J5" toJunction="J7" end="5060" vehsPerHour="2.609278289155727" departLane="free"/>
  <flow id="JF96023" begin="5000" fromJunction="J6" toJunction="J5" end="5060" vehsPerHour="44.43670252682447" departLane="free"/>
  <flow id="JF96024" begin="5000" fromJunction="J6" toJunction="J4" end="5060" vehsPerHour="25.010452399903887" departLane="free"/>
  <flow id="JF96025" begin="5000" fromJunction="J6" toJunction="J7" end="5060" vehsPerHour="52.59553322672082" departLane="free"/>
  <flow id="JF96026" begin="5000" fromJunction="J4" toJunction="J5" end="5060" vehsPerHour="31.83369209994509" departLane="free"/>
  <flow id="JF96027" begin="5000" fromJunction="J4" toJunction="J6" end="5060" vehsPerHour="21.5341069008736" departLane="free"/>
  <flow id="JF96028" begin="5000" fromJunction="J4" toJunction="J7" end="5060" vehsPerHour="34.783129123017865" departLane="free"/>
  <flow id="JF96029" begin="5000" fromJunction="J7" toJunction="J5" end="5060" vehsPerHour="42.29091226192135" departLane="free"/>
  <flow id="JF96030" begin="5000" fromJunction="J7" toJunction="J6" end="5060" vehsPerHour="6.799436725015714" departLane="free"/>
  <flow id="JF96031" begin="5000" fromJunction="J7" toJunction="J4" end="5060" vehsPerHour="64.56113206293399" departLane="free"/>
  <flow id="JF96032" begin="5000" fromJunction="J5" toJunction="J0" end="5060" vehsPerHour="30.275998049283736" departLane="free"/>
  <flow id="JF96033" begin="5000" fromJunction="J5" toJunction="J3" end="5060" vehsPerHour="7.067993051745592" departLane="free"/>
  <flow id="JF96034" begin="5000" fromJunction="J6" toJunction="J0" end="5060" vehsPerHour="6.29314297350671" departLane="free"/>
  <flow id="JF96035" begin="5000" fromJunction="J6" toJunction="J3" end="5060" vehsPerHour="18.582631328260124" departLane="free"/>
  <flow id="JF96036" begin="5000" fromJunction="J4" toJunction="J0" end="5060" vehsPerHour="16.46501561859048" departLane="free"/>
  <flow id="JF96037" begin="5000" fromJunction="J4" toJunction="J3" end="5060" vehsPerHour="3.421418238079082" departLane="free"/>
  <flow id="JF96038" begin="5000" fromJunction="J7" toJunction="J0" end="5060" vehsPerHour="10.146527397536936" departLane="free"/>
  <flow id="JF96039" begin="5000" fromJunction="J7" toJunction="J3" end="5060" vehsPerHour="34.956223694861066" departLane="free"/>
  <flow id="JF96040" begin="5060" fromJunction="J0" toJunction="J3" end="5120" vehsPerHour="103.40405991528206" departLane="free"/>
  <flow id="JF96041" begin="5060" fromJunction="J3" toJunction="J0" end="5120" vehsPerHour="24.780226280380013" departLane="free"/>
  <flow id="JF96042" begin="5060" fromJunction="J0" toJunction="J5" end="5120" vehsPerHour="25.567214543447523" departLane="free"/>
  <flow id="JF96043" begin="5060" fromJunction="J0" toJunction="J6" end="5120" vehsPerHour="118.68822542219372" departLane="free"/>
  <flow id="JF96044" begin="5060" fromJunction="J0" toJunction="J4" end="5120" vehsPerHour="88.00281066557761" departLane="free"/>
  <flow id="JF96045" begin="5060" fromJunction="J0" toJunction="J7" end="5120" vehsPerHour="66.25257040994018" departLane="free"/>
  <flow id="JF96046" begin="5060" fromJunction="J3" toJunction="J5" end="5120" vehsPerHour="127.0691902249492" departLane="free"/>
  <flow id="JF96047" begin="5060" fromJunction="J3" toJunction="J6" end="5120" vehsPerHour="21.664728578331307" departLane="free"/>
  <flow id="JF96048" begin="5060" fromJunction="J3" toJunction="J4" end="5120" vehsPerHour="95.63309137995498" departLane="free"/>
  <flow id="JF96049" begin="5060" fromJunction="J3" toJunction="J7" end="5120" vehsPerHour="65.11891340302154" departLane="free"/>
  <flow id="JF96050" begin="5060" fromJunction="J5" toJunction="J6" end="5120" vehsPerHour="66.95757396887734" departLane="free"/>
  <flow id="JF96051" begin="5060" fromJunction="J5" toJunction="J4" end="5120" vehsPerHour="44.65677846142381" departLane="free"/>
  <flow id="JF96052" begin="5060" fromJunction="J5" toJunction="J7" end="5120" vehsPerHour="17.9995209206427" departLane="free"/>
  <flow id="JF96053" begin="5060" fromJunction="J6" toJunction="J5" end="5120" vehsPerHour="27.696456571257066" departLane="free"/>
  <flow id="JF96054" begin="5060" fromJunction="J6" toJunction="J4" end="5120" vehsPerHour="25.09110392490754" departLane="free"/>
  <flow id="JF96055" begin="5060" fromJunction="J6" toJunction="J7" end="5120" vehsPerHour="39.51397334363698" departLane="free"/>
  <flow id="JF96056" begin="5060" fromJunction="J4" toJunction="J5" end="5120" vehsPerHour="18.684866551974192" departLane="free"/>
  <flow id="JF96057" begin="5060" fromJunction="J4" toJunction="J6" end="5120" vehsPerHour="42.63488138937673" departLane="free"/>
  <flow id="JF96058" begin="5060" fromJunction="J4" toJunction="J7" end="5120" vehsPerHour="5.703253017080004" departLane="free"/>
  <flow id="JF96059" begin="5060" fromJunction="J7" toJunction="J5" end="5120" vehsPerHour="3.3738605678751723" departLane="free"/>
  <flow id="JF96060" begin="5060" fromJunction="J7" toJunction="J6" end="5120" vehsPerHour="1.4965176974401855" departLane="free"/>
  <flow id="JF96061" begin="5060" fromJunction="J7" toJunction="J4" end="5120" vehsPerHour="3.2311786653716887" departLane="free"/>
  <flow id="JF96062" begin="5060" fromJunction="J5" toJunction="J0" end="5120" vehsPerHour="36.80995650152355" departLane="free"/>
  <flow id="JF96063" begin="5060" fromJunction="J5" toJunction="J3" end="5120" vehsPerHour="30.15336146906465" departLane="free"/>
  <flow id="JF96064" begin="5060" fromJunction="J6" toJunction="J0" end="5120" vehsPerHour="65.6836606426585" departLane="free"/>
  <flow id="JF96065" begin="5060" fromJunction="J6" toJunction="J3" end="5120" vehsPerHour="12.707159879752577" departLane="free"/>
  <flow id="JF96066" begin="5060" fromJunction="J4" toJunction="J0" end="5120" vehsPerHour="56.45442219710944" departLane="free"/>
  <flow id="JF96067" begin="5060" fromJunction="J4" toJunction="J3" end="5120" vehsPerHour="37.93881655219601" departLane="free"/>
  <flow id="JF96068" begin="5060" fromJunction="J7" toJunction="J0" end="5120" vehsPerHour="56.91519688783976" departLane="free"/>
  <flow id="JF96069" begin="5060" fromJunction="J7" toJunction="J3" end="5120" vehsPerHour="35.23024311092442" departLane="free"/>
  <flow id="JF96070" begin="5120" fromJunction="J0" toJunction="J3" end="5180" vehsPerHour="13.31682756240521" departLane="free"/>
  <flow id="JF96071" begin="5120" fromJunction="J3" toJunction="J0" end="5180" vehsPerHour="115.05943350991144" departLane="free"/>
  <flow id="JF96072" begin="5120" fromJunction="J0" toJunction="J5" end="5180" vehsPerHour="121.7244793626119" departLane="free"/>
  <flow id="JF96073" begin="5120" fromJunction="J0" toJunction="J6" end="5180" vehsPerHour="56.54858148973705" departLane="free"/>
  <flow id="JF96074" begin="5120" fromJunction="J0" toJunction="J4" end="5180" vehsPerHour="82.45585804600576" departLane="free"/>
  <flow id="JF96075" begin="5120" fromJunction="J0" toJunction="J7" end="5180" vehsPerHour="28.419889683266145" departLane="free"/>
  <flow id="JF96076" begin="5120" fromJunction="J3" toJunction="J5" end="5180" vehsPerHour="58.72963621873162" departLane="free"/>
  <flow id="JF96077" begin="5120" fromJunction="J3" toJunction="J6" end="5180" vehsPerHour="36.7197277792709" departLane="free"/>
  <flow id="JF96078" begin="5120" fromJunction="J3" toJunction="J4" end="5180" vehsPerHour="127.26455400591523" departLane="free"/>
  <flow id="JF96079" begin="5120" fromJunction="J3" toJunction="J7" end="5180" vehsPerHour="21.409011148795546" departLane="free"/>
  <flow id="JF96080" begin="5180" fromJunction="J0" toJunction="J3" end="5240" vehsPerHour="29.528686607272974" departLane="free"/>
  <flow id="JF96081" begin="5180" fromJunction="J3" toJunction="J0" end="5240" vehsPerHour="116.75161078248829" departLane="free"/>
  <flow id="JF96082" begin="5180" fromJunction="J0" toJunction="J5" end="5240" vehsPerHour="130.07179705493277" departLane="free"/>
  <flow id="JF96083" begin="5180" fromJunction="J0" toJunction="J6" end="5240" vehsPerHour="46.73758308022609" departLane="free"/>
  <flow id="JF96084" begin="5180" fromJunction="J0" toJunction="J4" end="5240" vehsPerHour="7.812770807211446" departLane="free"/>
  <flow id="JF96085" begin="5180" fromJunction="J0" toJunction="J7" end="5240" vehsPerHour="48.865464260379824" departLane="free"/>
  <flow id="JF96086" begin="5180" fromJunction="J3" toJunction="J5" end="5240" vehsPerHour="85.08321870983444" departLane="free"/>
  <flow id="JF96087" begin="5180" fromJunction="J3" toJunction="J6" end="5240" vehsPerHour="101.94947484979384" departLane="free"/>
  <flow id="JF96088" begin="5180" fromJunction="J3" toJunction="J4" end="5240" vehsPerHour="6.33923467802103" departLane="free"/>
  <flow id="JF96089" begin="5180" fromJunction="J3" toJunction="J7" end="5240" vehsPerHour="57.00935701467504" departLane="free"/>
  <flow id="JF96090" begin="5180" fromJunction="J5" toJunction="J6" end="5240" vehsPerHour="24.27973486637359" departLane="free"/>
  <flow id="JF96091" begin="5180" fromJunction="J5" toJunction="J4" end="5240" vehsPerHour="59.044289238897285" departLane="free"/>
  <flow id="JF96092" begin="5180" fromJunction="J5" toJunction="J7" end="5240" vehsPerHour="62.49141154997073" departLane="free"/>
  <flow id="JF96093" begin="5180" fromJunction="J6" toJunction="J5" end="5240" vehsPerHour="20.644190705679684" departLane="free"/>
  <flow id="JF96094" begin="5180" fromJunction="J6" toJunction="J4" end="5240" vehsPerHour="55.20636484119262" departLane="free"/>
  <flow id="JF96095" begin="5180" fromJunction="J6" toJunction="J7" end="5240" vehsPerHour="16.258582233401263" departLane="free"/>
  <flow id="JF96096" begin="5180" fromJunction="J4" toJunction="J5" end="5240" vehsPerHour="60.724041824111836" departLane="free"/>
  <flow id="JF96097" begin="5180" fromJunction="J4" toJunction="J6" end="5240" vehsPerHour="59.885985945951134" departLane="free"/>
  <flow id="JF96098" begin="5180" fromJunction="J4" toJunction="J7" end="5240" vehsPerHour="28.993686818099473" departLane="free"/>
  <flow id="JF96099" begin="5180" fromJunction="J7" toJunction="J5" end="5240" vehsPerHour="65.4905282479849" departLane="free"/>
  <flow id="JF96100" begin="5180" fromJunction="J7" toJunction="J6" end="5240" vehsPerHour="36.1612559482008" departLane="free"/>
  <flow id="JF96101" begin="5180" fromJunction="J7" toJunction="J4" end="5240" vehsPerHour="22.240625144701635" departLane="free"/>
  <flow id="JF96102" begin="5180" fromJunction="J5" toJunction="J0" end="5240" vehsPerHour="47.7702656965889" departLane="free"/>
  <flow id="JF96103" begin="5180" fromJunction="J5" toJunction="J3" end="5240" vehsPerHour="32.84228898173918" departLane="free"/>
  <flow id="JF96104" begin="5180" fromJunction="J6" toJunction="J0" end="5240" vehsPerHour="63.93020333059483" departLane="free"/>
  <flow id="JF96105" begin="5180" fromJunction="J6" toJunction="J3" end="5240" vehsPerHour="60.25827708669525" departLane="free"/>
  <flow id="JF96106" begin="5180" fromJunction="J4" toJunction="J0" end="5240" vehsPerHour="1.8179850288941415" departLane="free"/>
  <flow id="JF96107" begin="5180" fromJunction="J4" toJunction="J3" end="5240" vehsPerHour="32.479426344035524" departLane="free"/>
  <flow id="JF96108" begin="5180" fromJunction="J7" toJunction="J0" end="5240" vehsPerHour="26.380660395846068" departLane="free"/>
  <flow id="JF96109" begin="5180" fromJunction="J7" toJunction="J3" end="5240" vehsPerHour="67.70023081160376" departLane="free"/>
  <flow id="JF96110" begin="5240" fromJunction="J0" toJunction="J3" end="5300" vehsPerHour="47.41112771351278" departLane="free"/>
  <flow id="JF96111" begin="5240" fromJunction="J3" toJunction="J0" end="5300" vehsPerHour="21.719481118615942" departLane="free"/>
  <flow id="JF96112" begin="5240" fromJunction="J0" toJunction="J5" end="5300" vehsPerHour="48.46191699949545" departLane="free"/>
  <flow id="JF96113" begin="5240" fromJunction="J0" toJunction="J6" end="5300" vehsPerHour="38.13781173268653" departLane="free"/>
  <flow id="JF96114" begin="5240" fromJunction="J0" toJunction="J4" end="5300" vehsPerHour="90.19480970904254" departLane="free"/>
  <flow id="JF96115" begin="5240" fromJunction="J0" toJunction="J7" end="5300" vehsPerHour="127.20584484551006" departLane="free"/>
  <flow id="JF96116" begin="5240" fromJunction="J3" toJunction="J5" end="5300" vehsPerHour="118.11932745412948" departLane="free"/>
  <flow id="JF96117" begin="5240" fromJunction="J3" toJunction="J6" end="5300" vehsPerHour="120.88168439168057" departLane="free"/>
  <flow id="JF96118" begin="5240" fromJunction="J3" toJunction="J4" end="5300" vehsPerHour="9.152448777343555" departLane="free"/>
  <flow id="JF96119" begin="5240" fromJunction="J3" toJunction="J7" end="5300" vehsPerHour="77.55270400389054" departLane="free"/>
  <flow id="JF96120" begin="5240" fromJunction="J5" toJunction="J6" end="5300" vehsPerHour="40.73482229376027" departLane="free"/>
  <flow id="JF96121" begin="5240" fromJunction="J5" toJunction="J4" end="5300" vehsPerHour="55.695130984030264" departLane="free"/>
  <flow id="JF96122" begin="5240" fromJunction="J5" toJunction="J7" end="5300" vehsPerHour="41.39688405744141" departLane="free"/>
  <flow id="JF96123" begin="5240" fromJunction="J6" toJunction="J5" end="5300" vehsPerHour="12.717552441728097" departLane="free"/>
  <flow id="JF96124" begin="5240" fromJunction="J6" toJunction="J4" end="5300" vehsPerHour="6.638054560832681" departLane="free"/>
  <flow id="JF96125" begin="5240" fromJunction="J6" toJunction="J7" end="5300" vehsPerHour="61.5354664369471" departLane="free"/>
  <flow id="JF96126" begin="5240" fromJunction="J4" toJunction="J5" end="5300" vehsPerHour="41.99810098539309" departLane="free"/>
  <flow id="JF96127" begin="5240" fromJunction="J4" toJunction="J6" end="5300" vehsPerHour="10.224518502850621" departLane="free"/>
  <flow id="JF96128" begin="5240" fromJunction="J4" toJunction="J7" end="5300" vehsPerHour="9.022508467791916" departLane="free"/>
  <flow id="JF96129" begin="5240" fromJunction="J7" toJunction="J5" end="5300" vehsPerHour="27.066684384051925" departLane="free"/>
  <flow id="JF96130" begin="5240" fromJunction="J7" toJunction="J6" end="5300" vehsPerHour="54.71332796651237" departLane="free"/>
  <flow id="JF96131" begin="5240" fromJunction="J7" toJunction="J4" end="5300" vehsPerHour="49.78201952523706" departLane="free"/>
  <flow id="JF96132" begin="5240" fromJunction="J5" toJunction="J0" end="5300" vehsPerHour="60.08742210914829" departLane="free"/>
  <flow id="JF96133" begin="5240" fromJunction="J5" toJunction="J3" end="5300" vehsPerHour="54.95816149669356" departLane="free"/>
  <flow id="JF96134" begin="5240" fromJunction="J6" toJunction="J0" end="5300" vehsPerHour="63.47458438254106" departLane="free"/>
  <flow id="JF96135" begin="5240" fromJunction="J6" toJunction="J3" end="5300" vehsPerHour="66.58202613840261" departLane="free"/>
  <flow id="JF96136" begin="5240" fromJunction="J4" toJunction="J0" end="5300" vehsPerHour="7.668561082283499" departLane="free"/>
  <flow id="JF96137" begin="5240" fromJunction="J4" toJunction="J3" end="5300" vehsPerHour="25.97478042227898" departLane="free"/>
  <flow id="JF96138" begin="5240" fromJunction="J7" toJunction="J0" end="5300" vehsPerHour="24.903108309422176" departLane="free"/>
  <flow id="JF96139" begin="5240" fromJunction="J7" toJunction="J3" end="5300" vehsPerHour="11.505932440483077" departLane="free"/>
  <flow id="JF96140" begin="5300" fromJunction="J0" toJunction="J3" end="5360" vehsPerHour="104.31922775775398" departLane="free"/>
  <flow id="JF96141" begin="5300" fromJunction="J3" toJunction="J0" end="5360" vehsPerHour="48.332042557364154" departLane="free"/>
  <flow id="JF96142" begin="5300" fromJunction="J0" toJunction="J5" end="5360" vehsPerHour="88.6238549154859" departLane="free"/>
  <flow id="JF96143" begin="5300" fromJunction="J0" toJunction="J6" end="5360" vehsPerHour="90.77405394727249" departLane="free"/>
  <flow id="JF96144" begin="5300" fromJunction="J0" toJunction="J4" end="5360" vehsPerHour="67.19583729708461" departLane="free"/>
  <flow id="JF96145" begin="5300" fromJunction="J0" toJunction="J7" end="5360" vehsPerHour="106.55517386024931" departLane="free"/>
  <flow id="JF96146" begin="5300" fromJunction="J3" toJunction="J5" end="5360" vehsPerHour="39.17018417237397" departLane="free"/>
  <flow id="JF96147" begin="5300" fromJunction="J3" toJunction="J6" end="5360" vehsPerHour="74.8153793056462" departLane="free"/>
  <flow id="JF96148" begin="5300" fromJunction="J3" toJunction="J4" end="5360" vehsPerHour="116.12635355645108" departLane="free"/>
  <flow id="JF96149" begin="5300" fromJunction="J3" toJunction="J7" end="5360" vehsPerHour="48.0708390175293" departLane="free"/>
  <flow id="JF96150" begin="5300" fromJunction="J5" toJunction="J6" end="5360" vehsPerHour="13.956918457352828" departLane="free"/>
  <flow id="JF96151" begin="5300" fromJunction="J5" toJunction="J4" end="5360" vehsPerHour="46.84447350617321" departLane="free"/>
  <flow id="JF96152" begin="5300" fromJunction="J5" toJunction="J7" end="5360" vehsPerHour="28.40441869141442" departLane="free"/>
  <flow id="JF96153" begin="5300" fromJunction="J6" toJunction="J5" end="5360" vehsPerHour="33.72238140093089" departLane="free"/>
  <flow id="JF96154" begin="5300" fromJunction="J6" toJunction="J4" end="5360" vehsPerHour="2.458649116803286" departLane="free"/>
  <flow id="JF96155" begin="5300" fromJunction="J6" toJunction="J7" end="5360" vehsPerHour="20.22767111415444" departLane="free"/>
  <flow id="JF96156" begin="5300" fromJunction="J4" toJunction="J5" end="5360" vehsPerHour="35.40865601971072" departLane="free"/>
  <flow id="JF96157" begin="5300" fromJunction="J4" toJunction="J6" end="5360" vehsPerHour="5.731246299988231" departLane="free"/>
  <flow id="JF96158" begin="5300" fromJunction="J4" toJunction="J7" end="5360" vehsPerHour="48.659559201790195" departLane="free"/>
  <flow id="JF96159" begin="5300" fromJunction="J7" toJunction="J5" end="5360" vehsPerHour="38.99522817483474" departLane="free"/>
  <flow id="JF96160" begin="5300" fromJunction="J7" toJunction="J6" end="5360" vehsPerHour="41.54737069813808" departLane="free"/>
  <flow id="JF96161" begin="5300" fromJunction="J7" toJunction="J4" end="5360" vehsPerHour="53.903988303314165" departLane="free"/>
  <flow id="JF96162" begin="5300" fromJunction="J5" toJunction="J0" end="5360" vehsPerHour="65.01157031082457" departLane="free"/>
  <flow id="JF96163" begin="5300" fromJunction="J5" toJunction="J3" end="5360" vehsPerHour="13.311656130340147" departLane="free"/>
  <flow id="JF96164" begin="5300" fromJunction="J6" toJunction="J0" end="5360" vehsPerHour="37.41582739623638" departLane="free"/>
  <flow id="JF96165" begin="5300" fromJunction="J6" toJunction="J3" end="5360" vehsPerHour="5.022386852521713" departLane="free"/>
  <flow id="JF96166" begin="5300" fromJunction="J4" toJunction="J0" end="5360" vehsPerHour="35.331540312971235" departLane="free"/>
  <flow id="JF96167" begin="5300" fromJunction="J4" toJunction="J3" end="5360" vehsPerHour="13.175213112962535" departLane="free"/>
  <flow id="JF96168" begin="5300" fromJunction="J7" toJunction="J0" end="5360" vehsPerHour="2.367403373498161" departLane="free"/>
  <flow id="JF96169" begin="5300" fromJunction="J7" toJunction="J3" end="5360" vehsPerHour="47.24433963691812" departLane="free"/>
  <flow id="JF96170" begin="5360" fromJunction="J0" toJunction="J3" end="5420" vehsPerHour="113.78055558902976" departLane="free"/>
  <flow id="JF96171" begin="5360" fromJunction="J3" toJunction="J0" end="5420" vehsPerHour="11.902909528266532" departLane="free"/>
  <flow id="JF96172" begin="5360" fromJunction="J0" toJunction="J5" end="5420" vehsPerHour="76.99844394253412" departLane="free"/>
  <flow id="JF96173" begin="5360" fromJunction="J0" toJunction="J6" end="5420" vehsPerHour="83.3522445129297" departLane="free"/>
  <flow id="JF96174" begin="5360" fromJunction="J0" toJunction="J4" end="5420" vehsPerHour="87.26670490451397" departLane="free"/>
  <flow id="JF96175" begin="5360" fromJunction="J0" toJunction="J7" end="5420" vehsPerHour="105.3470869866022" departLane="free"/>
  <flow id="JF96176" begin="5360" fromJunction="J3" toJunction="J5" end="5420" vehsPerHour="72.99778189393342" departLane="free"/>
  <flow id="JF96177" begin="5360" fromJunction="J3" toJunction="J6" end="5420" vehsPerHour="92.42080264439464" departLane="free"/>
  <flow id="JF96178" begin="5360" fromJunction="J3" toJunction="J4" end="5420" vehsPerHour="70.51128217471857" departLane="free"/>
  <flow id="JF96179" begin="5360" fromJunction="J3" toJunction="J7" end="5420" vehsPerHour="131.94137490879078" departLane="free"/>
  <flow id="JF96180" begin="5360" fromJunction="J5" toJunction="J6" end="5420" vehsPerHour="4.08339749555898" departLane="free"/>
  <flow id="JF96181" begin="5360" fromJunction="J5" toJunction="J4" end="5420" vehsPerHour="27.48100598101443" departLane="free"/>
  <flow id="JF96182" begin="5360" fromJunction="J5" toJunction="J7" end="5420" vehsPerHour="5.070347877956162" departLane="free"/>
  <flow id="JF96183" begin="5360" fromJunction="J6" toJunction="J5" end="5420" vehsPerHour="53.00549154911514" departLane="free"/>
  <flow id="JF96184" begin="5360" fromJunction="J6" toJunction="J4" end="5420" vehsPerHour="36.00918587326389" departLane="free"/>
  <flow id="JF96185" begin="5360" fromJunction="J6" toJunction="J7" end="5420" vehsPerHour="28.720739822591852" departLane="free"/>
  <flow id="JF96186" begin="5360" fromJunction="J4" toJunction="J5" end="5420" vehsPerHour="30.122804268567798" departLane="free"/>
  <flow id="JF96187" begin="5360" fromJunction="J4" toJunction="J6" end="5420" vehsPerHour="52.86404491735429" departLane="free"/>
  <flow id="JF96188" begin="5360" fromJunction="J4" toJunction="J7" end="5420" vehsPerHour="34.61500537359184" departLane="free"/>
  <flow id="JF96189" begin="5360" fromJunction="J7" toJunction="J5" end="5420" vehsPerHour="62.09779843001026" departLane="free"/>
  <flow id="JF96190" begin="5360" fromJunction="J7" toJunction="J6" end="5420" vehsPerHour="9.57765584934806" departLane="free"/>
  <flow id="JF96191" begin="5360" fromJunction="J7" toJunction="J4" end="5420" vehsPerHour="66.79750405411262" departLane="free"/>
  <flow id="JF96192" begin="5360" fromJunction="J5" toJunction="J0" end="5420" vehsPerHour="40.108325683978435" departLane="free"/>
  <flow id="JF96193" begin="5360" fromJunction="J5" toJunction="J3" end="5420" vehsPerHour="52.89435487206452" departLane="free"/>
  <flow id="JF96194" begin="5360" fromJunction="J6" toJunction="J0" end="5420" vehsPerHour="52.46915889623743" departLane="free"/>
  <flow id="JF96195" begin="5360" fromJunction="J6" toJunction="J3" end="5420" vehsPerHour="21.358449343709076" departLane="free"/>
  <flow id="JF96196" begin="5360" fromJunction="J4" toJunction="J0" end="5420" vehsPerHour="17.443874403730405" departLane="free"/>
  <flow id="JF96197" begin="5360" fromJunction="J4" toJunction="J3" end="5420" vehsPerHour="31.549445780943838" departLane="free"/>
  <flow id="JF96198" begin="5360" fromJunction="J7" toJunction="J0" end="5420" vehsPerHour="17.183467673055258" departLane="free"/>
  <flow id="JF96199" begin="5360" fromJunction="J7" toJunction="J3" end="5420" vehsPerHour="62.601528763970656" departLane="free"/>
  <flow id="JF96200" begin="5420" fromJunction="J0" toJunction="J3" end="5480" vehsPerHour="116.02956743079599" departLane="free"/>
  <flow id="JF96201" begin="5420" fromJunction="J3" toJunction="J0" end="5480" vehsPerHour="121.18035094319806" departLane="free"/>
  <flow id="JF96202" begin="5420" fromJunction="J0" toJunction="J5" end="5480" vehsPerHour="60.725292424870624" departLane="free"/>
  <flow id="JF96203" begin="5420" fromJunction="J0" toJunction="J6" end="5480" vehsPerHour="111.48450057987775" departLane="free"/>
  <flow id="JF96204" begin="5420" fromJunction="J0" toJunction="J4" end="5480" vehsPerHour="108.62698243300927" departLane="free"/>
  <flow id="JF96205" begin="5420" fromJunction="J0" toJunction="J7" end="5480" vehsPerHour="15.951204024065596" departLane="free"/>
  <flow id="JF96206" begin="5420" fromJunction="J3" toJunction="J5" end="5480" vehsPerHour="136.38231360239996" departLane="free"/>