<?xml version="1.0" encoding="UTF-8"?>
<routes xmlns:xsi="http://www.w3.org/2001/XMLSchema-instance" xsi:noNamespaceSchemaLocation="http://sumo.dlr.de/xsd/routes_file.xsd">
  <flow id="JF89860" begin="0" fromJunction="J0" toJunction="J3" end="5000" vehsPerHour="1.8023045726739644" departLane="free"/>
  <flow id="JF89861" begin="0" fromJunction="J3" toJunction="J0" end="5000" vehsPerHour="37.10172383018059" departLane="free"/>
  <flow id="JF89862" begin="0" fromJunction="J0" toJunction="J5" end="5000" vehsPerHour="120.6927100141203" departLane="free"/>
  <flow id="JF89863" begin="0" fromJunction="J0" toJunction="J6" end="5000" vehsPerHour="475.9108410774628" departLane="free"/>
  <flow id="JF89864" begin="0" fromJunction="J0" toJunction="J4" end="5000" vehsPerHour="255.76784434648715" departLane="free"/>
  <flow id="JF89865" begin="0" fromJunction="J0" toJunction="J7" end="5000" vehsPerHour="418.86329908550385" departLane="free"/>
  <flow id="JF89866" begin="0" fromJunction="J3" toJunction="J5" end="5000" vehsPerHour="250.47825641574673" departLane="free"/>
  <flow id="JF89867" begin="0" fromJunction="J3" toJunction="J6" end="5000" vehsPerHour="549.3274037489659" departLane="free"/>
  <flow id="JF89868" begin="0" fromJunction="J3" toJunction="J4" end="5000" vehsPerHour="438.6359642117595" departLane="free"/>
  <flow id="JF89869" begin="0" fromJunction="J3" toJunction="J7" end="5000" vehsPerHour="410.93264693949357" departLane="free"/>
  <flow id="JF89870" begin="0" fromJunction="J5" toJunction="J6" end="5000" vehsPerHour="34.620170107481954" departLane="free"/>
  <flow id="JF89871" begin="0" fromJunction="J5" toJunction="J4" end="5000" vehsPerHour="50.115063521843226" departLane="free"/>
  <flow id="JF89872" begin="0" fromJunction="J5" toJunction="J7" end="5000" vehsPerHour="65.11217578172817" departLane="free"/>
  <flow id="JF89873" begin="0" fromJunction="J6" toJunction="J5" end="5000" vehsPerHour="9.275974086124085" departLane="free"/>
  <flow id="JF89874" begin="0" fromJunction="J6" toJunction="J4" end="5000" vehsPerHour="36.581930898775276" departLane="free"/>
  <flow id="JF89875" begin="0" fromJunction="J6" toJunction="J7" end="5000" vehsPerHour="30.122870255735055" departLane="free"/>
  <flow id="JF89876" begin="0" fromJunction="J4" toJunction="J5" end="5000" vehsPerHour="23.447636817719378" departLane="free"/>
  <flow id="JF89877" begin="0" fromJunction="J4" toJunction="J6" end="5000" vehsPerHour="21.512329650482677" departLane="free"/>
  <flow id="JF89878" begin="0" fromJunction="J4" toJunction="J7" end="5000" vehsPerHour="37.10296486350152" departLane="free"/>
  <flow id="JF89879" begin="0" fromJunction="J7" toJunction="J5" end="5000" vehsPerHour="17.840538644169833" departLane="free"/>
  <flow id="JF89880" begin="0" fromJunction="J7" toJunction="J6" end="5000" vehsPerHour="14.72991087091524" departLane="free"/>
  <flow id="JF89881" begin="0" fromJunction="J7" toJunction="J4" end="5000" vehsPerHour="66.61824832940327" departLane="free"/>
  <flow id="JF89882" begin="0" fromJunction="J5" toJunction="J0" end="5000" vehsPerHour="142.7898944887649" departLane="free"/>
  <flow id="JF89883" begin="0" fromJunction="J5" toJunction="J3" end="5000" vehsPerHour="6.924823999732546" departLane="free"/>
  <flow id="JF89884" begin="0" fromJunction="J6" toJunction="J0" end="5000" vehsPerHour="9.63285770035283" departLane="free"/>
  <flow id="JF89885" begin="0" fromJunction="J6" toJunction="J3" end="5000" vehsPerHour="71.6613714162695" departLane="free"/>
  <flow id="JF89886" begin="0" fromJunction="J4" toJunction="J0" end="5000" vehsPerHour="133.2097292807871" departLane="free"/>
  <flow id="JF89887" begin="0" fromJunction="J4" toJunction="J3" end="5000" vehsPerHour="193.28923480963468" departLane="free"/>
  <flow id="JF89888" begin="0" fromJunction="J7" toJunction="J0" end="5000" vehsPerHour="9.460139822699121" departLane="free"/>
  <flow id="JF89889" begin="0" fromJunction="J7" toJunction="J3" end="5000" vehsPerHour="230.1730607439331" departLane="free"/>
  <flow id="JF89890" begin="5000" fromJunction="J0" toJunction="J3" end="5060" vehsPerHour="57.37367111989667" departLane="free"/>
  <flow id="JF89891" begin="5000" fromJunction="J3" toJunction="J0" end="5060" vehsPerHour="89.04710017237379" departLane="free"/>
  <flow id="JF89892" begin="5000" fromJunction="J0" toJunction="J5" end="5060" vehsPerHour="35.90212650921919" departLane="free"/>
  <flow id="JF89893" begin="5000" fromJunction="J0" toJunction="J6" end="5060" vehsPerHour="38.734259126375576" departLane="free"/>
  <flow id="JF89894" begin="5000" fromJunction="J0" toJunction="J4" end="5060" vehsPerHour="64.28272954272185" departLane="free"/>
  <flow id="JF89895" begin="5000" fromJunction="J0" toJunction="J7" end="5060" vehsPerHour="54.87888884622095" departLane="free"/>
  <flow id="JF89896" begin="5000" fromJunction="J3" toJunction="J5" end="5060" vehsPerHour="69.98715221277989" departLane="free"/>
  <flow id="JF89897" begin="5000" fromJunction="J3" toJunction="J6" end="5060" vehsPerHour="2.8941609626208864" departLane="free"/>
  <flow id="JF89898" begin="5000" fromJunction="J3" toJunction="J4" end="5060" vehsPerHour="68.41113378655785" departLane="free"/>
  <flow id="JF89899" begin="5000" fromJunction="J3" toJunction="J7" end="5060" vehsPerHour="74.8995959346911" departLane="free"/>
  <flow id="JF89900" begin="5000" fromJunction="J5" toJunction="J6" end="5060" vehsPerHour="47.93269409734872" departLane="free"/>
  <flow id="JF89901" begin="5000" fromJunction="J5" toJunction="J4" end="5060" vehsPerHour="64.37519593142461" departLane="free"/>
  <flow id="JF89902" begin="5000" fromJunction="J5" toJunction="J7" end="5060" vehsPerHour="17.41407965285644" departLane="free"/>
  <flow id="JF89903" begin="5000" fromJunction="J6" toJunction="J5" end="5060" vehsPerHour="52.26974929552323" departLane="free"/>
  <flow id="JF89904" begin="5000" fromJunction="J6" toJunction="J4" end="5060" vehsPerHour="17.277482628540508" departLane="free"/>
  <flow id="JF89905" begin="5000" fromJunction="J6" toJunction="J7" end="5060" vehsPerHour="27.14145536433684" departLane="free"/>
  <flow id="JF89906" begin="5000" fromJunction="J4" toJunction="J5" end="5060" vehsPerHour="6.035557450185953" departLane="free"/>
  <flow id="JF89907" begin="5000" fromJunction="J4" toJunction="J6" end="5060" vehsPerHour="10.59528998617469" departLane="free"/>
  <flow id="JF89908" begin="5000" fromJunction="J4" toJunction="J7" end="5060" vehsPerHour="2.571196747683451" departLane="free"/>
  <flow id="JF89909" begin="5000" fromJunction="J7" toJunction="J5" end="5060" vehsPerHour="12.40630812991898" departLane="free"/>
  <flow id="JF89910" begin="5000" fromJunction="J7" toJunction="J6" end="5060" vehsPerHour="40.37332494622304" departLane="free"/>
  <flow id="JF89911" begin="5000" fromJunction="J7" toJunction="J4" end="5060" vehsPerHour="39.73122546767058" departLane="free"/>
  <flow id="JF89912" begin="5000" fromJunction="J5" toJunction="J0" end="5060" vehsPerHour="21.663792926464858" departLane="free"/>
  <flow id="JF89913" begin="5000" fromJunction="J5" toJunction="J3" end="5060" vehsPerHour="35.44979735309838" departLane="free"/>
  <flow id="JF89914" begin="5000" fromJunction="J6" toJunction="J0" end="5060" vehsPerHour="20.874075394402613" departLane="free"/>
  <flow id="JF89915" begin="5000" fromJunction="J6" toJunction="J3" end="5060" vehsPerHour="22.726257118901906" departLane="free"/>
  <flow id="JF89916" begin="5000" fromJunction="J4" toJunction="J0" end="5060" vehsPerHour="63.982380415975996" departLane="free"/>
  <flow id="JF89917" begin="5000" fromJunction="J4" toJunction="J3" end="5060" vehsPerHour="15.929346528568537" departLane="free"/>
  <flow id="JF89918" begin="5000" fromJunction="J7" toJunction="J0" end="5060" vehsPerHour="64.53470115402946" departLane="free"/>
  <flow id="JF89919" begin="5000" fromJunction="J7" toJunction="J3" end="5060" vehsPerHour="11.568747263724758" departLane="free"/>
  <flow id="JF89920" begin="5060" fromJunction="J0" toJunction="J3" end="5120" vehsPerHour="121.14530497358042" departLane="free"/>
  <flow id="JF89921" begin="5060" fromJunction="J3" toJunction="J0" end="5120" vehsPerHour="34.149131884762" departLane="free"/>
  <flow id="JF89922" begin="5060" fromJunction="J0" toJunction="J5" end="5120" vehsPerHour="1.6446089039842768" departLane="free"/>
  <flow id="JF89923" begin="5060" fromJunction="J0" toJunction="J6" end="5120" vehsPerHour="12.503836325216119" departLane="free"/>
  <flow id="JF89924" begin="5060" fromJunction="J0" toJunction="J4" end="5120" vehsPerHour="90.41004911539885" departLane="free"/>
  <flow id="JF89925" begin="5060" fromJunction="J0" toJunction="J7" end="5120" vehsPerHour="98.62211406518715" departLane="free"/>
  <flow id="JF89926" begin="5060" fromJunction="J3" toJunction="J5" end="5120" vehsPerHour="85.08032276925734" departLane="free"/>
  <flow id="JF89927" begin="5060" fromJunction="J3" toJunction="J6" end="5120" vehsPerHour="107.86704573943179" departLane="free"/>
  <flow id="JF89928" begin="5060" fromJunction="J3" toJunction="J4" end="5120" vehsPerHour="108.24814317860269" departLane="free"/>
  <flow id="JF89929" begin="5060" fromJunction="J3" toJunction="J7" end="5120" vehsPerHour="129.53081399813237" departLane="free"/>
  <flow id="JF89930" begin="5060" fromJunction="J5" toJunction="J6" end="5120" vehsPerHour="54.69430972983915" departLane="free"/>
  <flow id="JF89931" begin="5060" fromJunction="J5" toJunction="J4" end="5120" vehsPerHour="55.73675643090665" departLane="free"/>
  <flow id="JF89932" begin="5060" fromJunction="J5" toJunction="J7" end="5120" vehsPerHour="35.37402474802353" departLane="free"/>
  <flow id="JF89933" begin="5060" fromJunction="J6" toJunction="J5" end="5120" vehsPerHour="24.302703684322598" departLane="free"/>
  <flow id="JF89934" begin="5060" fromJunction="J6" toJunction="J4" end="5120" vehsPerHour="15.886606687826207" departLane="free"/>
  <flow id="JF89935" begin="5060" fromJunction="J6" toJunction="J7" end="5120" vehsPerHour="7.569372297092324" departLane="free"/>
  <flow id="JF89936" begin="5060" fromJunction="J4" toJunction="J5" end="5120" vehsPerHour="65.37042027461747" departLane="free"/>
  <flow id="JF89937" begin="5060" fromJunction="J4" toJunction="J6" end="5120" vehsPerHour="5.906345478409494" departLane="free"/>
  <flow id="JF89938" begin="5060" fromJunction="J4" toJunction="J7" end="5120" vehsPerHour="17.270334896401888" departLane="free"/>
  <flow id="JF89939" begin="5060" fromJunction="J7" toJunction="J5" end="5120" vehsPerHour="4.949911991126976" departLane="free"/>
  <flow id="JF89940" begin="5060" fromJunction="J7" toJunction="J6" end="5120" vehsPerHour="67.62743021664691" departLane="free"/>
  <flow id="JF89941" begin="5060" fromJunction="J7" toJunction="J4" end="5120" vehsPerHour="57.18732556661228" departLane="free"/>
  <flow id="JF89942" begin="5060" fromJunction="J5" toJunction="J0" end="5120" vehsPerHour="49.99908589031356" departLane="free"/>
  <flow id="JF89943" begin="5060" fromJunction="J5" toJunction="J3" end="5120" vehsPerHour="50.28883801111864" departLane="free"/>
  <flow id="JF89944" begin="5060" fromJunction="J6" toJunction="J0" end="5120" vehsPerHour="52.47983947195767" departLane="free"/>
  <flow id="JF89945" begin="5060" fromJunction="J6" toJunction="J3" end="5120" vehsPerHour="37.751222669408634" departLane="free"/>
  <flow id="JF89946" begin="5060" fromJunction="J4" toJunction="J0" end="5120" vehsPerHour="25.451721226416005" departLane="free"/>
  <flow id="JF89947" begin="5060" fromJunction="J4" toJunction="J3" end="5120" vehsPerHour="11.835062375923375" departLane="free"/>
  <flow id="JF89948" begin="5060" fromJunction="J7" toJunction="J0" end="5120" vehsPerHour="22.10667089324991" departLane="free"/>
  <flow id="JF89949" begin="5060" fromJunction="J7" toJunction="J3" end="5120" vehsPerHour="15.111163386235694" departLane="free"/>
  <flow id="JF89950" begin="5120" fromJunction="J0" toJunction="J3" end="5180" vehsPerHour="103.2851100679027" departLane="free"/>
  <flow id="JF89951" begin="5120" fromJunction="J3" toJunction="J0" end="5180" vehsPerHour="33.736706537019124" departLane="free"/>
  <flow id="JF89952" begin="5120" fromJunction="J0" toJunction="J5" end="5180" vehsPerHour="130.37603653343683" departLane="free"/>
  <flow id="JF89953" begin="5120" fromJunction="J0" toJunction="J6" end="5180" vehsPerHour="65.67741934199664" departLane="free"/>
  <flow id="JF89954" begin="5120" fromJunction="J0" toJunction="J4" end="5180" vehsPerHour="119.88595961675172" departLane="free"/>
  <flow id="JF89955" begin="5120" fromJunction="J0" toJunction="J7" end="5180" vehsPerHour="6.142345850298577" departLane="free"/>
  <flow id="JF89956" begin="5120" fromJunction="J3" toJunction="J5" end="5180" vehsPerHour="46.860840428446856" departLane="free"/>
  <flow id="JF89957" begin="5120" fromJunction="J3" toJunction="J6" end="5180" vehsPerHour="99.37342919025869" departLane="free"/>
  <flow id="JF89958" begin="5120" fromJunction="J3" toJunction="J4" end="5180" vehsPerHour="131.28917810632603" departLane="free"/>
  <flow id="JF89959" begin="5120" fromJunction="J3" toJunction="J7" end="5180" vehsPerHour="79.84176928634153" departLane="free"/>
  <flow id="JF89960" begin="5120" fromJunction="J5" toJunction="J6" end="5180" vehsPerHour="52.507232395111146" departLane="free"/>
  <flow id="JF89961" begin="5120" fromJunction="J5" toJunction="J4" end="5180" vehsPerHour="22.064177264580593" departLane="free"/>
  <flow id="JF89962" begin="5120" fromJunction="J5" toJunction="J7" end="5180" vehsPerHour="32.97470600821693" departLane="free"/>
  <flow id="JF89963" begin="5120" fromJunction="J6" toJunction="J5" end="5180" vehsPerHour="47.28975651932343" departLane="free"/>
  <flow id="JF89964" begin="5120" fromJunction="J6" toJunction="J4" end="5180" vehsPerHour="23.78318600878281" departLane="free"/>
  <flow id="JF89965" begin="5120" fromJunction="J6" toJunction="J7" end="5180" vehsPerHour="65.70059281296115" departLane="free"/>
  <flow id="JF89966" begin="5120" fromJunction="J4" toJunction="J5" end="5180" vehsPerHour="42.07933869008609" departLane="free"/>
  <flow id="JF89967" begin="5120" fromJunction="J4" toJunction="J6" end="5180" vehsPerHour="50.115429792884164" departLane="free"/>
  <flow id="JF89968" begin="5120" fromJunction="J4" toJunction="J7" end="5180" vehsPerHour="19.158831850493137" departLane="free"/>
  <flow id="JF89969" begin="5120" fromJunction="J7" toJunction="J5" end="5180" vehsPerHour="47.01714227478844" departLane="free"/>
  <flow id="JF89970" begin="5120" fromJunction="J7" toJunction="J6" end="5180" vehsPerHour="40.788415364725154" departLane="free"/>
  <flow id="JF89971" begin="5120" fromJunction="J7" toJunction="J4" end="5180" vehsPerHour="40.532945927976634" departLane="free"/>
  <flow id="JF89972" begin="5120" fromJunction="J5" toJunction="J0" end="5180" vehsPerHour="17.161783868891604" departLane="free"/>
  <flow id="JF89973" begin="5120" fromJunction="J5" toJunction="J3" end="5180" vehsPerHour="60.056175680384904" departLane="free"/>
  <flow id="JF89974" begin="5120" fromJunction="J6" toJunction="J0" end="5180" vehsPerHour="63.7714887743516" departLane="free"/>
  <flow id="JF89975" begin="5120" fromJunction="J6" toJunction="J3" end="5180" vehsPerHour="56.19515029077269" departLane="free"/>
  <flow id="JF89976" begin="5120" fromJunction="J4" toJunction="J0" end="5180" vehsPerHour="62.950376957739024" departLane="free"/>
  <flow id="JF89977" begin="5120" fromJunction="J4" toJunction="J3" end="5180" vehsPerHour="27.81446903016421" departLane="free"/>
  <flow id="JF89978" begin="5120" fromJunction="J7" toJunction="J0" end="5180" vehsPerHour="16.36190106970169" departLane="free"/>
  <flow id="JF89979" begin="5120" fromJunction="J7" toJunction="J3" end="5180" vehsPerHour="46.35393408966722" departLane="free"/>
  <flow id="JF89980" begin="5180" fromJunction="J0" toJunction="J3" end="5240" vehsPerHour="98.43911788674735" departLane="free"/>
  <flow id="JF89981" begin="5180" fromJunction="J3" toJunction="J0" end="5240" vehsPerHour="48.674788517351494" departLane="free"/>
  <flow id="JF89982" begin="5180" fromJunction="J0" toJunction="J5" end="5240" vehsPerHour="0.006804642349004864" departLane="free"/>
  <flow id="JF89983" begin="5180" fromJunction="J0" toJunction="J6" end="5240" vehsPerHour="36.28114593367428" departLane="free"/>
  <flow id="JF89984" begin="5180" fromJunction="J0" toJunction="J4" end="5240" vehsPerHour="65.94161595859497" departLane="free"/>
  <flow id="JF89985" begin="5180" fromJunction="J0" toJunction="J7" end="5240" vehsPerHour="96.01746519840029" departLane="free"/>
  <flow id="JF89986" begin="5180" fromJunction="J3" toJunction="J5" end="5240" vehsPerHour="36.39646091993721" departLane="free"/>
  <flow id="JF89987" begin="5180" fromJunction="J3" toJunction="J6" end="5240" vehsPerHour="80.13938503014117" departLane="free"/>
  <flow id="JF89988" begin="5180" fromJunction="J3" toJunction="J4" end="5240" vehsPerHour="95.0367901888199" departLane="free"/>
  <flow id="JF89989" begin="5180" fromJunction="J3" toJunction="J7" end="5240" vehsPerHour="96.60118206733668" departLane="free"/>
  <flow id="JF89990" begin="5180" fromJunction="J5" toJunction="J6" end="5240" vehsPerHour="34.29024268442472" departLane="free"/>
  <flow id="JF89991" begin="5180" fromJunction="J5" toJunction="J4" end="5240" vehsPerHour="19.592433102677315" departLane="free"/>
  <flow id="JF89992" begin="5180" fromJunction="J5" toJunction="J7" end="5240" vehsPerHour="65.41433540297707" departLane="free"/>
  <flow id="JF89993" begin="5180" fromJunction="J6" toJunction="J5" end="5240" vehsPerHour="32.65169940935405" departLane="free"/>
  <flow id="JF89994" begin="5180" fromJunction="J6" toJunction="J4" end="5240" vehsPerHour="52.50953628241281" departLane="free"/>
  <flow id="JF89995" begin="5180" fromJunction="J6" toJunction="J7" end="5240" vehsPerHour="35.04693590656236" departLane="free"/>
  <flow id="JF89996" begin="5180" fromJunction="J4" toJunction="J5" end="5240" vehsPerHour="63.24719253481213" departLane="free"/>
  <flow id="JF89997" begin="5180" fromJunction="J4" toJunction="J6" end="5240" vehsPerHour="12.698913513781134" departLane="free"/>
  <flow id="JF89998" begin="5180" fromJunction="J4" toJunction="J7" end="5240" vehsPerHour="21.477405733005632" departLane="free"/>
  <flow id="JF89999" begin="5180" fromJunction="J7" toJunction="J5" end="5240" vehsPerHour="11.97859506411053" departLane="free"/>
  <flow id="JF90000" begin="5180" fromJunction="J7" toJunction="J6" end="5240" vehsPerHour="20.88639494249358" departLane="free"/>
  <flow id="JF90001" begin="5180" fromJunction="J7" toJunction="J4" end="5240" vehsPerHour="33.03054804100808" departLane="free"/>
  <flow id="JF90002" begin="5180" fromJunction="J5" toJunction="J0" end="5240" vehsPerHour="22.99168960100573" departLane="free"/>
  <flow id="JF90003" begin="5180" fromJunction="J5" toJunction="J3" end="5240" vehsPerHour="39.42282522030013" departLane="free"/>
  <flow id="JF90004" begin="5180" fromJunction="J6" toJunction="J0" end="5240" vehsPerHour="30.561856400929315" departLane="free"/>
  <flow id="JF90005" begin="5180" fromJunction="J6" toJunction="J3" end="5240" vehsPerHour="45.4653485228128" departLane="free"/>
  <flow id="JF90006" begin="5180" fromJunction="J4" toJunction="J0" end="5240" vehsPerHour="27.905677898634124" departLane="free"/>
  <flow id="JF90007" begin="5180" fromJunction="J4" toJunction="J3" end="5240" vehsPerHour="50.83668946824902" departLane="free"/>
  <flow id="JF90008" begin="5180" fromJunction="J7" toJunction="J0" end="5240" vehsPerHour="11.273384068260397" departLane="free"/>
  <flow id="JF90009" begin="5180" fromJunction="J7" toJunction="J3" end="5240" vehsPerHour="5.144272409388203" departLane="free"/>
  <flow id="JF90010" begin="5240" fromJunction="J0" toJunction="J3" end="5300" vehsPerHour="131.69285508908197" departLane="free"/>
  <flow id="JF90011" begin="5240" fromJunction="J3" toJunction="J0" end="5300" vehsPerHour="29.024990319778183" departLane="free"/>
  <flow id="JF90012" begin="5240" fromJunction="J0" toJunction="J5" end="5300" vehsPerHour="112.15477781534858" departLane="free"/>
  <flow id="JF90013" begin="5240" fromJunction="J0" toJunction="J6" end="5300" vehsPerHour="10.241780534137481" departLane="free"/>
  <flow id="JF90014" begin="5240" fromJunction="J0" toJunction="J4" end="5300" vehsPerHour="38.599225958021734" departLane="free"/>
  <flow id="JF90015" begin="5240" fromJunction="J0" toJunction="J7" end="5300" vehsPerHour="52.22203236183241" departLane="free"/>
  <flow id="JF90016" begin="5240" fromJunction="J3" toJunction="J5" end="5300" vehsPerHour="103.38805603068143" departLane="free"/>
  <flow id="JF90017" begin="5240" fromJunction="J3" toJunction="J6" end="5300" vehsPerHour="102.21280514161252" departLane="free"/>
  <flow id="JF90018" begin="5240" fromJunction="J3" toJunction="J4" end="5300" vehsPerHour="37.52638411378729" departLane="free"/>
  <flow id="JF90019" begin="5240" fromJunction="J3" toJunction="J7" end="5300" vehsPerHour="84.20156757321362" departLane="free"/>
  <flow id="JF90020" begin="5240" fromJunction="J5" toJunction="J6" end="5300" vehsPerHour="40.51075746870154" departLane="free"/>
  <flow id="JF90021" begin="5240" fromJunction="J5" toJunction="J4" end="5300" vehsPerHour="29.404087593163027" departLane="free"/>
  <flow id="JF90022" begin="5240" fromJunction="J5" toJunction="J7" end="5300" vehsPerHour="13.222525607201767" departLane="free"/>
  <flow id="JF90023" begin="5240" fromJunction="J6" toJunction="J5" end="5300" vehsPerHour="18.48816633739871" departLane="free"/>
  <flow id="JF90024" begin="5240" fromJunction="J6" toJunction="J4" end="5300" vehsPerHour="62.04626994672203" departLane="free"/>
  <flow id="JF90025" begin="5240" fromJunction="J6" toJunction="J7" end="5300" vehsPerHour="5.0370840631677565" departLane="free"/>
  <flow id="JF90026" begin="5240" fromJunction="J4" toJunction="J5" end="5300" vehsPerHour="15.337679657419871" departLane="free"/>
  <flow id="JF90027" begin="5240" fromJunction="J4" toJunction="J6" end="5300" vehsPerHour="45.593111844102886" departLane="free"/>
  <flow id="JF90028" begin="5240" fromJunction="J4" toJunction="J7" end="5300" vehsPerHour="51.88538550922274" departLane="free"/>
  <flow id="JF90029" begin="5240" fromJunction="J7" toJunction="J5" end="5300" vehsPerHour="53.51899194239657" departLane="free"/>
  <flow id="JF90030" begin="5240" fromJunction="J7" toJunction="J6" end="5300" vehsPerHour="39.34324623551841" departLane="free"/>
  <flow id="JF90031" begin="5240" fromJunction="J7" toJunction="J4" end="5300" vehsPerHour="66.98703713022266" departLane="free"/>
  <flow id="JF90032" begin="5240" fromJunction="J5" toJunction="J0" end="5300" vehsPerHour="56.065096083622436" departLane="free"/>
  <flow id="JF90033" begin="5240" fromJunction="J5" toJunction="J3" end="5300" vehsPerHour="53.071065344926666" departLane="free"/>
  <flow id="JF90034" begin="5240" fromJunction="J6" toJunction="J0" end="5300" vehsPerHour="10.23636523139107" departLane="free"/>
  <flow id="JF90035" begin="5240" fromJunction="J6" toJunction="J3" end="5300" vehsPerHour="16.63323768333814" departLane="free"/>
  <flow id="JF90036" begin="5240" fromJunction="J4" toJunction="J0" end="5300" vehsPerHour="13.436103397686365" departLane="free"/>
  <flow id="JF90037" begin="5240" fromJunction="J4" toJunction="J3" end="5300" vehsPerHour="33.04782214278318" departLane="free"/>
  <flow id="JF90038" begin="5240" fromJunction="J7" toJunction="J0" end="5300" vehsPerHour="62.003580716766436" departLane="free"/>
  <flow id="JF90039" begin="5240" fromJunction="J7" toJunction="J3" end="5300" vehsPerHour="31.012578329087773" departLane="free"/>
  <flow id="JF90040" begin="5300" fromJunction="J0" toJunction="J3" end="5360" vehsPerHour="122.41715774974662" departLane="free"/>
  <flow id="JF90041" begin="5300" fromJunction="J3" toJunction="J0" end="5360" vehsPerHour="127.43228727498284" departLane="free"/>
  <flow id="JF90042" begin="5300" fromJunction="J0" toJunction="J5" end="5360" vehsPerHour="78.2725793066181" departLane="free"/>
  <flow id="JF90043" begin="5300" fromJunction="J0" toJunction="J6" end="5360" vehsPerHour="87.49636178892567" departLane="free"/>
  <flow id="JF90044" begin="5300" fromJunction="J0" toJunction="J4" end="5360" vehsPerHour="93.82120131187928" departLane="free"/>
  <flow id="JF90045" begin="5300" fromJunction="J0" toJunction="J7" end="5360" vehsPerHour="109.24842917206503" departLane="free"/>
  <flow id="JF90046" begin="5300" fromJunction="J3" toJunction="J5" end="5360" vehsPerHour="45.89210194494293" departLane="free"/>
  <flow id="JF90047" begin="5300" fromJunction="J3" toJunction="J6" end="5360" vehsPerHour="66.76854398033343" departLane="free"/>
  <flow id="JF90048" begin="5300" fromJunction="J3" toJunction="J4" end="5360" vehsPerHour="6.839697271288309" departLane="free"/>
  <flow id="JF90049" begin="5300" fromJunction="J3" toJunction="J7" end="5360" vehsPerHour="131.55268455241867" departLane="free"/>
  <flow id="JF90050" begin="5360" fromJunction="J0" toJunction="J3" end="5420" vehsPerHour="65.62515174638709" departLane="free"/>
  <flow id="JF90051" begin="5360" fromJunction="J3" toJunction="J0" end="5420" vehsPerHour="6.217640264339637" departLane="free"/>
  <flow id="JF90052" begin="5360" fromJunction="J0" toJunction="J5" end="5420" vehsPerHour="95.19242164005541" departLane="free"/>
  <flow id="JF90053" begin="5360" fromJunction="J0" toJunction="J6" end="5420" vehsPerHour="46.25169248656705" departLane="free"/>
  <flow id="JF90054" begin="5360" fromJunction="J0" toJunction="J4" end="5420" vehsPerHour="84.88795115645465" departLane="free"/>
  <flow id="JF90055" begin="5360" fromJunction="J0" toJunction="J7" end="5420" vehsPerHour="5.977931156523091" departLane="free"/>
  <flow id="JF90056" begin="5360" fromJunction="J3" toJunction="J5" end="5420" vehsPerHour="52.241625259571194" departLane="free"/>
  <flow id="JF90057" begin="5360" fromJunction="J3" toJunction="J6" end="5420" vehsPerHour="47.91802037876116" departLane="free"/>
  <flow id="JF90058" begin="5360" fromJunction="J3" toJunction="J4" end="5420" vehsPerHour="11.725957902169815" departLane="free"/>
  <flow id="JF90059" begin="5360" fromJunction="J3" toJunction="J7" end="5420" vehsPerHour="59.56180941812309" departLane="free"/>
  <flow id="JF90060" begin="5360" fromJunction="J5" toJunction="J6" end="5420" vehsPerHour="15.397380194781542" departLane="free"/>
  <flow id="JF90061" begin="5360" fromJunction="J5" toJunction="J4" end="5420" vehsPerHour="18.735563670025954" departLane="free"/>
  <flow id="JF90062" begin="5360" fromJunction="J5" toJunction="J7" end="5420" vehsPerHour="52.12515783317357" departLane="free"/>
  <flow id="JF90063" begin="5360" fromJunction="J6" toJunction="J5" end="5420" vehsPerHour="39.96961714372803" departLane="free"/>
  <flow id="JF90064" begin="5360" fromJunction="J6" toJunction="J4" end="5420" vehsPerHour="34.17879611256059" departLane="free"/>
  <flow id="JF90065" begin="5360" fromJunction="J6" toJunction="J7" end="5420" vehsPerHour="22.33302841727219" departLane="free"/>
  <flow id="JF90066" begin="5360" fromJunction="J4" toJunction="J5" end="5420" vehsPerHour="28.53332507519868" departLane="free"/>
  <flow id="JF90067" begin="5360" fromJunction="J4" toJunction="J6" end="5420" vehsPerHour="58.580244693783094" departLane="free"/>
  <flow id="JF90068" begin="5360" fromJunction="J4" toJunction="J7" end="5420" vehsPerHour="26.764936884090748" departLane="free"/>
  <flow id="JF90069" begin="5360" fromJunction="J7" toJunction="J5" end="5420" vehsPerHour="51.98560922576895" departLane="free"/>
  <flow id="JF90070" begin="5360" fromJunction="J7" toJunction="J6" end="5420" vehsPerHour="0.3930036447830268" departLane="free"/>
  <flow id="JF90071" begin="5360" fromJunction="J7" toJunction="J4" end="5420" vehsPerHour="47.39208360370656" departLane="free"/>
  <flow id="JF90072" begin="5360" fromJunction="J5" toJunction="J0" end="5420" vehsPerHour="21.928894919636996" departLane="free"/>
  <flow id="JF90073" begin="5360" fromJunction="J5" toJunction="J3" end="5420" vehsPerHour="35.804316606974574" departLane="free"/>
  <flow id="JF90074" begin="5360" fromJunction="J6" toJunction="J0" end="5420" vehsPerHour="42.162859303116946" departLane="free"/>
  <flow id="JF90075" begin="5360" fromJunction="J6" toJunction="J3" end="5420" vehsPerHour="59.10252645465969" departLane="free"/>
  <flow id="JF90076" begin="5360" fromJunction="J4" toJunction="J0" end="5420" vehsPerHour="10.168475114940106" departLane="free"/>
  <flow id="JF90077" begin="5360" fromJunction="J4" toJunction="J3" end="5420" vehsPerHour="45.48066036108861" departLane="free"/>
  <flow id="JF90078" begin="5360" fromJunction="J7" toJunction="J0" end="5420" vehsPerHour="3.135228088844502" departLane="free"/>
  <flow id="JF90079" begin="5360" fromJunction="J7" toJunction="J3" end="5420" vehsPerHour="22.108912322280062" departLane="free"/>
  <flow id="JF90080" begin="5420" fromJunction="J0" toJunction="J3" end="5480" vehsPerHour="38.667332069872174" departLane="free"/>
  <flow id="JF90081" begin="5420" fromJunction="J3" toJunction="J0" end="5480" vehsPerHour="126.7215512045913" departLane="free"/>
  <flow id="JF90082" begin="5420" fromJunction="J0" toJunction="J5" end="5480" vehsPerHour="6.268860223291191" departLane="free"/>
  <flow id="JF90083" begin="5420" fromJunction="J0" toJunction="J6" end="5480" vehsPerHour="39.35711912269133" departLane="free"/>
  <flow id="JF90084" begin="5420" fromJunction="J0" toJunction="J4" end="5480" vehsPerHour="134.69187233649834" departLane="free"/>
  <flow id="JF90085" begin="5420" fromJunction="J0" toJunction="J7" end="5480" vehsPerHour="42.4791886068898" departLane="free"/>
  <flow id="JF90086" begin="5420" fromJunction="J3" toJunction="J5" end="5480" vehsPerHour="29.041501901138165" departLane="free"/>