<?xml version="1.0" encoding="UTF-8"?>
<routes xmlns:xsi="http://www.w3.org/2001/XMLSchema-instance" xsi:noNamespaceSchemaLocation="http://sumo.dlr.de/xsd/routes_file.xsd">
  <flow id="JF15491" begin="0" fromJunction="J0" toJunction="J12" end="360" vehsPerHour="53.58497380201585" departLane="free" arrivalSpeed="0.0"/>
  <flow id="JF15492" begin="0" fromJunction="J0" toJunction="J13" end="360" vehsPerHour="1.086542584361798" departLane="free" arrivalSpeed="0.0"/>
  <flow id="JF15493" begin="0" fromJunction="J0" toJunction="J14" end="360" vehsPerHour="2.980284607115021" departLane="free" arrivalSpeed="0.0"/>
  <flow id="JF15494" begin="0" fromJunction="J0" toJunction="J15" end="360" vehsPerHour="45.220442974034746" departLane="free" arrivalSpeed="0.0"/>
  <flow id="JF15495" begin="0" fromJunction="J0" toJunction="J2" end="360" vehsPerHour="11.813093747183753" departLane="free" arrivalSpeed="0.0"/>
  <flow id="JF15496" begin="0" fromJunction="J0" toJunction="J3" end="360" vehsPerHour="52.93722042233659" departLane="free" arrivalSpeed="0.0"/>
  <flow id="JF15497" begin="0" fromJunction="J0" toJunction="J6" end="360" vehsPerHour="24.46635686582516" departLane="free" arrivalSpeed="0.0"/>
  <flow id="JF15498" begin="0" fromJunction="J0" toJunction="J9" end="360" vehsPerHour="40.86462238521832" departLane="free" arrivalSpeed="0.0"/>
  <flow id="JF15499" begin="0" fromJunction="J12" toJunction="J0" end="360" vehsPerHour="26.8336966456254" departLane="free" arrivalSpeed="0.0"/>
  <flow id="JF15500" begin="0" fromJunction="J12" toJunction="J13" end="360" vehsPerHour="66.92822074038685" departLane="free" arrivalSpeed="0.0"/>
  <flow id="JF15501" begin="0" fromJunction="J12" toJunction="J14" end="360" vehsPerHour="11.971084823671974" departLane="free" arrivalSpeed="0.0"/>
  <flow id="JF15502" begin="0" fromJunction="J12" toJunction="J15" end="360" vehsPerHour="41.4201151239388" departLane="free" arrivalSpeed="0.0"/>
  <flow id="JF15503" begin="0" fromJunction="J12" toJunction="J16" end="360" vehsPerHour="13.38707120231681" departLane="free" arrivalSpeed="0.0"/>
  <flow id="JF15504" begin="0" fromJunction="J12" toJunction="J3" end="360" vehsPerHour="15.046039132639587" departLane="free" arrivalSpeed="0.0"/>
  <flow id="JF15505" begin="0" fromJunction="J12" toJunction="J6" end="360" vehsPerHour="24.14096500228388" departLane="free" arrivalSpeed="0.0"/>
  <flow id="JF15506" begin="0" fromJunction="J12" toJunction="J8" end="360" vehsPerHour="42.89709204348803" departLane="free" arrivalSpeed="0.0"/>
  <flow id="JF15507" begin="0" fromJunction="J13" toJunction="J0" end="360" vehsPerHour="12.692904985794527" departLane="free" arrivalSpeed="0.0"/>
  <flow id="JF15508" begin="0" fromJunction="J13" toJunction="J12" end="360" vehsPerHour="54.66680968234576" departLane="free" arrivalSpeed="0.0"/>
  <flow id="JF15509" begin="0" fromJunction="J13" toJunction="J14" end="360" vehsPerHour="64.86803649249161" departLane="free" arrivalSpeed="0.0"/>
  <flow id="JF15510" begin="0" fromJunction="J13" toJunction="J15" end="360" vehsPerHour="26.201463431850826" departLane="free" arrivalSpeed="0.0"/>
  <flow id="JF15511" begin="0" fromJunction="J13" toJunction="J2" end="360" vehsPerHour="53.79192942022498" departLane="free" arrivalSpeed="0.0"/>
  <flow id="JF15512" begin="0" fromJunction="J13" toJunction="J3" end="360" vehsPerHour="15.744803216262556" departLane="free" arrivalSpeed="0.0"/>
  <flow id="JF15513" begin="0" fromJunction="J13" toJunction="J6" end="360" vehsPerHour="18.866602195497453" departLane="free" arrivalSpeed="0.0"/>
  <flow id="JF15514" begin="0" fromJunction="J13" toJunction="J7" end="360" vehsPerHour="43.53254724121095" departLane="free" arrivalSpeed="0.0"/>
  <flow id="JF15515" begin="0" fromJunction="J13" toJunction="J8" end="360" vehsPerHour="31.494714543439787" departLane="free" arrivalSpeed="0.0"/>
  <flow id="JF15516" begin="0" fromJunction="J13" toJunction="J9" end="360" vehsPerHour="53.19173276556678" departLane="free" arrivalSpeed="0.0"/>
  <flow id="JF15517" begin="0" fromJunction="J14" toJunction="J0" end="360" vehsPerHour="33.53812775142018" departLane="free" arrivalSpeed="0.0"/>
  <flow id="JF15518" begin="0" fromJunction="J14" toJunction="J12" end="360" vehsPerHour="32.85724917669384" departLane="free" arrivalSpeed="0.0"/>
  <flow id="JF15519" begin="0" fromJunction="J14" toJunction="J16" end="360" vehsPerHour="24.122745177772146" departLane="free" arrivalSpeed="0.0"/>
  <flow id="JF15520" begin="0" fromJunction="J14" toJunction="J2" end="360" vehsPerHour="67.75902578881731" departLane="free" arrivalSpeed="0.0"/>
  <flow id="JF15521" begin="0" fromJunction="J14" toJunction="J3" end="360" vehsPerHour="64.59555031209997" departLane="free" arrivalSpeed="0.0"/>
  <flow id="JF15522" begin="0" fromJunction="J14" toJunction="J6" end="360" vehsPerHour="57.980350174578014" departLane="free" arrivalSpeed="0.0"/>
  <flow id="JF15523" begin="0" fromJunction="J14" toJunction="J7" end="360" vehsPerHour="46.87022052984931" departLane="free" arrivalSpeed="0.0"/>
  <flow id="JF15524" begin="0" fromJunction="J14" toJunction="J8" end="360" vehsPerHour="31.603907788638402" departLane="free" arrivalSpeed="0.0"/>
  <flow id="JF15525" begin="0" fromJunction="J14" toJunction="J9" end="360" vehsPerHour="0.7513455650050652" departLane="free" arrivalSpeed="0.0"/>
  <flow id="JF15526" begin="0" fromJunction="J15" toJunction="J0" end="360" vehsPerHour="25.888039521313686" departLane="free" arrivalSpeed="0.0"/>
  <flow id="JF15527" begin="0" fromJunction="J15" toJunction="J12" end="360" vehsPerHour="38.79123231827836" departLane="free" arrivalSpeed="0.0"/>
  <flow id="JF15528" begin="0" fromJunction="J15" toJunction="J13" end="360" vehsPerHour="47.07912721783091" departLane="free" arrivalSpeed="0.0"/>
  <flow id="JF15529" begin="0" fromJunction="J15" toJunction="J3" end="360" vehsPerHour="50.484174815465096" departLane="free" arrivalSpeed="0.0"/>
  <flow id="JF15530" begin="0" fromJunction="J15" toJunction="J6" end="360" vehsPerHour="44.56497608557876" departLane="free" arrivalSpeed="0.0"/>
  <flow id="JF15531" begin="0" fromJunction="J16" toJunction="J0" end="360" vehsPerHour="111.5731460412061" departLane="free" arrivalSpeed="0.0"/>
  <flow id="JF15532" begin="0" fromJunction="J16" toJunction="J12" end="360" vehsPerHour="26.53828746493729" departLane="free" arrivalSpeed="0.0"/>
  <flow id="JF15533" begin="0" fromJunction="J16" toJunction="J13" end="360" vehsPerHour="7.7578572999707465" departLane="free" arrivalSpeed="0.0"/>
  <flow id="JF15534" begin="0" fromJunction="J16" toJunction="J15" end="360" vehsPerHour="95.57574289614257" departLane="free" arrivalSpeed="0.0"/>
  <flow id="JF15535" begin="0" fromJunction="J16" toJunction="J2" end="360" vehsPerHour="28.786115183521797" departLane="free" arrivalSpeed="0.0"/>
  <flow id="JF15536" begin="0" fromJunction="J16" toJunction="J3" end="360" vehsPerHour="68.65432400091538" departLane="free" arrivalSpeed="0.0"/>
  <flow id="JF15537" begin="0" fromJunction="J16" toJunction="J6" end="360" vehsPerHour="112.930252187874" departLane="free" arrivalSpeed="0.0"/>
  <flow id="JF15538" begin="0" fromJunction="J16" toJunction="J7" end="360" vehsPerHour="100.18885086614848" departLane="free" arrivalSpeed="0.0"/>
  <flow id="JF15539" begin="0" fromJunction="J2" toJunction="J12" end="360" vehsPerHour="110.6143762044379" departLane="free" arrivalSpeed="0.0"/>
  <flow id="JF15540" begin="0" fromJunction="J2" toJunction="J13" end="360" vehsPerHour="4.958583456035217" departLane="free" arrivalSpeed="0.0"/>
  <flow id="JF15541" begin="0" fromJunction="J2" toJunction="J15" end="360" vehsPerHour="13.462361017442534" departLane="free" arrivalSpeed="0.0"/>
  <flow id="JF15542" begin="0" fromJunction="J2" toJunction="J16" end="360" vehsPerHour="50.134096326336454" departLane="free" arrivalSpeed="0.0"/>
  <flow id="JF15543" begin="0" fromJunction="J2" toJunction="J3" end="360" vehsPerHour="115.30877353588254" departLane="free" arrivalSpeed="0.0"/>
  <flow id="JF15544" begin="0" fromJunction="J2" toJunction="J7" end="360" vehsPerHour="81.3678311755985" departLane="free" arrivalSpeed="0.0"/>
  <flow id="JF15545" begin="0" fromJunction="J2" toJunction="J8" end="360" vehsPerHour="32.58450447809543" departLane="free" arrivalSpeed="0.0"/>
  <flow id="JF15546" begin="0" fromJunction="J2" toJunction="J9" end="360" vehsPerHour="46.369682674693536" departLane="free" arrivalSpeed="0.0"/>
  <flow id="JF15547" begin="0" fromJunction="J3" toJunction="J0" end="360" vehsPerHour="41.583770972998586" departLane="free" arrivalSpeed="0.0"/>
  <flow id="JF15548" begin="0" fromJunction="J3" toJunction="J12" end="360" vehsPerHour="5.636928969347371" departLane="free" arrivalSpeed="0.0"/>
  <flow id="JF15549" begin="0" fromJunction="J3" toJunction="J13" end="360" vehsPerHour="43.6136789781149" departLane="free" arrivalSpeed="0.0"/>
  <flow id="JF15550" begin="0" fromJunction="J3" toJunction="J14" end="360" vehsPerHour="23.14796026207368" departLane="free" arrivalSpeed="0.0"/>
  <flow id="JF15551" begin="0" fromJunction="J3" toJunction="J15" end="360" vehsPerHour="7.858131644459691" departLane="free" arrivalSpeed="0.0"/>
  <flow id="JF15552" begin="0" fromJunction="J3" toJunction="J6" end="360" vehsPerHour="48.38411930525743" departLane="free" arrivalSpeed="0.0"/>
  <flow id="JF15553" begin="0" fromJunction="J3" toJunction="J7" end="360" vehsPerHour="0.6362088575115944" departLane="free" arrivalSpeed="0.0"/>
  <flow id="JF15554" begin="0" fromJunction="J3" toJunction="J8" end="360" vehsPerHour="55.331250348467094" departLane="free" arrivalSpeed="0.0"/>
  <flow id="JF15555" begin="0" fromJunction="J3" toJunction="J9" end="360" vehsPerHour="2.7431971167135885" departLane="free" arrivalSpeed="0.0"/>
  <flow id="JF15556" begin="0" fromJunction="J6" toJunction="J12" end="360" vehsPerHour="10.920249425087613" departLane="free" arrivalSpeed="0.0"/>
  <flow id="JF15557" begin="0" fromJunction="J6" toJunction="J13" end="360" vehsPerHour="16.49353213918792" departLane="free" arrivalSpeed="0.0"/>
  <flow id="JF15558" begin="0" fromJunction="J6" toJunction="J7" end="360" vehsPerHour="44.68387310604238" departLane="free" arrivalSpeed="0.0"/>
  <flow id="JF15559" begin="0" fromJunction="J6" toJunction="J8" end="360" vehsPerHour="1.0822170249428456" departLane="free" arrivalSpeed="0.0"/>
  <flow id="JF15560" begin="0" fromJunction="J6" toJunction="J9" end="360" vehsPerHour="18.445789371779643" departLane="free" arrivalSpeed="0.0"/>
  <flow id="JF15561" begin="0" fromJunction="J7" toJunction="J0" end="360" vehsPerHour="12.838611757103932" departLane="free" arrivalSpeed="0.0"/>
  <flow id="JF15562" begin="0" fromJunction="J7" toJunction="J12" end="360" vehsPerHour="54.32165043664872" departLane="free" arrivalSpeed="0.0"/>
  <flow id="JF15563" begin="0" fromJunction="J7" toJunction="J13" end="360" vehsPerHour="27.539503719927186" departLane="free" arrivalSpeed="0.0"/>
  <flow id="JF15564" begin="0" fromJunction="J7" toJunction="J14" end="360" vehsPerHour="24.354954100379544" departLane="free" arrivalSpeed="0.0"/>
  <flow id="JF15565" begin="0" fromJunction="J7" toJunction="J15" end="360" vehsPerHour="57.07215399183074" departLane="free" arrivalSpeed="0.0"/>
  <flow id="JF15566" begin="0" fromJunction="J7" toJunction="J16" end="360" vehsPerHour="19.959798549115522" departLane="free" arrivalSpeed="0.0"/>
  <flow id="JF15567" begin="0" fromJunction="J7" toJunction="J6" end="360" vehsPerHour="16.022275955638733" departLane="free" arrivalSpeed="0.0"/>
  <flow id="JF15568" begin="0" fromJunction="J7" toJunction="J8" end="360" vehsPerHour="14.035215351043007" departLane="free" arrivalSpeed="0.0"/>
  <flow id="JF15569" begin="0" fromJunction="J7" toJunction="J9" end="360" vehsPerHour="21.85496898700015" departLane="free" arrivalSpeed="0.0"/>
  <flow id="JF15570" begin="0" fromJunction="J8" toJunction="J0" end="360" vehsPerHour="13.549533439493993" departLane="free" arrivalSpeed="0.0"/>
  <flow id="JF15571" begin="0" fromJunction="J8" toJunction="J12" end="360" vehsPerHour="23.114182336269593" departLane="free" arrivalSpeed="0.0"/>
  <flow id="JF15572" begin="0" fromJunction="J8" toJunction="J14" end="360" vehsPerHour="50.447818591561806" departLane="free" arrivalSpeed="0.0"/>
  <flow id="JF15573" begin="0" fromJunction="J8" toJunction="J15" end="360" vehsPerHour="21.295936262711322" departLane="free" arrivalSpeed="0.0"/>
  <flow id="JF15574" begin="0" fromJunction="J8" toJunction="J16" end="360" vehsPerHour="15.910512584525508" departLane="free" arrivalSpeed="0.0"/>
  <flow id="JF15575" begin="0" fromJunction="J8" toJunction="J3" end="360" vehsPerHour="68.02040432443319" departLane="free" arrivalSpeed="0.0"/>
  <flow id="JF15576" begin="0" fromJunction="J8" toJunction="J6" end="360" vehsPerHour="64.66443174650466" departLane="free" arrivalSpeed="0.0"/>
  <flow id="JF15577" begin="0" fromJunction="J9" toJunction="J0" end="360" vehsPerHour="24.338007956977698" departLane="free" arrivalSpeed="0.0"/>
  <flow id="JF15578" begin="0" fromJunction="J9" toJunction="J12" end="360" vehsPerHour="52.00866332663396" departLane="free" arrivalSpeed="0.0"/>
  <flow id="JF15579" begin="0" fromJunction="J9" toJunction="J13" end="360" vehsPerHour="34.280747108351" departLane="free" arrivalSpeed="0.0"/>
  <flow id="JF15580" begin="0" fromJunction="J9" toJunction="J2" end="360" vehsPerHour="16.11901374632005" departLane="free" arrivalSpeed="0.0"/>
  <flow id="JF15581" begin="0" fromJunction="J9" toJunction="J3" end="360" vehsPerHour="24.27365332328751" departLane="free" arrivalSpeed="0.0"/>
  <flow id="JF15582" begin="0" fromJunction="J9" toJunction="J7" end="360" vehsPerHour="10.822835053397496" departLane="free" arrivalSpeed="0.0"/>
  <flow id="JF15583" begin="0" fromJunction="J9" toJunction="J8" end="360" vehsPerHour="51.09237619985368" departLane="free" arrivalSpeed="0.0"/>
  <flow id="JF15584" begin="360" fromJunction="J0" toJunction="J13" end="720" vehsPerHour="40.266389093273084" departLane="free" arrivalSpeed="0.0"/>
  <flow id="JF15585" begin="360" fromJunction="J0" toJunction="J14" end="720" vehsPerHour="38.34692217702213" departLane="free" arrivalSpeed="0.0"/>
  <flow id="JF15586" begin="360" fromJunction="J0" toJunction="J15" end="720" vehsPerHour="62.42219503701784" departLane="free" arrivalSpeed="0.0"/>
  <flow id="JF15587" begin="360" fromJunction="J0" toJunction="J2" end="720" vehsPerHour="10.577321408983797" departLane="free" arrivalSpeed="0.0"/>
  <flow id="JF15588" begin="360" fromJunction="J0" toJunction="J3" end="720" vehsPerHour="57.372402496932565" departLane="free" arrivalSpeed="0.0"/>
  <flow id="JF15589" begin="360" fromJunction="J0" toJunction="J6" end="720" vehsPerHour="9.572009293089662" departLane="free" arrivalSpeed="0.0"/>
  <flow id="JF15590" begin="360" fromJunction="J0" toJunction="J7" end="720" vehsPerHour="12.199075775358107" departLane="free" arrivalSpeed="0.0"/>
  <flow id="JF15591" begin="360" fromJunction="J0" toJunction="J9" end="720" vehsPerHour="34.03771555912664" departLane="free" arrivalSpeed="0.0"/>
  <flow id="JF15592" begin="360" fromJunction="J12" toJunction="J0" end="720" vehsPerHour="2.241313526748407" departLane="free" arrivalSpeed="0.0"/>
  <flow id="JF15593" begin="360" fromJunction="J12" toJunction="J14" end="720" vehsPerHour="17.177740917675468" departLane="free" arrivalSpeed="0.0"/>
  <flow id="JF15594" begin="360" fromJunction="J12" toJunction="J16" end="720" vehsPerHour="33.53247323352556" departLane="free" arrivalSpeed="0.0"/>
  <flow id="JF15595" begin="360" fromJunction="J12" toJunction="J2" end="720" vehsPerHour="68.13273099839282" departLane="free" arrivalSpeed="0.0"/>
  <flow id="JF15596" begin="360" fromJunction="J12" toJunction="J3" end="720" vehsPerHour="35.70783217716802" departLane="free" arrivalSpeed="0.0"/>
  <flow id="JF15597" begin="360" fromJunction="J12" toJunction="J6" end="720" vehsPerHour="54.487727632927964" departLane="free" arrivalSpeed="0.0"/>
  <flow id="JF15598" begin="360" fromJunction="J12" toJunction="J7" end="720" vehsPerHour="4.535046373839681" departLane="free" arrivalSpeed="0.0"/>
  <flow id="JF15599" begin="360" fromJunction="J12" toJunction="J8" end="720" vehsPerHour="7.225025499878938" departLane="free" arrivalSpeed="0.0"/>
  <flow id="JF15600" begin="360" fromJunction="J13" toJunction="J0" end="720" vehsPerHour="25.385056653893955" departLane="free" arrivalSpeed="0.0"/>
  <flow id="JF15601" begin="360" fromJunction="J13" toJunction="J12" end="720" vehsPerHour="3.899054874619627" departLane="free" arrivalSpeed="0.0"/>
  <flow id="JF15602" begin="360" fromJunction="J13" toJunction="J14" end="720" vehsPerHour="27.17502332416444" departLane="free" arrivalSpeed="0.0"/>
  <flow id="JF15603" begin="360" fromJunction="J13" toJunction="J15" end="720" vehsPerHour="7.662360368442452" departLane="free" arrivalSpeed="0.0"/>
  <flow id="JF15604" begin="360" fromJunction="J13" toJunction="J16" end="720" vehsPerHour="46.22160081125663" departLane="free" arrivalSpeed="0.0"/>
  <flow id="JF15605" begin="360" fromJunction="J13" toJunction="J2" end="720" vehsPerHour="61.15976596754934" departLane="free" arrivalSpeed="0.0"/>
  <flow id="JF15606" begin="360" fromJunction="J13" toJunction="J3" end="720" vehsPerHour="31.490556961474066" departLane="free" arrivalSpeed="0.0"/>
  <flow id="JF15607" begin="360" fromJunction="J13" toJunction="J7" end="720" vehsPerHour="49.56461757556789" departLane="free" arrivalSpeed="0.0"/>
  <flow id="JF15608" begin="360" fromJunction="J13" toJunction="J9" end="720" vehsPerHour="39.217080444101924" departLane="free" arrivalSpeed="0.0"/>
  <flow id="JF15609" begin="360" fromJunction="J14" toJunction="J0" end="720" vehsPerHour="6.328855887115216" departLane="free" arrivalSpeed="0.0"/>
  <flow id="JF15610" begin="360" fromJunction="J14" toJunction="J13" end="720" vehsPerHour="12.980925209319183" departLane="free" arrivalSpeed="0.0"/>
  <flow id="JF15611" begin="360" fromJunction="J14" toJunction="J15" end="720" vehsPerHour="67.60093809453649" departLane="free" arrivalSpeed="0.0"/>
  <flow id="JF15612" begin="360" fromJunction="J14" toJunction="J16" end="720" vehsPerHour="33.990386103091275" departLane="free" arrivalSpeed="0.0"/>
  <flow id="JF15613" begin="360" fromJunction="J14" toJunction="J3" end="720" vehsPerHour="34.502327526164144" departLane="free" arrivalSpeed="0.0"/>
  <flow id="JF15614" begin="360" fromJunction="J14" toJunction="J6" end="720" vehsPerHour="35.41922250097678" departLane="free" arrivalSpeed="0.0"/>
  <flow id="JF15615" begin="360" fromJunction="J14" toJunction="J7" end="720" vehsPerHour="26.513286030652306" departLane="free" arrivalSpeed="0.0"/>
  <flow id="JF15616" begin="360" fromJunction="J14" toJunction="J8" end="720" vehsPerHour="34.23344851890062" departLane="free" arrivalSpeed="0.0"/>
  <flow id="JF15617" begin="360" fromJunction="J14" toJunction="J9" end="720" vehsPerHour="41.632448774055945" departLane="free" arrivalSpeed="0.0"/>
  <flow id="JF15618" begin="360" fromJunction="J15" toJunction="J12" end="720" vehsPerHour="43.00353685026317" departLane="free" arrivalSpeed="0.0"/>
  <flow id="JF15619" begin="360" fromJunction="J15" toJunction="J14" end="720" vehsPerHour="24.686783672150934" departLane="free" arrivalSpeed="0.0"/>
  <flow id="JF15620" begin="360" fromJunction="J15" toJunction="J16" end="720" vehsPerHour="38.07832425863366" departLane="free" arrivalSpeed="0.0"/>
  <flow id="JF15621" begin="360" fromJunction="J15" toJunction="J2" end="720" vehsPerHour="5.521536891975552" departLane="free" arrivalSpeed="0.0"/>
  <flow id="JF15622" begin="360" fromJunction="J15" toJunction="J3" end="720" vehsPerHour="37.1920081193588" departLane="free" arrivalSpeed="0.0"/>
  <flow id="JF15623" begin="360" fromJunction="J15" toJunction="J6" end="720" vehsPerHour="57.04648299157841" departLane="free" arrivalSpeed="0.0"/>
  <flow id="JF15624" begin="360" fromJunction="J15" toJunction="J8" end="720" vehsPerHour="65.39882649369187" departLane="free" arrivalSpeed="0.0"/>
  <flow id="JF15625" begin="360" fromJunction="J15" toJunction="J9" end="720" vehsPerHour="1.2764732550811106" departLane="free" arrivalSpeed="0.0"/>
  <flow id="JF15626" begin="360" fromJunction="J16" toJunction="J0" end="720" vehsPerHour="23.311421028615552" departLane="free" arrivalSpeed="0.0"/>
  <flow id="JF15627" begin="360" fromJunction="J16" toJunction="J13" end="720" vehsPerHour="85.74055152580111" departLane="free" arrivalSpeed="0.0"/>
  <flow id="JF15628" begin="360" fromJunction="J16" toJunction="J14" end="720" vehsPerHour="136.35882339027896" departLane="free" arrivalSpeed="0.0"/>
  <flow id="JF15629" begin="360" fromJunction="J16" toJunction="J15" end="720" vehsPerHour="12.380742549380997" departLane="free" arrivalSpeed="0.0"/>
  <flow id="JF15630" begin="360" fromJunction="J16" toJunction="J2" end="720" vehsPerHour="123.41895734071775" departLane="free" arrivalSpeed="0.0"/>
  <flow id="JF15631" begin="360" fromJunction="J16" toJunction="J3" end="720" vehsPerHour="76.17150458887981" departLane="free" arrivalSpeed="0.0"/>
  <flow id="JF15632" begin="360" fromJunction="J16" toJunction="J6" end="720" vehsPerHour="108.58881041345117" departLane="free" arrivalSpeed="0.0"/>
  <flow id="JF15633" begin="360" fromJunction="J16" toJunction="J7" end="720" vehsPerHour="24.264289427166272" departLane="free" arrivalSpeed="0.0"/>
  <flow id="JF15634" begin="360" fromJunction="J16" toJunction="J8" end="720" vehsPerHour="43.57959735057346" departLane="free" arrivalSpeed="0.0"/>
  <flow id="JF15635" begin="360" fromJunction="J16" toJunction="J9" end="720" vehsPerHour="81.60811691982705" departLane="free" arrivalSpeed="0.0"/>
  <flow id="JF15636" begin="360" fromJunction="J2" toJunction="J0" end="720" vehsPerHour="85.68877216407111" departLane="free" arrivalSpeed="0.0"/>
  <flow id="JF15637" begin="360" fromJunction="J2" toJunction="J13" end="720" vehsPerHour="97.83765978389424" departLane="free" arrivalSpeed="0.0"/>
  <flow id="JF15638" begin="360" fromJunction="J2" toJunction="J16" end="720" vehsPerHour="101.40790209767756" departLane="free" arrivalSpeed="0.0"/>
  <flow id="JF15639" begin="360" fromJunction="J2" toJunction="J3" end="720" vehsPerHour="22.690271981833007" departLane="free" arrivalSpeed="0.0"/>
  <flow id="JF15640" begin="360" fromJunction="J2" toJunction="J6" end="720" vehsPerHour="119.13794598081084" departLane="free" arrivalSpeed="0.0"/>
  <flow id="JF15641" begin="360" fromJunction="J2" toJunction="J8" end="720" vehsPerHour="56.60039295262762" departLane="free" arrivalSpeed="0.0"/>
  <flow id="JF15642" begin="360" fromJunction="J3" toJunction="J12" end="720" vehsPerHour="19.301093612855247" departLane="free" arrivalSpeed="0.0"/>
  <flow id="JF15643" begin="360" fromJunction="J3" toJunction="J13" end="720" vehsPerHour="0.2915594574040854" departLane="free" arrivalSpeed="0.0"/>
  <flow id="JF15644" begin="360" fromJunction="J3" toJunction="J14" end="720" vehsPerHour="37.983659286048564" departLane="free" arrivalSpeed="0.0"/>
  <flow id="JF15645" begin="360" fromJunction="J3" toJunction="J15" end="720" vehsPerHour="48.80719758654686" departLane="free" arrivalSpeed="0.0"/>
  <flow id="JF15646" begin="360" fromJunction="J3" toJunction="J2" end="720" vehsPerHour="28.018992155021916" departLane="free" arrivalSpeed="0.0"/>
  <flow id="JF15647" begin="360" fromJunction="J3" toJunction="J6" end="720" vehsPerHour="42.61167506650795" departLane="free" arrivalSpeed="0.0"/>
  <flow id="JF15648" begin="360" fromJunction="J3" toJunction="J7" end="720" vehsPerHour="59.15658083987703" departLane="free" arrivalSpeed="0.0"/>
  <flow id="JF15649" begin="360" fromJunction="J6" toJunction="J0" end="720" vehsPerHour="56.76928780810642" departLane="free" arrivalSpeed="0.0"/>
  <flow id="JF15650" begin="360" fromJunction="J6" toJunction="J12" end="720" vehsPerHour="55.861190770910945" departLane="free" arrivalSpeed="0.0"/>
  <flow id="JF15651" begin="360" fromJunction="J6" toJunction="J13" end="720" vehsPerHour="61.770721916466655" departLane="free" arrivalSpeed="0.0"/>
  <flow id="JF15652" begin="360" fromJunction="J6" toJunction="J14" end="720" vehsPerHour="55.394712342337584" departLane="free" arrivalSpeed="0.0"/>
  <flow id="JF15653" begin="360" fromJunction="J6" toJunction="J15" end="720" vehsPerHour="68.20442336674299" departLane="free" arrivalSpeed="0.0"/>
  <flow id="JF15654" begin="360" fromJunction="J6" toJunction="J2" end="720" vehsPerHour="12.72376565756621" departLane="free" arrivalSpeed="0.0"/>
  <flow id="JF15655" begin="360" fromJunction="J6" toJunction="J3" end="720" vehsPerHour="29.153518032492133" departLane="free" arrivalSpeed="0.0"/>
  <flow id="JF15656" begin="360" fromJunction="J6" toJunction="J7" end="720" vehsPerHour="45.68208748235478" departLane="free" arrivalSpeed="0.0"/>
  <flow id="JF15657" begin="360" fromJunction="J6" toJunction="J8" end="720" vehsPerHour="22.57836430348907" departLane="free" arrivalSpeed="0.0"/>
  <flow id="JF15658" begin="360" fromJunction="J6" toJunction="J9" end="720" vehsPerHour="3.31480059691824" departLane="free" arrivalSpeed="0.0"/>
  <flow id="JF15659" begin="360" fromJunction="J7" toJunction="J12" end="720" vehsPerHour="2.779880317537428" departLane="free" arrivalSpeed="0.0"/>
  <flow id="JF15660" begin="360" fromJunction="J7" toJunction="J14" end="720" vehsPerHour="39.06367794212059" departLane="free" arrivalSpeed="0.0"/>
  <flow id="JF15661" begin="360" fromJunction="J7" toJunction="J15" end="720" vehsPerHour="20.812162009334592" departLane="free" arrivalSpeed="0.0"/>
  <flow id="JF15662" begin="360" fromJunction="J7" toJunction="J2" end="720" vehsPerHour="52.1251990631042" departLane="free" arrivalSpeed="0.0"/>
  <flow id="JF15663" begin="360" fromJunction="J7" toJunction="J6" end="720" vehsPerHour="16.796575943233336" departLane="free" arrivalSpeed="0.0"/>
  <flow id="JF15664" begin="360" fromJunction="J7" toJunction="J9" end="720" vehsPerHour="38.49297662003986" departLane="free" arrivalSpeed="0.0"/>
  <flow id="JF15665" begin="360" fromJunction="J8" toJunction="J0" end="720" vehsPerHour="40.353418605431365" departLane="free" arrivalSpeed="0.0"/>
  <flow id="JF15666" begin="360" fromJunction="J8" toJunction="J13" end="720" vehsPerHour="14.20717247396074" departLane="free" arrivalSpeed="0.0"/>
  <flow id="JF15667" begin="360" fromJunction="J8" toJunction="J14" end="720" vehsPerHour="46.59373836132459" departLane="free" arrivalSpeed="0.0"/>
  <flow id="JF15668" begin="360" fromJunction="J8" toJunction="J15" end="720" vehsPerHour="49.68366700086232" departLane="free" arrivalSpeed="0.0"/>
  <flow id="JF15669" begin="360" fromJunction="J8" toJunction="J16" end="720" vehsPerHour="6.352903086386348" departLane="free" arrivalSpeed="0.0"/>
  <flow id="JF15670" begin="360" fromJunction="J8" toJunction="J3" end="720" vehsPerHour="42.48915471185055" departLane="free" arrivalSpeed="0.0"/>
  <flow id="JF15671" begin="360" fromJunction="J8" toJunction="J6" end="720" vehsPerHour="30.478440709820774" departLane="free" arrivalSpeed="0.0"/>
  <flow id="JF15672" begin="360" fromJunction="J8" toJunction="J7" end="720" vehsPerHour="32.017198219190256" departLane="free" arrivalSpeed="0.0"/>
  <flow id="JF15673" begin="360" fromJunction="J9" toJunction="J12" end="720" vehsPerHour="28.244713196244533" departLane="free" arrivalSpeed="0.0"/>
  <flow id="JF15674" begin="360" fromJunction="J9" toJunction="J13" end="720" vehsPerHour="17.916868960334572" departLane="free" arrivalSpeed="0.0"/>
  <flow id="JF15675" begin="360" fromJunction="J9" toJunction="J15" end="720" vehsPerHour="42.13070253911217" departLane="free" arrivalSpeed="0.0"/>
  <flow id="JF15676" begin="360" fromJunction="J9" toJunction="J16" end="720" vehsPerHour="25.04683241834152" departLane="free" arrivalSpeed="0.0"/>
  <flow id="JF15677" begin="360" fromJunction="J9" toJunction="J2" end="720" vehsPerHour="4.280994499178548" departLane="free" arrivalSpeed="0.0"/>
  <flow id="JF15678" begin="360" fromJunction="J9" toJunction="J6" end="720" vehsPerHour="53.48529815617175" departLane="free" arrivalSpeed="0.0"/>
  <flow id="JF15679" begin="360" fromJunction="J9" toJunction="J7" end="720" vehsPerHour="65.43124123569423" departLane="free" arrivalSpeed="0.0"/>
  <flow id="JF15680" begin="360" fromJunction="J9" toJunction="J8" end="720" vehsPerHour="62.708657121168066" departLane="free" arrivalSpeed="0.0"/>
  <flow id="JF15681" begin="720" fromJunction="J0" toJunction="J12" end="1080" vehsPerHour="14.206024925571962" departLane="free" arrivalSpeed="0.0"/>
  <flow id="JF15682" begin="720" fromJunction="J0" toJunction="J13" end="1080" vehsPerHour="35.42655083761496" departLane="free" arrivalSpeed="0.0"/>
  <flow id="JF15683" begin="720" fromJunction="J0" toJunction="J15" end="1080" vehsPerHour="2.8772148326280953" departLane="free" arrivalSpeed="0.0"/>
  <flow id="JF15684" begin="720" fromJunction="J0" toJunction="J16" end="1080" vehsPerHour="5.768941733942067" departLane="free" arrivalSpeed="0.0"/>
  <flow id="JF15685" begin="720" fromJunction="J0" toJunction="J3" end="1080" vehsPerHour="60.9902898088729" departLane="free" arrivalSpeed="0.0"/>
  <flow id="JF15686" begin="720" fromJunction="J0" toJunction="J9" end="1080" vehsPerHour="45.32041906900981" departLane="free" arrivalSpeed="0.0"/>
  <flow id="JF15687" begin="720" fromJunction="J12" toJunction="J13" end="1080" vehsPerHour="15.834862842731303" departLane="free" arrivalSpeed="0.0"/>
  <flow id="JF15688" begin="720" fromJunction="J12" toJunction="J15" end="1080" vehsPerHour="66.30467532600947" departLane="free" arrivalSpeed="0.0"/>
  <flow id="JF15689" begin="720" fromJunction="J12" toJunction="J16" end="1080" vehsPerHour="31.168641801733255" departLane="free" arrivalSpeed="0.0"/>
  <flow id="JF15690" begin="720" fromJunction="J12" toJunction="J2" end="1080" vehsPerHour="3.389609643725612" departLane="free" arrivalSpeed="0.0"/>
  <flow id="JF15691" begin="720" fromJunction="J12" toJunction="J3" end="1080" vehsPerHour="9.599109583072908" departLane="free" arrivalSpeed="0.0"/>