<?xml version="1.0" encoding="UTF-8"?>
<routes xmlns:xsi="http://www.w3.org/2001/XMLSchema-instance" xsi:noNamespaceSchemaLocation="http://sumo.dlr.de/xsd/routes_file.xsd">
  <flow id="JF3528" begin="0" fromJunction="J0" toJunction="J4" end="360" vehsPerHour="29.747453527991077" departLane="free"/>
  <flow id="JF3529" begin="0" fromJunction="J0" toJunction="J5" end="360" vehsPerHour="21.198491056556453" departLane="free"/>
  <flow id="JF3530" begin="0" fromJunction="J3" toJunction="J0" end="360" vehsPerHour="42.77203200544778" departLane="free"/>
  <flow id="JF3531" begin="0" fromJunction="J3" toJunction="J6" end="360" vehsPerHour="77.56430619997272" departLane="free"/>
  <flow id="JF3532" begin="0" fromJunction="J3" toJunction="J7" end="360" vehsPerHour="99.98626851556384" departLane="free"/>
  <flow id="JF3533" begin="0" fromJunction="J4" toJunction="J0" end="360" vehsPerHour="53.04727005955173" departLane="free"/>
  <flow id="JF3534" begin="0" fromJunction="J4" toJunction="J3" end="360" vehsPerHour="53.358635702026014" departLane="free"/>
  <flow id="JF3535" begin="0" fromJunction="J4" toJunction="J5" end="360" vehsPerHour="49.04577451418073" departLane="free"/>
  <flow id="JF3536" begin="0" fromJunction="J4" toJunction="J6" end="360" vehsPerHour="7.345266198036365" departLane="free"/>
  <flow id="JF3537" begin="0" fromJunction="J5" toJunction="J0" end="360" vehsPerHour="1.2083341511982866" departLane="free"/>
  <flow id="JF3538" begin="0" fromJunction="J5" toJunction="J6" end="360" vehsPerHour="24.94376938772557" departLane="free"/>
  <flow id="JF3539" begin="0" fromJunction="J5" toJunction="J7" end="360" vehsPerHour="37.629938467901056" departLane="free"/>
  <flow id="JF3540" begin="0" fromJunction="J6" toJunction="J0" end="360" vehsPerHour="21.04444233271132" departLane="free"/>
  <flow id="JF3541" begin="0" fromJunction="J6" toJunction="J3" end="360" vehsPerHour="16.787845252217743" departLane="free"/>
  <flow id="JF3542" begin="0" fromJunction="J6" toJunction="J5" end="360" vehsPerHour="11.151111589206662" departLane="free"/>
  <flow id="JF3543" begin="0" fromJunction="J6" toJunction="J7" end="360" vehsPerHour="1.8041843159715836" departLane="free"/>
  <flow id="JF3544" begin="0" fromJunction="J7" toJunction="J3" end="360" vehsPerHour="15.307757082915014" departLane="free"/>
  <flow id="JF3545" begin="0" fromJunction="J7" toJunction="J4" end="360" vehsPerHour="32.698352599093965" departLane="free"/>
  <flow id="JF3546" begin="0" fromJunction="J7" toJunction="J5" end="360" vehsPerHour="36.38916957275836" departLane="free"/>
  <flow id="JF3547" begin="0" fromJunction="J7" toJunction="J6" end="360" vehsPerHour="49.53077737348028" departLane="free"/>
  <flow id="JF3548" begin="360" fromJunction="J0" toJunction="J3" end="720" vehsPerHour="76.77842626929936" departLane="free"/>
  <flow id="JF3549" begin="360" fromJunction="J0" toJunction="J4" end="720" vehsPerHour="16.964644165887044" departLane="free"/>
  <flow id="JF3550" begin="360" fromJunction="J0" toJunction="J7" end="720" vehsPerHour="52.155645203282916" departLane="free"/>
  <flow id="JF3551" begin="360" fromJunction="J3" toJunction="J0" end="720" vehsPerHour="92.57594856183852" departLane="free"/>
  <flow id="JF3552" begin="360" fromJunction="J3" toJunction="J4" end="720" vehsPerHour="34.671069463644635" departLane="free"/>
  <flow id="JF3553" begin="360" fromJunction="J3" toJunction="J5" end="720" vehsPerHour="4.9089229058614" departLane="free"/>
  <flow id="JF3554" begin="360" fromJunction="J3" toJunction="J6" end="720" vehsPerHour="63.73607081339921" departLane="free"/>
  <flow id="JF3555" begin="360" fromJunction="J3" toJunction="J7" end="720" vehsPerHour="104.79554151967818" departLane="free"/>
  <flow id="JF3556" begin="360" fromJunction="J4" toJunction="J0" end="720" vehsPerHour="63.152826088466725" departLane="free"/>
  <flow id="JF3557" begin="360" fromJunction="J4" toJunction="J3" end="720" vehsPerHour="35.48775361733322" departLane="free"/>
  <flow id="JF3558" begin="360" fromJunction="J4" toJunction="J5" end="720" vehsPerHour="5.806265461239147" departLane="free"/>
  <flow id="JF3559" begin="360" fromJunction="J4" toJunction="J7" end="720" vehsPerHour="24.966794918325732" departLane="free"/>
  <flow id="JF3560" begin="360" fromJunction="J5" toJunction="J0" end="720" vehsPerHour="2.8348206933046174" departLane="free"/>
  <flow id="JF3561" begin="360" fromJunction="J5" toJunction="J3" end="720" vehsPerHour="0.6379939552470321" departLane="free"/>
  <flow id="JF3562" begin="360" fromJunction="J5" toJunction="J4" end="720" vehsPerHour="5.3874009444430095" departLane="free"/>
  <flow id="JF3563" begin="360" fromJunction="J5" toJunction="J6" end="720" vehsPerHour="17.263219991531923" departLane="free"/>
  <flow id="JF3564" begin="360" fromJunction="J5" toJunction="J7" end="720" vehsPerHour="13.943359241735132" departLane="free"/>
  <flow id="JF3565" begin="360" fromJunction="J6" toJunction="J3" end="720" vehsPerHour="18.768935557502914" departLane="free"/>
  <flow id="JF3566" begin="360" fromJunction="J6" toJunction="J4" end="720" vehsPerHour="66.06116928019466" departLane="free"/>
  <flow id="JF3567" begin="360" fromJunction="J6" toJunction="J5" end="720" vehsPerHour="4.583400275981823" departLane="free"/>
  <flow id="JF3568" begin="360" fromJunction="J6" toJunction="J7" end="720" vehsPerHour="32.71866386253129" departLane="free"/>
  <flow id="JF3569" begin="360" fromJunction="J7" toJunction="J0" end="720" vehsPerHour="0.9524558641653137" departLane="free"/>
  <flow id="JF3570" begin="360" fromJunction="J7" toJunction="J3" end="720" vehsPerHour="22.424222345949083" departLane="free"/>
  <flow id="JF3571" begin="360" fromJunction="J7" toJunction="J4" end="720" vehsPerHour="21.00277905120015" departLane="free"/>
  <flow id="JF3572" begin="360" fromJunction="J7" toJunction="J5" end="720" vehsPerHour="6.065337731485782" departLane="free"/>
  <flow id="JF3573" begin="360" fromJunction="J7" toJunction="J6" end="720" vehsPerHour="3.952654901965555" departLane="free"/>
  <flow id="JF3574" begin="720" fromJunction="J0" toJunction="J3" end="1080" vehsPerHour="7.034119618215723" departLane="free"/>
  <flow id="JF3575" begin="720" fromJunction="J0" toJunction="J7" end="1080" vehsPerHour="64.36025065448062" departLane="free"/>
  <flow id="JF3576" begin="720" fromJunction="J3" toJunction="J4" end="1080" vehsPerHour="4.838307823554521" departLane="free"/>
  <flow id="JF3577" begin="720" fromJunction="J3" toJunction="J5" end="1080" vehsPerHour="50.04608922829241" departLane="free"/>
  <flow id="JF3578" begin="720" fromJunction="J3" toJunction="J6" end="1080" vehsPerHour="69.64339858826759" departLane="free"/>
  <flow id="JF3579" begin="720" fromJunction="J3" toJunction="J7" end="1080" vehsPerHour="112.85838683920156" departLane="free"/>
  <flow id="JF3580" begin="720" fromJunction="J4" toJunction="J0" end="1080" vehsPerHour="47.49392663221578" departLane="free"/>
  <flow id="JF3581" begin="720" fromJunction="J4" toJunction="J6" end="1080" vehsPerHour="0.7410789674284807" departLane="free"/>
  <flow id="JF3582" begin="720" fromJunction="J4" toJunction="J7" end="1080" vehsPerHour="21.54097363014662" departLane="free"/>
  <flow id="JF3583" begin="720" fromJunction="J5" toJunction="J0" end="1080" vehsPerHour="9.7782453392389" departLane="free"/>
  <flow id="JF3584" begin="720" fromJunction="J5" toJunction="J4" end="1080" vehsPerHour="19.21354161421723" departLane="free"/>
  <flow id="JF3585" begin="720" fromJunction="J5" toJunction="J6" end="1080" vehsPerHour="22.55965795834388" departLane="free"/>
  <flow id="JF3586" begin="720" fromJunction="J5" toJunction="J7" end="1080" vehsPerHour="20.29120603742171" departLane="free"/>
  <flow id="JF3587" begin="720" fromJunction="J6" toJunction="J0" end="1080" vehsPerHour="43.82606723465263" departLane="free"/>
  <flow id="JF3588" begin="720" fromJunction="J6" toJunction="J4" end="1080" vehsPerHour="42.99950639756533" departLane="free"/>
  <flow id="JF3589" begin="720" fromJunction="J6" toJunction="J5" end="1080" vehsPerHour="67.23604442101468" departLane="free"/>
  <flow id="JF3590" begin="720" fromJunction="J6" toJunction="J7" end="1080" vehsPerHour="49.11365664435564" departLane="free"/>
  <flow id="JF3591" begin="720" fromJunction="J7" toJunction="J3" end="1080" vehsPerHour="7.461733192181687" departLane="free"/>
  <flow id="JF3592" begin="720" fromJunction="J7" toJunction="J6" end="1080" vehsPerHour="29.14906572553545" departLane="free"/>
  <flow id="JF3593" begin="1080" fromJunction="J0" toJunction="J3" end="1440" vehsPerHour="104.9907012320402" departLane="free"/>
  <flow id="JF3594" begin="1080" fromJunction="J0" toJunction="J5" end="1440" vehsPerHour="55.51910794803499" departLane="free"/>
  <flow id="JF3595" begin="1080" fromJunction="J0" toJunction="J6" end="1440" vehsPerHour="121.35437242694269" departLane="free"/>
  <flow id="JF3596" begin="1080" fromJunction="J0" toJunction="J7" end="1440" vehsPerHour="41.339595364267154" departLane="free"/>
  <flow id="JF3597" begin="1080" fromJunction="J3" toJunction="J4" end="1440" vehsPerHour="88.31088323724703" departLane="free"/>
  <flow id="JF3598" begin="1080" fromJunction="J3" toJunction="J5" end="1440" vehsPerHour="112.08751012857256" departLane="free"/>
  <flow id="JF3599" begin="1080" fromJunction="J3" toJunction="J6" end="1440" vehsPerHour="51.30912692571171" departLane="free"/>
  <flow id="JF3600" begin="1080" fromJunction="J3" toJunction="J7" end="1440" vehsPerHour="125.9885566164439" departLane="free"/>
  <flow id="JF3601" begin="1080" fromJunction="J4" toJunction="J3" end="1440" vehsPerHour="37.933406120699516" departLane="free"/>
  <flow id="JF3602" begin="1080" fromJunction="J4" toJunction="J7" end="1440" vehsPerHour="49.99758982016434" departLane="free"/>
  <flow id="JF3603" begin="1080" fromJunction="J5" toJunction="J0" end="1440" vehsPerHour="52.91254197609856" departLane="free"/>
  <flow id="JF3604" begin="1080" fromJunction="J5" toJunction="J3" end="1440" vehsPerHour="30.877140135813253" departLane="free"/>
  <flow id="JF3605" begin="1080" fromJunction="J5" toJunction="J6" end="1440" vehsPerHour="25.72701559972791" departLane="free"/>
  <flow id="JF3606" begin="1080" fromJunction="J5" toJunction="J7" end="1440" vehsPerHour="6.067252669549534" departLane="free"/>
  <flow id="JF3607" begin="1080" fromJunction="J6" toJunction="J0" end="1440" vehsPerHour="34.168297849754474" departLane="free"/>
  <flow id="JF3608" begin="1080" fromJunction="J6" toJunction="J3" end="1440" vehsPerHour="54.63394006606703" departLane="free"/>
  <flow id="JF3609" begin="1080" fromJunction="J6" toJunction="J5" end="1440" vehsPerHour="61.980839864727685" departLane="free"/>
  <flow id="JF3610" begin="1080" fromJunction="J7" toJunction="J3" end="1440" vehsPerHour="64.98628387373886" departLane="free"/>
  <flow id="JF3611" begin="1080" fromJunction="J7" toJunction="J5" end="1440" vehsPerHour="36.672024156012434" departLane="free"/>
  <flow id="JF3612" begin="1080" fromJunction="J7" toJunction="J6" end="1440" vehsPerHour="11.872870118268676" departLane="free"/>
  <flow id="JF3613" begin="1440" fromJunction="J0" toJunction="J3" end="1800" vehsPerHour="36.74516506796296" departLane="free"/>
  <flow id="JF3614" begin="1440" fromJunction="J0" toJunction="J4" end="1800" vehsPerHour="116.73686198557024" departLane="free"/>
  <flow id="JF3615" begin="1440" fromJunction="J0" toJunction="J6" end="1800" vehsPerHour="71.9055825405987" departLane="free"/>
  <flow id="JF3616" begin="1440" fromJunction="J4" toJunction="J0" end="1800" vehsPerHour="68.46346041774319" departLane="free"/>
  <flow id="JF3617" begin="1440" fromJunction="J4" toJunction="J3" end="1800" vehsPerHour="43.47348883259283" departLane="free"/>
  <flow id="JF3618" begin="1440" fromJunction="J4" toJunction="J5" end="1800" vehsPerHour="55.960572901496434" departLane="free"/>
  <flow id="JF3619" begin="1440" fromJunction="J4" toJunction="J6" end="1800" vehsPerHour="24.699809424003735" departLane="free"/>
  <flow id="JF3620" begin="1440" fromJunction="J4" toJunction="J7" end="1800" vehsPerHour="36.0733489307788" departLane="free"/>
  <flow id="JF3621" begin="1440" fromJunction="J5" toJunction="J3" end="1800" vehsPerHour="33.73709492888372" departLane="free"/>
  <flow id="JF3622" begin="1440" fromJunction="J5" toJunction="J4" end="1800" vehsPerHour="65.45978741873172" departLane="free"/>
  <flow id="JF3623" begin="1440" fromJunction="J6" toJunction="J0" end="1800" vehsPerHour="50.67809094982608" departLane="free"/>
  <flow id="JF3624" begin="1440" fromJunction="J6" toJunction="J4" end="1800" vehsPerHour="39.837351005105916" departLane="free"/>
  <flow id="JF3625" begin="1440" fromJunction="J6" toJunction="J5" end="1800" vehsPerHour="42.21949265534195" departLane="free"/>
  <flow id="JF3626" begin="1440" fromJunction="J6" toJunction="J7" end="1800" vehsPerHour="66.81017922957135" departLane="free"/>
  <flow id="JF3627" begin="1440" fromJunction="J7" toJunction="J0" end="1800" vehsPerHour="7.639736851819718" departLane="free"/>
  <flow id="JF3628" begin="1440" fromJunction="J7" toJunction="J3" end="1800" vehsPerHour="52.46982951784632" departLane="free"/>
  <flow id="JF3629" begin="1440" fromJunction="J7" toJunction="J4" end="1800" vehsPerHour="22.21173379163753" departLane="free"/>
  <flow id="JF3630" begin="1440" fromJunction="J7" toJunction="J6" end="1800" vehsPerHour="43.70711347054365" departLane="free"/>
  <flow id="JF3631" begin="1800" fromJunction="J0" toJunction="J3" end="2160" vehsPerHour="110.85524270073279" departLane="free"/>
  <flow id="JF3632" begin="1800" fromJunction="J0" toJunction="J4" end="2160" vehsPerHour="14.120993040787042" departLane="free"/>
  <flow id="JF3633" begin="1800" fromJunction="J0" toJunction="J5" end="2160" vehsPerHour="80.16055342728998" departLane="free"/>
  <flow id="JF3634" begin="1800" fromJunction="J0" toJunction="J7" end="2160" vehsPerHour="132.67326573564293" departLane="free"/>
  <flow id="JF3635" begin="1800" fromJunction="J3" toJunction="J0" end="2160" vehsPerHour="125.31598416596658" departLane="free"/>
  <flow id="JF3636" begin="1800" fromJunction="J3" toJunction="J4" end="2160" vehsPerHour="46.119282242998715" departLane="free"/>
  <flow id="JF3637" begin="1800" fromJunction="J3" toJunction="J5" end="2160" vehsPerHour="67.78569284338707" departLane="free"/>
  <flow id="JF3638" begin="1800" fromJunction="J3" toJunction="J6" end="2160" vehsPerHour="106.97465682269078" departLane="free"/>
  <flow id="JF3639" begin="1800" fromJunction="J3" toJunction="J7" end="2160" vehsPerHour="88.31006770041962" departLane="free"/>
  <flow id="JF3640" begin="1800" fromJunction="J4" toJunction="J0" end="2160" vehsPerHour="20.08352316852557" departLane="free"/>
  <flow id="JF3641" begin="1800" fromJunction="J4" toJunction="J3" end="2160" vehsPerHour="34.357992518882426" departLane="free"/>
  <flow id="JF3642" begin="1800" fromJunction="J4" toJunction="J5" end="2160" vehsPerHour="44.419442178834416" departLane="free"/>
  <flow id="JF3643" begin="1800" fromJunction="J4" toJunction="J6" end="2160" vehsPerHour="7.130809930254709" departLane="free"/>
  <flow id="JF3644" begin="1800" fromJunction="J4" toJunction="J7" end="2160" vehsPerHour="42.94931791967697" departLane="free"/>
  <flow id="JF3645" begin="1800" fromJunction="J5" toJunction="J0" end="2160" vehsPerHour="36.66605784815097" departLane="free"/>
  <flow id="JF3646" begin="1800" fromJunction="J5" toJunction="J3" end="2160" vehsPerHour="45.65228557315895" departLane="free"/>
  <flow id="JF3647" begin="1800" fromJunction="J5" toJunction="J4" end="2160" vehsPerHour="65.33033144080754" departLane="free"/>
  <flow id="JF3648" begin="1800" fromJunction="J5" toJunction="J6" end="2160" vehsPerHour="51.85457026780987" departLane="free"/>
  <flow id="JF3649" begin="1800" fromJunction="J5" toJunction="J7" end="2160" vehsPerHour="46.480556229360026" departLane="free"/>
  <flow id="JF3650" begin="1800" fromJunction="J6" toJunction="J0" end="2160" vehsPerHour="61.728555664080176" departLane="free"/>
  <flow id="JF3651" begin="1800" fromJunction="J6" toJunction="J3" end="2160" vehsPerHour="36.9128624287136" departLane="free"/>
  <flow id="JF3652" begin="1800" fromJunction="J7" toJunction="J0" end="2160" vehsPerHour="27.235604528416292" departLane="free"/>
  <flow id="JF3653" begin="1800" fromJunction="J7" toJunction="J3" end="2160" vehsPerHour="3.1602816155087536" departLane="free"/>
  <flow id="JF3654" begin="1800" fromJunction="J7" toJunction="J4" end="2160" vehsPerHour="12.960525895897478" departLane="free"/>
  <flow id="JF3655" begin="1800" fromJunction="J7" toJunction="J5" end="2160" vehsPerHour="44.33838361126606" departLane="free"/>
  <flow id="JF3656" begin="1800" fromJunction="J7" toJunction="J6" end="2160" vehsPerHour="32.21816169570041" departLane="free"/>
  <flow id="JF3657" begin="2160" fromJunction="J0" toJunction="J3" end="2520" vehsPerHour="120.78051392794079" departLane="free"/>
  <flow id="JF3658" begin="2160" fromJunction="J0" toJunction="J4" end="2520" vehsPerHour="54.247920150176135" departLane="free"/>
  <flow id="JF3659" begin="2160" fromJunction="J0" toJunction="J5" end="2520" vehsPerHour="98.30637641926496" departLane="free"/>
  <flow id="JF3660" begin="2160" fromJunction="J0" toJunction="J6" end="2520" vehsPerHour="70.33733220430007" departLane="free"/>
  <flow id="JF3661" begin="2160" fromJunction="J0" toJunction="J7" end="2520" vehsPerHour="125.5252029811764" departLane="free"/>
  <flow id="JF3662" begin="2160" fromJunction="J3" toJunction="J4" end="2520" vehsPerHour="13.404021432034954" departLane="free"/>
  <flow id="JF3663" begin="2160" fromJunction="J3" toJunction="J6" end="2520" vehsPerHour="100.73731062154" departLane="free"/>
  <flow id="JF3664" begin="2160" fromJunction="J3" toJunction="J7" end="2520" vehsPerHour="123.61569351098501" departLane="free"/>
  <flow id="JF3665" begin="2160" fromJunction="J4" toJunction="J0" end="2520" vehsPerHour="65.47303856708176" departLane="free"/>
  <flow id="JF3666" begin="2160" fromJunction="J4" toJunction="J5" end="2520" vehsPerHour="8.483773249775565" departLane="free"/>
  <flow id="JF3667" begin="2160" fromJunction="J4" toJunction="J7" end="2520" vehsPerHour="64.4258712877116" departLane="free"/>
  <flow id="JF3668" begin="2160" fromJunction="J5" toJunction="J0" end="2520" vehsPerHour="9.406791549468638" departLane="free"/>
  <flow id="JF3669" begin="2160" fromJunction="J5" toJunction="J7" end="2520" vehsPerHour="53.82256061387685" departLane="free"/>
  <flow id="JF3670" begin="2160" fromJunction="J6" toJunction="J0" end="2520" vehsPerHour="54.56773752938305" departLane="free"/>
  <flow id="JF3671" begin="2160" fromJunction="J6" toJunction="J3" end="2520" vehsPerHour="68.1189882012491" departLane="free"/>
  <flow id="JF3672" begin="2160" fromJunction="J6" toJunction="J4" end="2520" vehsPerHour="7.985747341437275" departLane="free"/>
  <flow id="JF3673" begin="2160" fromJunction="J6" toJunction="J5" end="2520" vehsPerHour="68.21283751270832" departLane="free"/>
  <flow id="JF3674" begin="2160" fromJunction="J7" toJunction="J0" end="2520" vehsPerHour="29.264294038091954" departLane="free"/>
  <flow id="JF3675" begin="2160" fromJunction="J7" toJunction="J3" end="2520" vehsPerHour="0.44300703153268656" departLane="free"/>
  <flow id="JF3676" begin="2160" fromJunction="J7" toJunction="J4" end="2520" vehsPerHour="4.000898918396214" departLane="free"/>
  <flow id="JF3677" begin="2160" fromJunction="J7" toJunction="J6" end="2520" vehsPerHour="46.592025577808705" departLane="free"/>
  <flow id="JF3678" begin="2520" fromJunction="J0" toJunction="J3" end="2880" vehsPerHour="39.72906997350319" departLane="free"/>
  <flow id="JF3679" begin="2520" fromJunction="J0" toJunction="J6" end="2880" vehsPerHour="79.64222939815122" departLane="free"/>
  <flow id="JF3680" begin="2520" fromJunction="J3" toJunction="J0" end="2880" vehsPerHour="123.21644130297334" departLane="free"/>
  <flow id="JF3681" begin="2520" fromJunction="J3" toJunction="J4" end="2880" vehsPerHour="94.14438845637473" departLane="free"/>
  <flow id="JF3682" begin="2520" fromJunction="J3" toJunction="J7" end="2880" vehsPerHour="19.474266746813516" departLane="free"/>
  <flow id="JF3683" begin="2520" fromJunction="J4" toJunction="J0" end="2880" vehsPerHour="52.029929086814896" departLane="free"/>
  <flow id="JF3684" begin="2520" fromJunction="J4" toJunction="J3" end="2880" vehsPerHour="12.302980240776366" departLane="free"/>
  <flow id="JF3685" begin="2520" fromJunction="J4" toJunction="J5" end="2880" vehsPerHour="58.79390005000139" departLane="free"/>
  <flow id="JF3686" begin="2520" fromJunction="J4" toJunction="J6" end="2880" vehsPerHour="64.22156196415204" departLane="free"/>
  <flow id="JF3687" begin="2520" fromJunction="J4" toJunction="J7" end="2880" vehsPerHour="45.97190662027152" departLane="free"/>
  <flow id="JF3688" begin="2520" fromJunction="J5" toJunction="J0" end="2880" vehsPerHour="4.557011927735983" departLane="free"/>
  <flow id="JF3689" begin="2520" fromJunction="J5" toJunction="J3" end="2880" vehsPerHour="11.546190806485765" departLane="free"/>
  <flow id="JF3690" begin="2520" fromJunction="J5" toJunction="J4" end="2880" vehsPerHour="31.214301843159586" departLane="free"/>
  <flow id="JF3691" begin="2520" fromJunction="J5" toJunction="J7" end="2880" vehsPerHour="46.241937565610094" departLane="free"/>
  <flow id="JF3692" begin="2520" fromJunction="J6" toJunction="J3" end="2880" vehsPerHour="62.44444602853772" departLane="free"/>
  <flow id="JF3693" begin="2520" fromJunction="J6" toJunction="J5" end="2880" vehsPerHour="59.67923096475112" departLane="free"/>
  <flow id="JF3694" begin="2520" fromJunction="J6" toJunction="J7" end="2880" vehsPerHour="19.471346976936672" departLane="free"/>
  <flow id="JF3695" begin="2520" fromJunction="J7" toJunction="J0" end="2880" vehsPerHour="18.98141227199647" departLane="free"/>
  <flow id="JF3696" begin="2520" fromJunction="J7" toJunction="J3" end="2880" vehsPerHour="54.31240748431564" departLane="free"/>
  <flow id="JF3697" begin="2520" fromJunction="J7" toJunction="J4" end="2880" vehsPerHour="5.805282498003877" departLane="free"/>
  <flow id="JF3698" begin="2520" fromJunction="J7" toJunction="J6" end="2880" vehsPerHour="61.93737696711802" departLane="free"/>
  <flow id="JF3699" begin="2880" fromJunction="J0" toJunction="J4" end="3240" vehsPerHour="116.35326099671418" departLane="free"/>
  <flow id="JF3700" begin="2880" fromJunction="J0" toJunction="J5" end="3240" vehsPerHour="67.06351977447457" departLane="free"/>
  <flow id="JF3701" begin="2880" fromJunction="J0" toJunction="J6" end="3240" vehsPerHour="63.86122767605927" departLane="free"/>
  <flow id="JF3702" begin="2880" fromJunction="J3" toJunction="J0" end="3240" vehsPerHour="60.50438137340044" departLane="free"/>
  <flow id="JF3703" begin="2880" fromJunction="J3" toJunction="J4" end="3240" vehsPerHour="1.7513530042220176" departLane="free"/>
  <flow id="JF3704" begin="2880" fromJunction="J3" toJunction="J5" end="3240" vehsPerHour="131.34010740949213" departLane="free"/>
  <flow id="JF3705" begin="2880" fromJunction="J3" toJunction="J6" end="3240" vehsPerHour="130.245735292548" departLane="free"/>
  <flow id="JF3706" begin="2880" fromJunction="J3" toJunction="J7" end="3240" vehsPerHour="63.751411751032336" departLane="free"/>
  <flow id="JF3707" begin="2880" fromJunction="J4" toJunction="J0" end="3240" vehsPerHour="53.2611962593105" departLane="free"/>
  <flow id="JF3708" begin="2880" fromJunction="J4" toJunction="J3" end="3240" vehsPerHour="25.100496183498212" departLane="free"/>
  <flow id="JF3709" begin="2880" fromJunction="J4" toJunction="J5" end="3240" vehsPerHour="40.465305331977945" departLane="free"/>
  <flow id="JF3710" begin="2880" fromJunction="J4" toJunction="J6" end="3240" vehsPerHour="48.10659820167352" departLane="free"/>
  <flow id="JF3711" begin="2880" fromJunction="J4" toJunction="J7" end="3240" vehsPerHour="27.96986786712715" departLane="free"/>
  <flow id="JF3712" begin="2880" fromJunction="J5" toJunction="J0" end="3240" vehsPerHour="28.06244133434682" departLane="free"/>
  <flow id="JF3713" begin="2880" fromJunction="J5" toJunction="J3" end="3240" vehsPerHour="60.60417227461406" departLane="free"/>
  <flow id="JF3714" begin="2880" fromJunction="J5" toJunction="J7" end="3240" vehsPerHour="50.271771350656984" departLane="free"/>
  <flow id="JF3715" begin="2880" fromJunction="J6" toJunction="J7" end="3240" vehsPerHour="31.661575212245697" departLane="free"/>
  <flow id="JF3716" begin="2880" fromJunction="J7" toJunction="J3" end="3240" vehsPerHour="33.46545643187841" departLane="free"/>
  <flow id="JF3717" begin="2880" fromJunction="J7" toJunction="J6" end="3240" vehsPerHour="31.432995466609697" departLane="free"/>
  <flow id="JF3718" begin="3240" fromJunction="J0" toJunction="J3" end="3600" vehsPerHour="66.85506166545346" departLane="free"/>
  <flow id="JF3719" begin="3240" fromJunction="J0" toJunction="J4" end="3600" vehsPerHour="76.05157707797376" departLane="free"/>
  <flow id="JF3720" begin="3240" fromJunction="J0" toJunction="J6" end="3600" vehsPerHour="127.66750201960953" departLane="free"/>
  <flow id="JF3721" begin="3240" fromJunction="J0" toJunction="J7" end="3600" vehsPerHour="48.41729341899063" departLane="free"/>
  <flow id="JF3722" begin="3240" fromJunction="J3" toJunction="J0" end="3600" vehsPerHour="30.32502468526419" departLane="free"/>
  <flow id="JF3723" begin="3240" fromJunction="J3" toJunction="J4" end="3600" vehsPerHour="124.47339712060841" departLane="free"/>
  <flow id="JF3724" begin="3240" fromJunction="J3" toJunction="J7" end="3600" vehsPerHour="42.493500301752185" departLane="free"/>
  <flow id="JF3725" begin="3240" fromJunction="J4" toJunction="J3" end="3600" vehsPerHour="10.267676216818854" departLane="free"/>
  <flow id="JF3726" begin="3240" fromJunction="J4" toJunction="J5" end="3600" vehsPerHour="17.210238739057" departLane="free"/>
  <flow id="JF3727" begin="3240" fromJunction="J4" toJunction="J6" end="3600" vehsPerHour="25.908770461089492" departLane="free"/>
  <flow id="JF3728" begin="3240" fromJunction="J5" toJunction="J0" end="3600" vehsPerHour="45.857025228613644" departLane="free"/>
  <flow id="JF3729" begin="3240" fromJunction="J5" toJunction="J3" end="3600" vehsPerHour="13.74967632754811" departLane="free"/>
  <flow id="JF3730" begin="3240" fromJunction="J5" toJunction="J6" end="3600" vehsPerHour="14.602859138501405" departLane="free"/>
  <flow id="JF3731" begin="3240" fromJunction="J6" toJunction="J0" end="3600" vehsPerHour="5.98196197454062" departLane="free"/>
  <flow id="JF3732" begin="3240" fromJunction="J6" toJunction="J3" end="3600" vehsPerHour="18.782549980574444" departLane="free"/>
  <flow id="JF3733" begin="3240" fromJunction="J6" toJunction="J4" end="3600" vehsPerHour="8.837447180418984" departLane="free"/>
  <flow id="JF3734" begin="3240" fromJunction="J6" toJunction="J5" end="3600" vehsPerHour="6.865215128106478" departLane="free"/>
  <flow id="JF3735" begin="3240" fromJunction="J6" toJunction="J7" end="3600" vehsPerHour="8.574869555730942" departLane="free"/>
  <flow id="JF3736" begin="3240" fromJunction="J7" toJunction="J0" end="3600" vehsPerHour="40.80419631288362" departLane="free"/>
  <flow id="JF3737" begin="3240" fromJunction="J7" toJunction="J4" end="3600" vehsPerHour="24.148274574956975" departLane="free"/>
  <flow id="JF3738" begin="3240" fromJunction="J7" toJunction="J5" end="3600" vehsPerHour="56.9887497342211" departLane="free"/>
  <flow id="JF3739" begin="3240" fromJunction="J7" toJunction="J6" end="3600" vehsPerHour="32.31340748885024" departLane="free"/>
  <flow id="JF3740" begin="3600" fromJunction="J0" toJunction="J5" end="3960" vehsPerHour="4.652521020836387" departLane="free"/>
  <flow id="JF3741" begin="3600" fromJunction="J0" toJunction="J6" end="3960" vehsPerHour="15.089416560592266" departLane="free"/>
  <flow id="JF3742" begin="3600" fromJunction="J0" toJunction="J7" end="3960" vehsPerHour="92.40198926309955" departLane="free"/>
  <flow id="JF3743" begin="3600" fromJunction="J3" toJunction="J0" end="3960" vehsPerHour="47.290791351363126" departLane="free"/>
  <flow id="JF3744" begin="3600" fromJunction="J3" toJunction="J4" end="3960" vehsPerHour="52.054904642325134" departLane="free"/>
  <flow id="JF3745" begin="3600" fromJunction="J3" toJunction="J5" end="3960" vehsPerHour="129.33725988540007" departLane="free"/>
  <flow id="JF3746" begin="3600" fromJunction="J3" toJunction="J6" end="3960" vehsPerHour="16.140021406984104" departLane="free"/>
  <flow id="JF3747" begin="3600" fromJunction="J3" toJunction="J7" end="3960" vehsPerHour="89.22234677605518" departLane="free"/>
  <flow id="JF3748" begin="3600" fromJunction="J4" toJunction="J0" end="3960" vehsPerHour="7.232596787707861" departLane="free"/>
  <flow id="JF3749" begin="3600" fromJunction="J4" toJunction="J3" end="3960" vehsPerHour="55.976317207339996" departLane="free"/>
  <flow id="JF3750" begin="3600" fromJunction="J4" toJunction="J5" end="3960" vehsPerHour="33.635935343863835" departLane="free"/>
  <flow id="JF3751" begin="3600" fromJunction="J4" toJunction="J6" end="3960" vehsPerHour="20.471598386914454" departLane="free"/>
  <flow id="JF3752" begin="3600" fromJunction="J4" toJunction="J7" end="3960" vehsPerHour="26.995056652046046" departLane="free"/>
  <flow id="JF3753" begin="3600" fromJunction="J5" toJunction="J0" end="3960" vehsPerHour="55.38433273491643" departLane="free"/>
  <flow id="JF3754" begin="3600" fromJunction="J5" toJunction="J3" end="3960" vehsPerHour="67.18041859627512" departLane="free"/>
  <flow id="JF3755" begin="3600" fromJunction="J5" toJunction="J7" end="3960" vehsPerHour="39.17822794174427" departLane="free"/>
  <flow id="JF3756" begin="3600" fromJunction="J6" toJunction="J3" end="3960" vehsPerHour="35.20310050106425" departLane="free"/>