<?xml version="1.0" encoding="UTF-8"?>
<routes xmlns:xsi="http://www.w3.org/2001/XMLSchema-instance" xsi:noNamespaceSchemaLocation="http://sumo.dlr.de/xsd/routes_file.xsd">
  <flow id="JF32220" begin="0" fromJunction="J0" toJunction="J3" end="60" vehsPerHour="86.20847602044924" departLane="free"/>
  <flow id="JF32221" begin="0" fromJunction="J3" toJunction="J0" end="60" vehsPerHour="21.951082132628994" departLane="free"/>
  <flow id="JF32222" begin="0" fromJunction="J0" toJunction="J5" end="60" vehsPerHour="85.39594179252478" departLane="free"/>
  <flow id="JF32223" begin="0" fromJunction="J0" toJunction="J6" end="60" vehsPerHour="141.86792449161067" departLane="free"/>
  <flow id="JF32224" begin="0" fromJunction="J0" toJunction="J7" end="60" vehsPerHour="252.59490741112387" departLane="free"/>
  <flow id="JF32225" begin="0" fromJunction="J0" toJunction="J4" end="60" vehsPerHour="466.52600927055147" departLane="free"/>
  <flow id="JF32226" begin="0" fromJunction="J3" toJunction="J5" end="60" vehsPerHour="342.0543675057548" departLane="free"/>
  <flow id="JF32227" begin="0" fromJunction="J3" toJunction="J6" end="60" vehsPerHour="149.22955161091568" departLane="free"/>
  <flow id="JF32228" begin="0" fromJunction="J3" toJunction="J7" end="60" vehsPerHour="518.3404537544284" departLane="free"/>
  <flow id="JF32229" begin="0" fromJunction="J3" toJunction="J4" end="60" vehsPerHour="378.80625760033564" departLane="free"/>
  <flow id="JF32230" begin="0" fromJunction="J5" toJunction="J6" end="60" vehsPerHour="53.958537353504894" departLane="free"/>
  <flow id="JF32231" begin="0" fromJunction="J5" toJunction="J7" end="60" vehsPerHour="56.88099887158532" departLane="free"/>
  <flow id="JF32232" begin="0" fromJunction="J5" toJunction="J4" end="60" vehsPerHour="8.804630355714226" departLane="free"/>
  <flow id="JF32233" begin="0" fromJunction="J6" toJunction="J5" end="60" vehsPerHour="48.75280450602215" departLane="free"/>
  <flow id="JF32234" begin="0" fromJunction="J6" toJunction="J7" end="60" vehsPerHour="28.11261160454298" departLane="free"/>
  <flow id="JF32235" begin="0" fromJunction="J6" toJunction="J4" end="60" vehsPerHour="17.182195735798846" departLane="free"/>
  <flow id="JF32236" begin="0" fromJunction="J7" toJunction="J5" end="60" vehsPerHour="57.891963121598025" departLane="free"/>
  <flow id="JF32237" begin="0" fromJunction="J7" toJunction="J6" end="60" vehsPerHour="58.88838934245589" departLane="free"/>
  <flow id="JF32238" begin="0" fromJunction="J7" toJunction="J4" end="60" vehsPerHour="42.789039805753276" departLane="free"/>
  <flow id="JF32239" begin="0" fromJunction="J4" toJunction="J5" end="60" vehsPerHour="23.753101169860027" departLane="free"/>
  <flow id="JF32240" begin="0" fromJunction="J4" toJunction="J6" end="60" vehsPerHour="9.708865077231364" departLane="free"/>
  <flow id="JF32241" begin="0" fromJunction="J4" toJunction="J7" end="60" vehsPerHour="7.660312489566471" departLane="free"/>
  <flow id="JF32242" begin="0" fromJunction="J5" toJunction="J0" end="60" vehsPerHour="55.23781677565734" departLane="free"/>
  <flow id="JF32243" begin="0" fromJunction="J5" toJunction="J3" end="60" vehsPerHour="216.17331144907914" departLane="free"/>
  <flow id="JF32244" begin="0" fromJunction="J6" toJunction="J0" end="60" vehsPerHour="73.03895561351965" departLane="free"/>
  <flow id="JF32245" begin="0" fromJunction="J6" toJunction="J3" end="60" vehsPerHour="48.71834556863189" departLane="free"/>
  <flow id="JF32246" begin="0" fromJunction="J7" toJunction="J0" end="60" vehsPerHour="188.56913814375605" departLane="free"/>
  <flow id="JF32247" begin="0" fromJunction="J7" toJunction="J3" end="60" vehsPerHour="196.88776956674323" departLane="free"/>
  <flow id="JF32248" begin="0" fromJunction="J4" toJunction="J0" end="60" vehsPerHour="58.06123696342802" departLane="free"/>
  <flow id="JF32249" begin="0" fromJunction="J4" toJunction="J3" end="60" vehsPerHour="85.58140479514087" departLane="free"/>
  <flow id="JF32250" begin="60" fromJunction="J0" toJunction="J3" end="120" vehsPerHour="33.43682696694863" departLane="free"/>
  <flow id="JF32251" begin="60" fromJunction="J3" toJunction="J0" end="120" vehsPerHour="58.748109455840996" departLane="free"/>
  <flow id="JF32252" begin="60" fromJunction="J0" toJunction="J5" end="120" vehsPerHour="137.45073470999577" departLane="free"/>
  <flow id="JF32253" begin="60" fromJunction="J0" toJunction="J6" end="120" vehsPerHour="281.4739266373584" departLane="free"/>
  <flow id="JF32254" begin="60" fromJunction="J0" toJunction="J7" end="120" vehsPerHour="540.2982529619231" departLane="free"/>
  <flow id="JF32255" begin="60" fromJunction="J0" toJunction="J4" end="120" vehsPerHour="446.6219281060793" departLane="free"/>
  <flow id="JF32256" begin="60" fromJunction="J3" toJunction="J5" end="120" vehsPerHour="328.8812705188028" departLane="free"/>
  <flow id="JF32257" begin="60" fromJunction="J3" toJunction="J6" end="120" vehsPerHour="522.098467657776" departLane="free"/>
  <flow id="JF32258" begin="60" fromJunction="J3" toJunction="J7" end="120" vehsPerHour="440.73317477606" departLane="free"/>
  <flow id="JF32259" begin="60" fromJunction="J3" toJunction="J4" end="120" vehsPerHour="414.37205403504595" departLane="free"/>
  <flow id="JF32260" begin="60" fromJunction="J5" toJunction="J6" end="120" vehsPerHour="30.428905534671394" departLane="free"/>
  <flow id="JF32261" begin="60" fromJunction="J5" toJunction="J7" end="120" vehsPerHour="6.535241828861301" departLane="free"/>
  <flow id="JF32262" begin="60" fromJunction="J5" toJunction="J4" end="120" vehsPerHour="43.64807428587644" departLane="free"/>
  <flow id="JF32263" begin="60" fromJunction="J6" toJunction="J5" end="120" vehsPerHour="14.818875837728632" departLane="free"/>
  <flow id="JF32264" begin="60" fromJunction="J6" toJunction="J7" end="120" vehsPerHour="12.986686607046158" departLane="free"/>
  <flow id="JF32265" begin="60" fromJunction="J6" toJunction="J4" end="120" vehsPerHour="8.95651330452999" departLane="free"/>
  <flow id="JF32266" begin="60" fromJunction="J7" toJunction="J5" end="120" vehsPerHour="12.349547645669476" departLane="free"/>
  <flow id="JF32267" begin="60" fromJunction="J7" toJunction="J6" end="120" vehsPerHour="30.22484516493164" departLane="free"/>
  <flow id="JF32268" begin="60" fromJunction="J7" toJunction="J4" end="120" vehsPerHour="60.99949342466928" departLane="free"/>
  <flow id="JF32269" begin="60" fromJunction="J4" toJunction="J5" end="120" vehsPerHour="32.8657345791526" departLane="free"/>
  <flow id="JF32270" begin="60" fromJunction="J4" toJunction="J6" end="120" vehsPerHour="50.95229566694308" departLane="free"/>
  <flow id="JF32271" begin="60" fromJunction="J4" toJunction="J7" end="120" vehsPerHour="26.708156321586568" departLane="free"/>
  <flow id="JF32272" begin="60" fromJunction="J5" toJunction="J0" end="120" vehsPerHour="22.459288372789608" departLane="free"/>
  <flow id="JF32273" begin="60" fromJunction="J5" toJunction="J3" end="120" vehsPerHour="16.089299899801034" departLane="free"/>
  <flow id="JF32274" begin="60" fromJunction="J6" toJunction="J0" end="120" vehsPerHour="76.09101947251811" departLane="free"/>
  <flow id="JF32275" begin="60" fromJunction="J6" toJunction="J3" end="120" vehsPerHour="265.82198035172405" departLane="free"/>
  <flow id="JF32276" begin="60" fromJunction="J7" toJunction="J0" end="120" vehsPerHour="239.71686727456625" departLane="free"/>
  <flow id="JF32277" begin="60" fromJunction="J7" toJunction="J3" end="120" vehsPerHour="144.14466869305818" departLane="free"/>
  <flow id="JF32278" begin="60" fromJunction="J4" toJunction="J0" end="120" vehsPerHour="166.65429416932633" departLane="free"/>
  <flow id="JF32279" begin="60" fromJunction="J4" toJunction="J3" end="120" vehsPerHour="78.58353442830952" departLane="free"/>
  <flow id="JF32280" begin="120" fromJunction="J0" toJunction="J3" end="180" vehsPerHour="126.85903281261699" departLane="free"/>
  <flow id="JF32281" begin="120" fromJunction="J3" toJunction="J0" end="180" vehsPerHour="37.04339814522234" departLane="free"/>
  <flow id="JF32282" begin="120" fromJunction="J0" toJunction="J5" end="180" vehsPerHour="93.45252177704855" departLane="free"/>
  <flow id="JF32283" begin="120" fromJunction="J0" toJunction="J6" end="180" vehsPerHour="50.82326484812377" departLane="free"/>
  <flow id="JF32284" begin="120" fromJunction="J0" toJunction="J7" end="180" vehsPerHour="59.83853122196093" departLane="free"/>
  <flow id="JF32285" begin="120" fromJunction="J0" toJunction="J4" end="180" vehsPerHour="47.29360215280501" departLane="free"/>
  <flow id="JF32286" begin="120" fromJunction="J3" toJunction="J5" end="180" vehsPerHour="64.75714631247833" departLane="free"/>
  <flow id="JF32287" begin="120" fromJunction="J3" toJunction="J6" end="180" vehsPerHour="469.77477513356695" departLane="free"/>
  <flow id="JF32288" begin="120" fromJunction="J3" toJunction="J7" end="180" vehsPerHour="205.41989312349065" departLane="free"/>
  <flow id="JF32289" begin="120" fromJunction="J3" toJunction="J4" end="180" vehsPerHour="524.2610332687793" departLane="free"/>
  <flow id="JF32290" begin="120" fromJunction="J5" toJunction="J6" end="180" vehsPerHour="65.15662861266853" departLane="free"/>
  <flow id="JF32291" begin="120" fromJunction="J5" toJunction="J7" end="180" vehsPerHour="16.790862083964754" departLane="free"/>
  <flow id="JF32292" begin="120" fromJunction="J5" toJunction="J4" end="180" vehsPerHour="68.059781401093" departLane="free"/>
  <flow id="JF32293" begin="120" fromJunction="J6" toJunction="J5" end="180" vehsPerHour="28.379016284067575" departLane="free"/>
  <flow id="JF32294" begin="120" fromJunction="J6" toJunction="J7" end="180" vehsPerHour="36.397250814136925" departLane="free"/>
  <flow id="JF32295" begin="120" fromJunction="J6" toJunction="J4" end="180" vehsPerHour="26.939283714641565" departLane="free"/>
  <flow id="JF32296" begin="120" fromJunction="J7" toJunction="J5" end="180" vehsPerHour="61.63260063978823" departLane="free"/>
  <flow id="JF32297" begin="120" fromJunction="J7" toJunction="J6" end="180" vehsPerHour="22.792845989048242" departLane="free"/>
  <flow id="JF32298" begin="120" fromJunction="J7" toJunction="J4" end="180" vehsPerHour="37.43499133285712" departLane="free"/>
  <flow id="JF32299" begin="120" fromJunction="J4" toJunction="J5" end="180" vehsPerHour="30.663317636610437" departLane="free"/>
  <flow id="JF32300" begin="120" fromJunction="J4" toJunction="J6" end="180" vehsPerHour="61.00443387963629" departLane="free"/>
  <flow id="JF32301" begin="120" fromJunction="J4" toJunction="J7" end="180" vehsPerHour="30.50085514753843" departLane="free"/>
  <flow id="JF32302" begin="120" fromJunction="J5" toJunction="J0" end="180" vehsPerHour="193.40487948779588" departLane="free"/>
  <flow id="JF32303" begin="120" fromJunction="J5" toJunction="J3" end="180" vehsPerHour="205.66031548089424" departLane="free"/>
  <flow id="JF32304" begin="120" fromJunction="J6" toJunction="J0" end="180" vehsPerHour="115.09510705160228" departLane="free"/>
  <flow id="JF32305" begin="120" fromJunction="J6" toJunction="J3" end="180" vehsPerHour="240.52215862715306" departLane="free"/>
  <flow id="JF32306" begin="120" fromJunction="J7" toJunction="J0" end="180" vehsPerHour="82.37324921810409" departLane="free"/>
  <flow id="JF32307" begin="120" fromJunction="J7" toJunction="J3" end="180" vehsPerHour="172.89697293271382" departLane="free"/>
  <flow id="JF32308" begin="120" fromJunction="J4" toJunction="J0" end="180" vehsPerHour="83.59967985997487" departLane="free"/>
  <flow id="JF32309" begin="120" fromJunction="J4" toJunction="J3" end="180" vehsPerHour="99.70862837367171" departLane="free"/>
  <flow id="JF32310" begin="180" fromJunction="J0" toJunction="J3" end="240" vehsPerHour="46.91052152744815" departLane="free"/>
  <flow id="JF32311" begin="180" fromJunction="J3" toJunction="J0" end="240" vehsPerHour="78.53687620733037" departLane="free"/>
  <flow id="JF32312" begin="180" fromJunction="J0" toJunction="J5" end="240" vehsPerHour="221.19549695199495" departLane="free"/>
  <flow id="JF32313" begin="180" fromJunction="J0" toJunction="J6" end="240" vehsPerHour="12.973415322347526" departLane="free"/>
  <flow id="JF32314" begin="180" fromJunction="J0" toJunction="J7" end="240" vehsPerHour="109.73652842192631" departLane="free"/>
  <flow id="JF32315" begin="180" fromJunction="J0" toJunction="J4" end="240" vehsPerHour="15.92779386956806" departLane="free"/>
  <flow id="JF32316" begin="180" fromJunction="J3" toJunction="J5" end="240" vehsPerHour="546.5093548071145" departLane="free"/>
  <flow id="JF32317" begin="180" fromJunction="J3" toJunction="J6" end="240" vehsPerHour="251.20190650398288" departLane="free"/>
  <flow id="JF32318" begin="180" fromJunction="J3" toJunction="J7" end="240" vehsPerHour="374.76663104340116" departLane="free"/>
  <flow id="JF32319" begin="180" fromJunction="J3" toJunction="J4" end="240" vehsPerHour="230.67887948933807" departLane="free"/>
  <flow id="JF32320" begin="240" fromJunction="J0" toJunction="J3" end="300" vehsPerHour="116.94267294131532" departLane="free"/>
  <flow id="JF32321" begin="240" fromJunction="J3" toJunction="J0" end="300" vehsPerHour="126.10928555159131" departLane="free"/>
  <flow id="JF32322" begin="240" fromJunction="J0" toJunction="J5" end="300" vehsPerHour="440.7095761362848" departLane="free"/>
  <flow id="JF32323" begin="240" fromJunction="J0" toJunction="J6" end="300" vehsPerHour="419.35528594342287" departLane="free"/>
  <flow id="JF32324" begin="240" fromJunction="J0" toJunction="J7" end="300" vehsPerHour="320.76993285497605" departLane="free"/>
  <flow id="JF32325" begin="240" fromJunction="J0" toJunction="J4" end="300" vehsPerHour="135.19860135519684" departLane="free"/>
  <flow id="JF32326" begin="240" fromJunction="J3" toJunction="J5" end="300" vehsPerHour="538.2456230814264" departLane="free"/>
  <flow id="JF32327" begin="240" fromJunction="J3" toJunction="J6" end="300" vehsPerHour="357.97571831665255" departLane="free"/>
  <flow id="JF32328" begin="240" fromJunction="J3" toJunction="J7" end="300" vehsPerHour="199.53284665094938" departLane="free"/>
  <flow id="JF32329" begin="240" fromJunction="J3" toJunction="J4" end="300" vehsPerHour="411.9994462087279" departLane="free"/>
  <flow id="JF32330" begin="240" fromJunction="J5" toJunction="J6" end="300" vehsPerHour="21.291796744635743" departLane="free"/>
  <flow id="JF32331" begin="240" fromJunction="J5" toJunction="J7" end="300" vehsPerHour="26.978600773206644" departLane="free"/>
  <flow id="JF32332" begin="240" fromJunction="J5" toJunction="J4" end="300" vehsPerHour="13.842430291466524" departLane="free"/>
  <flow id="JF32333" begin="240" fromJunction="J6" toJunction="J5" end="300" vehsPerHour="57.65407391831125" departLane="free"/>
  <flow id="JF32334" begin="240" fromJunction="J6" toJunction="J7" end="300" vehsPerHour="51.437980490286165" departLane="free"/>
  <flow id="JF32335" begin="240" fromJunction="J6" toJunction="J4" end="300" vehsPerHour="14.14417765943114" departLane="free"/>
  <flow id="JF32336" begin="240" fromJunction="J7" toJunction="J5" end="300" vehsPerHour="6.261130350159877" departLane="free"/>
  <flow id="JF32337" begin="240" fromJunction="J7" toJunction="J6" end="300" vehsPerHour="63.390012223300445" departLane="free"/>
  <flow id="JF32338" begin="240" fromJunction="J7" toJunction="J4" end="300" vehsPerHour="16.41129573106384" departLane="free"/>
  <flow id="JF32339" begin="240" fromJunction="J4" toJunction="J5" end="300" vehsPerHour="20.374904232688454" departLane="free"/>
  <flow id="JF32340" begin="240" fromJunction="J4" toJunction="J6" end="300" vehsPerHour="43.30736511262936" departLane="free"/>
  <flow id="JF32341" begin="240" fromJunction="J4" toJunction="J7" end="300" vehsPerHour="45.336659482135026" departLane="free"/>
  <flow id="JF32342" begin="240" fromJunction="J5" toJunction="J0" end="300" vehsPerHour="214.58299981033892" departLane="free"/>
  <flow id="JF32343" begin="240" fromJunction="J5" toJunction="J3" end="300" vehsPerHour="104.13912231406937" departLane="free"/>
  <flow id="JF32344" begin="240" fromJunction="J6" toJunction="J0" end="300" vehsPerHour="108.96726087077178" departLane="free"/>
  <flow id="JF32345" begin="240" fromJunction="J6" toJunction="J3" end="300" vehsPerHour="47.70848093584368" departLane="free"/>
  <flow id="JF32346" begin="240" fromJunction="J7" toJunction="J0" end="300" vehsPerHour="215.21330413868313" departLane="free"/>
  <flow id="JF32347" begin="240" fromJunction="J7" toJunction="J3" end="300" vehsPerHour="102.35129019810209" departLane="free"/>
  <flow id="JF32348" begin="240" fromJunction="J4" toJunction="J0" end="300" vehsPerHour="20.019399077999722" departLane="free"/>
  <flow id="JF32349" begin="240" fromJunction="J4" toJunction="J3" end="300" vehsPerHour="126.23780902861753" departLane="free"/>
  <flow id="JF32350" begin="300" fromJunction="J0" toJunction="J3" end="360" vehsPerHour="11.873619005358952" departLane="free"/>
  <flow id="JF32351" begin="300" fromJunction="J3" toJunction="J0" end="360" vehsPerHour="99.50450021158066" departLane="free"/>
  <flow id="JF32352" begin="300" fromJunction="J0" toJunction="J5" end="360" vehsPerHour="293.0620546939369" departLane="free"/>
  <flow id="JF32353" begin="300" fromJunction="J0" toJunction="J6" end="360" vehsPerHour="42.82181911270808" departLane="free"/>
  <flow id="JF32354" begin="300" fromJunction="J0" toJunction="J7" end="360" vehsPerHour="292.1477720233381" departLane="free"/>
  <flow id="JF32355" begin="300" fromJunction="J0" toJunction="J4" end="360" vehsPerHour="252.79846863013205" departLane="free"/>
  <flow id="JF32356" begin="300" fromJunction="J3" toJunction="J5" end="360" vehsPerHour="539.988225007072" departLane="free"/>
  <flow id="JF32357" begin="300" fromJunction="J3" toJunction="J6" end="360" vehsPerHour="320.45317804013956" departLane="free"/>
  <flow id="JF32358" begin="300" fromJunction="J3" toJunction="J7" end="360" vehsPerHour="248.31196419291234" departLane="free"/>
  <flow id="JF32359" begin="300" fromJunction="J3" toJunction="J4" end="360" vehsPerHour="386.2524497773842" departLane="free"/>
  <flow id="JF32360" begin="300" fromJunction="J5" toJunction="J6" end="360" vehsPerHour="6.935288328361073" departLane="free"/>
  <flow id="JF32361" begin="300" fromJunction="J5" toJunction="J7" end="360" vehsPerHour="39.22862340716178" departLane="free"/>
  <flow id="JF32362" begin="300" fromJunction="J5" toJunction="J4" end="360" vehsPerHour="5.335462942879372" departLane="free"/>
  <flow id="JF32363" begin="300" fromJunction="J6" toJunction="J5" end="360" vehsPerHour="6.573609031958942" departLane="free"/>
  <flow id="JF32364" begin="300" fromJunction="J6" toJunction="J7" end="360" vehsPerHour="19.515601692846378" departLane="free"/>
  <flow id="JF32365" begin="300" fromJunction="J6" toJunction="J4" end="360" vehsPerHour="48.712829119797384" departLane="free"/>
  <flow id="JF32366" begin="300" fromJunction="J7" toJunction="J5" end="360" vehsPerHour="4.68196510440539" departLane="free"/>
  <flow id="JF32367" begin="300" fromJunction="J7" toJunction="J6" end="360" vehsPerHour="29.52873153688615" departLane="free"/>
  <flow id="JF32368" begin="300" fromJunction="J7" toJunction="J4" end="360" vehsPerHour="27.787304519748467" departLane="free"/>
  <flow id="JF32369" begin="300" fromJunction="J4" toJunction="J5" end="360" vehsPerHour="48.706608903744915" departLane="free"/>
  <flow id="JF32370" begin="300" fromJunction="J4" toJunction="J6" end="360" vehsPerHour="1.873678693553507" departLane="free"/>
  <flow id="JF32371" begin="300" fromJunction="J4" toJunction="J7" end="360" vehsPerHour="43.181931254522596" departLane="free"/>
  <flow id="JF32372" begin="300" fromJunction="J5" toJunction="J0" end="360" vehsPerHour="18.123668771475895" departLane="free"/>
  <flow id="JF32373" begin="300" fromJunction="J5" toJunction="J3" end="360" vehsPerHour="92.30111031968278" departLane="free"/>
  <flow id="JF32374" begin="300" fromJunction="J6" toJunction="J0" end="360" vehsPerHour="262.18762076966937" departLane="free"/>
  <flow id="JF32375" begin="300" fromJunction="J6" toJunction="J3" end="360" vehsPerHour="199.20565709759808" departLane="free"/>
  <flow id="JF32376" begin="300" fromJunction="J7" toJunction="J0" end="360" vehsPerHour="118.59966011911055" departLane="free"/>
  <flow id="JF32377" begin="300" fromJunction="J7" toJunction="J3" end="360" vehsPerHour="198.3302221641361" departLane="free"/>
  <flow id="JF32378" begin="300" fromJunction="J4" toJunction="J0" end="360" vehsPerHour="8.362063572949166" departLane="free"/>
  <flow id="JF32379" begin="300" fromJunction="J4" toJunction="J3" end="360" vehsPerHour="9.96871002976865" departLane="free"/>
  <flow id="JF32380" begin="360" fromJunction="J0" toJunction="J3" end="420" vehsPerHour="131.1820025948919" departLane="free"/>
  <flow id="JF32381" begin="360" fromJunction="J3" toJunction="J0" end="420" vehsPerHour="41.07217154044533" departLane="free"/>
  <flow id="JF32382" begin="360" fromJunction="J0" toJunction="J5" end="420" vehsPerHour="359.58447897495563" departLane="free"/>
  <flow id="JF32383" begin="360" fromJunction="J0" toJunction="J6" end="420" vehsPerHour="206.11579863587033" departLane="free"/>
  <flow id="JF32384" begin="360" fromJunction="J0" toJunction="J7" end="420" vehsPerHour="179.82858672224754" departLane="free"/>
  <flow id="JF32385" begin="360" fromJunction="J0" toJunction="J4" end="420" vehsPerHour="288.8490229160466" departLane="free"/>
  <flow id="JF32386" begin="360" fromJunction="J3" toJunction="J5" end="420" vehsPerHour="168.40732927628878" departLane="free"/>
  <flow id="JF32387" begin="360" fromJunction="J3" toJunction="J6" end="420" vehsPerHour="233.04156091493093" departLane="free"/>
  <flow id="JF32388" begin="360" fromJunction="J3" toJunction="J7" end="420" vehsPerHour="163.12990945343356" departLane="free"/>
  <flow id="JF32389" begin="360" fromJunction="J3" toJunction="J4" end="420" vehsPerHour="94.02360141270574" departLane="free"/>
  <flow id="JF32390" begin="360" fromJunction="J5" toJunction="J6" end="420" vehsPerHour="7.04609717007939" departLane="free"/>
  <flow id="JF32391" begin="360" fromJunction="J5" toJunction="J7" end="420" vehsPerHour="35.407295752777976" departLane="free"/>
  <flow id="JF32392" begin="360" fromJunction="J5" toJunction="J4" end="420" vehsPerHour="60.441449135387074" departLane="free"/>
  <flow id="JF32393" begin="360" fromJunction="J6" toJunction="J5" end="420" vehsPerHour="23.637674660385954" departLane="free"/>
  <flow id="JF32394" begin="360" fromJunction="J6" toJunction="J7" end="420" vehsPerHour="13.880256133103657" departLane="free"/>
  <flow id="JF32395" begin="360" fromJunction="J6" toJunction="J4" end="420" vehsPerHour="52.768636409932654" departLane="free"/>
  <flow id="JF32396" begin="360" fromJunction="J7" toJunction="J5" end="420" vehsPerHour="61.04799540929698" departLane="free"/>
  <flow id="JF32397" begin="360" fromJunction="J7" toJunction="J6" end="420" vehsPerHour="2.6121509365523847" departLane="free"/>
  <flow id="JF32398" begin="360" fromJunction="J7" toJunction="J4" end="420" vehsPerHour="34.61490922234402" departLane="free"/>
  <flow id="JF32399" begin="360" fromJunction="J4" toJunction="J5" end="420" vehsPerHour="6.60899456833856" departLane="free"/>
  <flow id="JF32400" begin="360" fromJunction="J4" toJunction="J6" end="420" vehsPerHour="16.643300396655345" departLane="free"/>
  <flow id="JF32401" begin="360" fromJunction="J4" toJunction="J7" end="420" vehsPerHour="43.75890625353442" departLane="free"/>
  <flow id="JF32402" begin="360" fromJunction="J5" toJunction="J0" end="420" vehsPerHour="72.20219059230186" departLane="free"/>
  <flow id="JF32403" begin="360" fromJunction="J5" toJunction="J3" end="420" vehsPerHour="160.07681442366768" departLane="free"/>
  <flow id="JF32404" begin="360" fromJunction="J6" toJunction="J0" end="420" vehsPerHour="153.91361989087167" departLane="free"/>
  <flow id="JF32405" begin="360" fromJunction="J6" toJunction="J3" end="420" vehsPerHour="129.96004148067655" departLane="free"/>
  <flow id="JF32406" begin="360" fromJunction="J7" toJunction="J0" end="420" vehsPerHour="173.7353709927639" departLane="free"/>
  <flow id="JF32407" begin="360" fromJunction="J7" toJunction="J3" end="420" vehsPerHour="69.98370179092063" departLane="free"/>
  <flow id="JF32408" begin="360" fromJunction="J4" toJunction="J0" end="420" vehsPerHour="183.86703519754474" departLane="free"/>
  <flow id="JF32409" begin="360" fromJunction="J4" toJunction="J3" end="420" vehsPerHour="53.39079344298596" departLane="free"/>
  <flow id="JF32410" begin="420" fromJunction="J0" toJunction="J3" end="480" vehsPerHour="58.06493969980315" departLane="free"/>
  <flow id="JF32411" begin="420" fromJunction="J3" toJunction="J0" end="480" vehsPerHour="100.82135104082961" departLane="free"/>
  <flow id="JF32412" begin="420" fromJunction="J0" toJunction="J5" end="480" vehsPerHour="69.26281421290471" departLane="free"/>
  <flow id="JF32413" begin="420" fromJunction="J0" toJunction="J6" end="480" vehsPerHour="364.67916409454773" departLane="free"/>
  <flow id="JF32414" begin="420" fromJunction="J0" toJunction="J7" end="480" vehsPerHour="74.88558262873654" departLane="free"/>
  <flow id="JF32415" begin="420" fromJunction="J0" toJunction="J4" end="480" vehsPerHour="444.19583538915424" departLane="free"/>
  <flow id="JF32416" begin="420" fromJunction="J3" toJunction="J5" end="480" vehsPerHour="67.04446425458232" departLane="free"/>
  <flow id="JF32417" begin="420" fromJunction="J3" toJunction="J6" end="480" vehsPerHour="67.99593844290456" departLane="free"/>
  <flow id="JF32418" begin="420" fromJunction="J3" toJunction="J7" end="480" vehsPerHour="416.3741612326" departLane="free"/>
  <flow id="JF32419" begin="420" fromJunction="J3" toJunction="J4" end="480" vehsPerHour="179.52689677149172" departLane="free"/>
  <flow id="JF32420" begin="420" fromJunction="J5" toJunction="J6" end="480" vehsPerHour="10.743614746140729" departLane="free"/>
  <flow id="JF32421" begin="420" fromJunction="J5" toJunction="J7" end="480" vehsPerHour="23.532872993392346" departLane="free"/>
  <flow id="JF32422" begin="420" fromJunction="J5" toJunction="J4" end="480" vehsPerHour="34.29636948848626" departLane="free"/>
  <flow id="JF32423" begin="420" fromJunction="J6" toJunction="J5" end="480" vehsPerHour="20.64245527667511" departLane="free"/>
  <flow id="JF32424" begin="420" fromJunction="J6" toJunction="J7" end="480" vehsPerHour="52.74768360064628" departLane="free"/>
  <flow id="JF32425" begin="420" fromJunction="J6" toJunction="J4" end="480" vehsPerHour="51.612086506139114" departLane="free"/>
  <flow id="JF32426" begin="420" fromJunction="J7" toJunction="J5" end="480" vehsPerHour="64.00568050178413" departLane="free"/>
  <flow id="JF32427" begin="420" fromJunction="J7" toJunction="J6" end="480" vehsPerHour="15.814138461951991" departLane="free"/>
  <flow id="JF32428" begin="420" fromJunction="J7" toJunction="J4" end="480" vehsPerHour="29.808636510835534" departLane="free"/>
  <flow id="JF32429" begin="420" fromJunction="J4" toJunction="J5" end="480" vehsPerHour="48.715632202518044" departLane="free"/>
  <flow id="JF32430" begin="420" fromJunction="J4" toJunction="J6" end="480" vehsPerHour="14.6758066153048" departLane="free"/>
  <flow id="JF32431" begin="420" fromJunction="J4" toJunction="J7" end="480" vehsPerHour="14.734181448006117" departLane="free"/>
  <flow id="JF32432" begin="420" fromJunction="J5" toJunction="J0" end="480" vehsPerHour="115.0657638720413" departLane="free"/>
  <flow id="JF32433" begin="420" fromJunction="J5" toJunction="J3" end="480" vehsPerHour="37.51426036441338" departLane="free"/>
  <flow id="JF32434" begin="420" fromJunction="J6" toJunction="J0" end="480" vehsPerHour="216.4648813031215" departLane="free"/>
  <flow id="JF32435" begin="420" fromJunction="J6" toJunction="J3" end="480" vehsPerHour="169.65880009414906" departLane="free"/>
  <flow id="JF32436" begin="420" fromJunction="J7" toJunction="J0" end="480" vehsPerHour="208.06526185530592" departLane="free"/>
  <flow id="JF32437" begin="420" fromJunction="J7" toJunction="J3" end="480" vehsPerHour="211.68768417669077" departLane="free"/>
  <flow id="JF32438" begin="420" fromJunction="J4" toJunction="J0" end="480" vehsPerHour="246.11300002428294" departLane="free"/>
  <flow id="JF32439" begin="420" fromJunction="J4" toJunction="J3" end="480" vehsPerHour="90.44234428983441" departLane="free"/>
  <flow id="JF32440" begin="480" fromJunction="J0" toJunction="J3" end="540" vehsPerHour="9.519785503874628" departLane="free"/>
  <flow id="JF32441" begin="480" fromJunction="J3" toJunction="J0" end="540" vehsPerHour="122.53972840954444" departLane="free"/>
  <flow id="JF32442" begin="480" fromJunction="J0" toJunction="J5" end="540" vehsPerHour="408.09675740344267" departLane="free"/>
  <flow id="JF32443" begin="480" fromJunction="J0" toJunction="J6" end="540" vehsPerHour="244.7952935516147" departLane="free"/>
  <flow id="JF32444" begin="480" fromJunction="J0" toJunction="J7" end="540" vehsPerHour="384.4192667210317" departLane="free"/>
  <flow id="JF32445" begin="480" fromJunction="J0" toJunction="J4" end="540" vehsPerHour="22.695053229780665" departLane="free"/>
  <flow id="JF32446" begin="480" fromJunction="J3" toJunction="J5" end="540" vehsPerHour="490.8277879355995" departLane="free"/>
  <flow id="JF32447" begin="480" fromJunction="J3" toJunction="J6" end="540" vehsPerHour="402.72145446361804" departLane="free"/>
  <flow id="JF32448" begin="480" fromJunction="J3" toJunction="J7" end="540" vehsPerHour="376.0560954955253" departLane="free"/>
  <flow id="JF32449" begin="480" fromJunction="J3" toJunction="J4" end="540" vehsPerHour="102.05628293982303" departLane="free"/>
  <flow id="JF32450" begin="480" fromJunction="J5" toJunction="J6" end="540" vehsPerHour="54.28649265051944" departLane="free"/>