<?xml version="1.0" encoding="UTF-8"?>
<routes xmlns:xsi="http://www.w3.org/2001/XMLSchema-instance" xsi:noNamespaceSchemaLocation="http://sumo.dlr.de/xsd/routes_file.xsd">
  <flow id="JF3498" begin="0" fromJunction="J0" toJunction="J3" end="360" vehsPerHour="126.92613454717583" departLane="free"/>
  <flow id="JF3499" begin="0" fromJunction="J0" toJunction="J4" end="360" vehsPerHour="38.21149791719597" departLane="free"/>
  <flow id="JF3500" begin="0" fromJunction="J0" toJunction="J5" end="360" vehsPerHour="130.98068582535612" departLane="free"/>
  <flow id="JF3501" begin="0" fromJunction="J0" toJunction="J6" end="360" vehsPerHour="122.47591780033137" departLane="free"/>
  <flow id="JF3502" begin="0" fromJunction="J0" toJunction="J7" end="360" vehsPerHour="80.38489592095607" departLane="free"/>
  <flow id="JF3503" begin="0" fromJunction="J3" toJunction="J5" end="360" vehsPerHour="82.72037526649488" departLane="free"/>
  <flow id="JF3504" begin="0" fromJunction="J3" toJunction="J7" end="360" vehsPerHour="56.13338675700358" departLane="free"/>
  <flow id="JF3505" begin="0" fromJunction="J4" toJunction="J0" end="360" vehsPerHour="42.53198568345487" departLane="free"/>
  <flow id="JF3506" begin="0" fromJunction="J4" toJunction="J3" end="360" vehsPerHour="18.225905283506393" departLane="free"/>
  <flow id="JF3507" begin="0" fromJunction="J4" toJunction="J5" end="360" vehsPerHour="24.8173991669919" departLane="free"/>
  <flow id="JF3508" begin="0" fromJunction="J4" toJunction="J6" end="360" vehsPerHour="13.753442053988492" departLane="free"/>
  <flow id="JF3509" begin="0" fromJunction="J4" toJunction="J7" end="360" vehsPerHour="62.861659506691595" departLane="free"/>
  <flow id="JF3510" begin="0" fromJunction="J5" toJunction="J0" end="360" vehsPerHour="42.96707570204748" departLane="free"/>
  <flow id="JF3511" begin="0" fromJunction="J5" toJunction="J3" end="360" vehsPerHour="45.08019246598042" departLane="free"/>
  <flow id="JF3512" begin="0" fromJunction="J5" toJunction="J4" end="360" vehsPerHour="16.374436000219042" departLane="free"/>
  <flow id="JF3513" begin="0" fromJunction="J5" toJunction="J6" end="360" vehsPerHour="8.859346772996986" departLane="free"/>
  <flow id="JF3514" begin="0" fromJunction="J5" toJunction="J7" end="360" vehsPerHour="44.131708505157036" departLane="free"/>
  <flow id="JF3515" begin="0" fromJunction="J6" toJunction="J3" end="360" vehsPerHour="22.53527692161139" departLane="free"/>
  <flow id="JF3516" begin="0" fromJunction="J6" toJunction="J7" end="360" vehsPerHour="3.376575431215761" departLane="free"/>
  <flow id="JF3517" begin="0" fromJunction="J7" toJunction="J0" end="360" vehsPerHour="62.980331264167326" departLane="free"/>
  <flow id="JF3518" begin="0" fromJunction="J7" toJunction="J3" end="360" vehsPerHour="8.777298339218648" departLane="free"/>
  <flow id="JF3519" begin="0" fromJunction="J7" toJunction="J4" end="360" vehsPerHour="59.116281102481935" departLane="free"/>
  <flow id="JF3520" begin="0" fromJunction="J7" toJunction="J5" end="360" vehsPerHour="66.75029077214113" departLane="free"/>
  <flow id="JF3521" begin="0" fromJunction="J7" toJunction="J6" end="360" vehsPerHour="0.5995171703407705" departLane="free"/>
  <flow id="JF3522" begin="360" fromJunction="J0" toJunction="J3" end="720" vehsPerHour="56.67105499202457" departLane="free"/>
  <flow id="JF3523" begin="360" fromJunction="J0" toJunction="J5" end="720" vehsPerHour="1.27488197599672" departLane="free"/>
  <flow id="JF3524" begin="360" fromJunction="J0" toJunction="J6" end="720" vehsPerHour="84.52611073297419" departLane="free"/>
  <flow id="JF3525" begin="360" fromJunction="J0" toJunction="J7" end="720" vehsPerHour="31.08646911690383" departLane="free"/>
  <flow id="JF3526" begin="360" fromJunction="J3" toJunction="J0" end="720" vehsPerHour="7.425353860660639" departLane="free"/>
  <flow id="JF3527" begin="360" fromJunction="J3" toJunction="J4" end="720" vehsPerHour="95.87119247787737" departLane="free"/>
  <flow id="JF3528" begin="360" fromJunction="J3" toJunction="J5" end="720" vehsPerHour="95.47977423377812" departLane="free"/>
  <flow id="JF3529" begin="360" fromJunction="J3" toJunction="J7" end="720" vehsPerHour="83.79819229700125" departLane="free"/>
  <flow id="JF3530" begin="360" fromJunction="J4" toJunction="J3" end="720" vehsPerHour="25.642531006806152" departLane="free"/>
  <flow id="JF3531" begin="360" fromJunction="J4" toJunction="J6" end="720" vehsPerHour="57.3215978838092" departLane="free"/>
  <flow id="JF3532" begin="360" fromJunction="J5" toJunction="J0" end="720" vehsPerHour="28.313375103960144" departLane="free"/>
  <flow id="JF3533" begin="360" fromJunction="J5" toJunction="J7" end="720" vehsPerHour="40.27477021447731" departLane="free"/>
  <flow id="JF3534" begin="360" fromJunction="J6" toJunction="J0" end="720" vehsPerHour="11.214019897611436" departLane="free"/>
  <flow id="JF3535" begin="360" fromJunction="J6" toJunction="J3" end="720" vehsPerHour="0.3508798432425122" departLane="free"/>
  <flow id="JF3536" begin="360" fromJunction="J6" toJunction="J4" end="720" vehsPerHour="28.44208641788835" departLane="free"/>
  <flow id="JF3537" begin="360" fromJunction="J6" toJunction="J5" end="720" vehsPerHour="43.686418826323695" departLane="free"/>
  <flow id="JF3538" begin="360" fromJunction="J6" toJunction="J7" end="720" vehsPerHour="57.56252610934216" departLane="free"/>
  <flow id="JF3539" begin="360" fromJunction="J7" toJunction="J0" end="720" vehsPerHour="27.58311153238407" departLane="free"/>
  <flow id="JF3540" begin="360" fromJunction="J7" toJunction="J3" end="720" vehsPerHour="23.043129635125272" departLane="free"/>
  <flow id="JF3541" begin="360" fromJunction="J7" toJunction="J4" end="720" vehsPerHour="63.027049890152284" departLane="free"/>
  <flow id="JF3542" begin="360" fromJunction="J7" toJunction="J5" end="720" vehsPerHour="43.17098833275998" departLane="free"/>
  <flow id="JF3543" begin="360" fromJunction="J7" toJunction="J6" end="720" vehsPerHour="3.430679288826144" departLane="free"/>
  <flow id="JF3544" begin="720" fromJunction="J0" toJunction="J5" end="1080" vehsPerHour="20.24747673407622" departLane="free"/>
  <flow id="JF3545" begin="720" fromJunction="J0" toJunction="J7" end="1080" vehsPerHour="80.23583535334427" departLane="free"/>
  <flow id="JF3546" begin="720" fromJunction="J3" toJunction="J4" end="1080" vehsPerHour="128.33361696021635" departLane="free"/>
  <flow id="JF3547" begin="720" fromJunction="J3" toJunction="J5" end="1080" vehsPerHour="84.08759734845259" departLane="free"/>
  <flow id="JF3548" begin="720" fromJunction="J3" toJunction="J6" end="1080" vehsPerHour="39.728871963816346" departLane="free"/>
  <flow id="JF3549" begin="720" fromJunction="J3" toJunction="J7" end="1080" vehsPerHour="14.552631201196949" departLane="free"/>
  <flow id="JF3550" begin="720" fromJunction="J4" toJunction="J3" end="1080" vehsPerHour="55.9408997660341" departLane="free"/>
  <flow id="JF3551" begin="720" fromJunction="J4" toJunction="J5" end="1080" vehsPerHour="11.55163920986812" departLane="free"/>
  <flow id="JF3552" begin="720" fromJunction="J4" toJunction="J6" end="1080" vehsPerHour="15.97153185621523" departLane="free"/>
  <flow id="JF3553" begin="720" fromJunction="J4" toJunction="J7" end="1080" vehsPerHour="32.05566264012539" departLane="free"/>
  <flow id="JF3554" begin="720" fromJunction="J5" toJunction="J3" end="1080" vehsPerHour="40.72853504746271" departLane="free"/>
  <flow id="JF3555" begin="720" fromJunction="J5" toJunction="J4" end="1080" vehsPerHour="2.8945578871479083" departLane="free"/>
  <flow id="JF3556" begin="720" fromJunction="J5" toJunction="J6" end="1080" vehsPerHour="2.64389878149676" departLane="free"/>
  <flow id="JF3557" begin="720" fromJunction="J6" toJunction="J3" end="1080" vehsPerHour="8.915222830596065" departLane="free"/>
  <flow id="JF3558" begin="720" fromJunction="J6" toJunction="J5" end="1080" vehsPerHour="42.318923073026255" departLane="free"/>
  <flow id="JF3559" begin="720" fromJunction="J6" toJunction="J7" end="1080" vehsPerHour="17.214005813101842" departLane="free"/>
  <flow id="JF3560" begin="720" fromJunction="J7" toJunction="J3" end="1080" vehsPerHour="47.36985305750083" departLane="free"/>
  <flow id="JF3561" begin="720" fromJunction="J7" toJunction="J5" end="1080" vehsPerHour="46.29989045526637" departLane="free"/>
  <flow id="JF3562" begin="720" fromJunction="J7" toJunction="J6" end="1080" vehsPerHour="35.926391357495675" departLane="free"/>
  <flow id="JF3563" begin="1080" fromJunction="J0" toJunction="J4" end="1440" vehsPerHour="60.75343338060595" departLane="free"/>
  <flow id="JF3564" begin="1080" fromJunction="J0" toJunction="J5" end="1440" vehsPerHour="36.835228657504544" departLane="free"/>
  <flow id="JF3565" begin="1080" fromJunction="J3" toJunction="J0" end="1440" vehsPerHour="2.057542976422466" departLane="free"/>
  <flow id="JF3566" begin="1080" fromJunction="J3" toJunction="J4" end="1440" vehsPerHour="55.27530550764901" departLane="free"/>
  <flow id="JF3567" begin="1080" fromJunction="J3" toJunction="J7" end="1440" vehsPerHour="8.645813939931811" departLane="free"/>
  <flow id="JF3568" begin="1080" fromJunction="J4" toJunction="J0" end="1440" vehsPerHour="2.2893370608140757" departLane="free"/>
  <flow id="JF3569" begin="1080" fromJunction="J4" toJunction="J3" end="1440" vehsPerHour="43.20065874848553" departLane="free"/>
  <flow id="JF3570" begin="1080" fromJunction="J4" toJunction="J5" end="1440" vehsPerHour="36.07454865490855" departLane="free"/>
  <flow id="JF3571" begin="1080" fromJunction="J4" toJunction="J6" end="1440" vehsPerHour="44.47904212037421" departLane="free"/>
  <flow id="JF3572" begin="1080" fromJunction="J4" toJunction="J7" end="1440" vehsPerHour="40.11262428641915" departLane="free"/>
  <flow id="JF3573" begin="1080" fromJunction="J5" toJunction="J0" end="1440" vehsPerHour="57.54513666311294" departLane="free"/>
  <flow id="JF3574" begin="1080" fromJunction="J5" toJunction="J3" end="1440" vehsPerHour="66.56477595713069" departLane="free"/>
  <flow id="JF3575" begin="1080" fromJunction="J5" toJunction="J6" end="1440" vehsPerHour="42.30674452750257" departLane="free"/>
  <flow id="JF3576" begin="1080" fromJunction="J6" toJunction="J3" end="1440" vehsPerHour="12.974442133725052" departLane="free"/>
  <flow id="JF3577" begin="1080" fromJunction="J6" toJunction="J5" end="1440" vehsPerHour="47.206714226541195" departLane="free"/>
  <flow id="JF3578" begin="1080" fromJunction="J7" toJunction="J0" end="1440" vehsPerHour="7.783755361889354" departLane="free"/>
  <flow id="JF3579" begin="1080" fromJunction="J7" toJunction="J5" end="1440" vehsPerHour="41.22633002483479" departLane="free"/>
  <flow id="JF3580" begin="1080" fromJunction="J7" toJunction="J6" end="1440" vehsPerHour="61.37963841769266" departLane="free"/>
  <flow id="JF3581" begin="1440" fromJunction="J0" toJunction="J3" end="1800" vehsPerHour="98.33974406556143" departLane="free"/>
  <flow id="JF3582" begin="1440" fromJunction="J0" toJunction="J4" end="1800" vehsPerHour="3.568899209618747" departLane="free"/>
  <flow id="JF3583" begin="1440" fromJunction="J0" toJunction="J5" end="1800" vehsPerHour="40.13078614515554" departLane="free"/>
  <flow id="JF3584" begin="1440" fromJunction="J0" toJunction="J6" end="1800" vehsPerHour="73.0053877195118" departLane="free"/>
  <flow id="JF3585" begin="1440" fromJunction="J3" toJunction="J0" end="1800" vehsPerHour="126.39642714130882" departLane="free"/>
  <flow id="JF3586" begin="1440" fromJunction="J3" toJunction="J5" end="1800" vehsPerHour="6.958304682856639" departLane="free"/>
  <flow id="JF3587" begin="1440" fromJunction="J3" toJunction="J7" end="1800" vehsPerHour="19.29990803272132" departLane="free"/>
  <flow id="JF3588" begin="1440" fromJunction="J4" toJunction="J0" end="1800" vehsPerHour="38.724970547099126" departLane="free"/>
  <flow id="JF3589" begin="1440" fromJunction="J4" toJunction="J3" end="1800" vehsPerHour="47.132613006954145" departLane="free"/>
  <flow id="JF3590" begin="1440" fromJunction="J4" toJunction="J5" end="1800" vehsPerHour="27.698563992839944" departLane="free"/>
  <flow id="JF3591" begin="1440" fromJunction="J4" toJunction="J7" end="1800" vehsPerHour="26.180429039680472" departLane="free"/>
  <flow id="JF3592" begin="1440" fromJunction="J5" toJunction="J4" end="1800" vehsPerHour="36.340334241543815" departLane="free"/>
  <flow id="JF3593" begin="1440" fromJunction="J5" toJunction="J6" end="1800" vehsPerHour="53.45032858836667" departLane="free"/>
  <flow id="JF3594" begin="1440" fromJunction="J5" toJunction="J7" end="1800" vehsPerHour="2.4208638042903416" departLane="free"/>
  <flow id="JF3595" begin="1440" fromJunction="J6" toJunction="J4" end="1800" vehsPerHour="50.29169251153395" departLane="free"/>
  <flow id="JF3596" begin="1440" fromJunction="J6" toJunction="J5" end="1800" vehsPerHour="2.0895996140255195" departLane="free"/>
  <flow id="JF3597" begin="1440" fromJunction="J7" toJunction="J0" end="1800" vehsPerHour="9.969155473234107" departLane="free"/>
  <flow id="JF3598" begin="1440" fromJunction="J7" toJunction="J3" end="1800" vehsPerHour="34.32624714008772" departLane="free"/>
  <flow id="JF3599" begin="1440" fromJunction="J7" toJunction="J5" end="1800" vehsPerHour="58.68099517510884" departLane="free"/>
  <flow id="JF3600" begin="1440" fromJunction="J7" toJunction="J6" end="1800" vehsPerHour="27.588341394828163" departLane="free"/>
  <flow id="JF3601" begin="1800" fromJunction="J0" toJunction="J4" end="2160" vehsPerHour="93.86831912809538" departLane="free"/>
  <flow id="JF3602" begin="1800" fromJunction="J0" toJunction="J5" end="2160" vehsPerHour="16.675702364877566" departLane="free"/>
  <flow id="JF3603" begin="1800" fromJunction="J0" toJunction="J6" end="2160" vehsPerHour="97.46628584897489" departLane="free"/>
  <flow id="JF3604" begin="1800" fromJunction="J0" toJunction="J7" end="2160" vehsPerHour="130.14549196890204" departLane="free"/>
  <flow id="JF3605" begin="1800" fromJunction="J3" toJunction="J0" end="2160" vehsPerHour="18.175209518061877" departLane="free"/>
  <flow id="JF3606" begin="1800" fromJunction="J3" toJunction="J4" end="2160" vehsPerHour="84.39205525636592" departLane="free"/>
  <flow id="JF3607" begin="1800" fromJunction="J3" toJunction="J6" end="2160" vehsPerHour="39.565570264707084" departLane="free"/>
  <flow id="JF3608" begin="1800" fromJunction="J3" toJunction="J7" end="2160" vehsPerHour="15.30217355305108" departLane="free"/>
  <flow id="JF3609" begin="1800" fromJunction="J4" toJunction="J0" end="2160" vehsPerHour="10.113387234926318" departLane="free"/>
  <flow id="JF3610" begin="1800" fromJunction="J4" toJunction="J3" end="2160" vehsPerHour="31.521602609502974" departLane="free"/>
  <flow id="JF3611" begin="1800" fromJunction="J4" toJunction="J5" end="2160" vehsPerHour="68.63555187421487" departLane="free"/>
  <flow id="JF3612" begin="1800" fromJunction="J4" toJunction="J6" end="2160" vehsPerHour="60.40484513849016" departLane="free"/>
  <flow id="JF3613" begin="1800" fromJunction="J4" toJunction="J7" end="2160" vehsPerHour="52.17716153542418" departLane="free"/>
  <flow id="JF3614" begin="1800" fromJunction="J5" toJunction="J3" end="2160" vehsPerHour="1.3726273369422526" departLane="free"/>
  <flow id="JF3615" begin="1800" fromJunction="J5" toJunction="J4" end="2160" vehsPerHour="53.93931031850654" departLane="free"/>
  <flow id="JF3616" begin="1800" fromJunction="J5" toJunction="J6" end="2160" vehsPerHour="60.32587738136666" departLane="free"/>
  <flow id="JF3617" begin="1800" fromJunction="J6" toJunction="J0" end="2160" vehsPerHour="58.59143402751388" departLane="free"/>
  <flow id="JF3618" begin="1800" fromJunction="J6" toJunction="J3" end="2160" vehsPerHour="50.84946035332254" departLane="free"/>
  <flow id="JF3619" begin="1800" fromJunction="J6" toJunction="J4" end="2160" vehsPerHour="54.331862732200975" departLane="free"/>
  <flow id="JF3620" begin="1800" fromJunction="J7" toJunction="J0" end="2160" vehsPerHour="58.8570138327322" departLane="free"/>
  <flow id="JF3621" begin="1800" fromJunction="J7" toJunction="J3" end="2160" vehsPerHour="38.2905533151049" departLane="free"/>
  <flow id="JF3622" begin="1800" fromJunction="J7" toJunction="J4" end="2160" vehsPerHour="9.013585536509638" departLane="free"/>
  <flow id="JF3623" begin="1800" fromJunction="J7" toJunction="J5" end="2160" vehsPerHour="56.409825818030896" departLane="free"/>
  <flow id="JF3624" begin="1800" fromJunction="J7" toJunction="J6" end="2160" vehsPerHour="29.817994352070027" departLane="free"/>
  <flow id="JF3625" begin="2160" fromJunction="J0" toJunction="J3" end="2520" vehsPerHour="24.83304080546601" departLane="free"/>
  <flow id="JF3626" begin="2160" fromJunction="J0" toJunction="J4" end="2520" vehsPerHour="124.49229334469207" departLane="free"/>
  <flow id="JF3627" begin="2160" fromJunction="J0" toJunction="J5" end="2520" vehsPerHour="97.4565385737817" departLane="free"/>
  <flow id="JF3628" begin="2160" fromJunction="J0" toJunction="J6" end="2520" vehsPerHour="0.3540335641469433" departLane="free"/>
  <flow id="JF3629" begin="2160" fromJunction="J3" toJunction="J0" end="2520" vehsPerHour="135.38981018370504" departLane="free"/>
  <flow id="JF3630" begin="2160" fromJunction="J3" toJunction="J4" end="2520" vehsPerHour="46.7692952387696" departLane="free"/>
  <flow id="JF3631" begin="2160" fromJunction="J3" toJunction="J6" end="2520" vehsPerHour="66.95345608368655" departLane="free"/>
  <flow id="JF3632" begin="2160" fromJunction="J3" toJunction="J7" end="2520" vehsPerHour="5.5906905221690035" departLane="free"/>
  <flow id="JF3633" begin="2160" fromJunction="J4" toJunction="J0" end="2520" vehsPerHour="19.56427644360902" departLane="free"/>
  <flow id="JF3634" begin="2160" fromJunction="J4" toJunction="J3" end="2520" vehsPerHour="54.548522127734245" departLane="free"/>
  <flow id="JF3635" begin="2160" fromJunction="J4" toJunction="J5" end="2520" vehsPerHour="60.107375377089504" departLane="free"/>
  <flow id="JF3636" begin="2160" fromJunction="J4" toJunction="J6" end="2520" vehsPerHour="38.784100887665026" departLane="free"/>
  <flow id="JF3637" begin="2160" fromJunction="J4" toJunction="J7" end="2520" vehsPerHour="61.63343991706359" departLane="free"/>
  <flow id="JF3638" begin="2160" fromJunction="J5" toJunction="J0" end="2520" vehsPerHour="13.939222981947058" departLane="free"/>
  <flow id="JF3639" begin="2160" fromJunction="J5" toJunction="J3" end="2520" vehsPerHour="13.378699697600853" departLane="free"/>
  <flow id="JF3640" begin="2160" fromJunction="J5" toJunction="J4" end="2520" vehsPerHour="23.745961966500378" departLane="free"/>
  <flow id="JF3641" begin="2160" fromJunction="J5" toJunction="J6" end="2520" vehsPerHour="33.2534142875231" departLane="free"/>
  <flow id="JF3642" begin="2160" fromJunction="J5" toJunction="J7" end="2520" vehsPerHour="36.27689168685364" departLane="free"/>
  <flow id="JF3643" begin="2160" fromJunction="J6" toJunction="J0" end="2520" vehsPerHour="12.854710808778615" departLane="free"/>
  <flow id="JF3644" begin="2160" fromJunction="J6" toJunction="J3" end="2520" vehsPerHour="56.28239346646305" departLane="free"/>
  <flow id="JF3645" begin="2160" fromJunction="J6" toJunction="J4" end="2520" vehsPerHour="44.32464507382474" departLane="free"/>
  <flow id="JF3646" begin="2160" fromJunction="J6" toJunction="J5" end="2520" vehsPerHour="56.488655591802484" departLane="free"/>
  <flow id="JF3647" begin="2160" fromJunction="J7" toJunction="J0" end="2520" vehsPerHour="46.125538539094954" departLane="free"/>
  <flow id="JF3648" begin="2160" fromJunction="J7" toJunction="J3" end="2520" vehsPerHour="57.14674043731048" departLane="free"/>
  <flow id="JF3649" begin="2160" fromJunction="J7" toJunction="J4" end="2520" vehsPerHour="44.445048406627" departLane="free"/>
  <flow id="JF3650" begin="2160" fromJunction="J7" toJunction="J6" end="2520" vehsPerHour="54.66982019242903" departLane="free"/>
  <flow id="JF3651" begin="2520" fromJunction="J0" toJunction="J3" end="2880" vehsPerHour="83.24084430527675" departLane="free"/>
  <flow id="JF3652" begin="2520" fromJunction="J0" toJunction="J4" end="2880" vehsPerHour="12.980728041961548" departLane="free"/>
  <flow id="JF3653" begin="2520" fromJunction="J0" toJunction="J5" end="2880" vehsPerHour="87.79086529033066" departLane="free"/>
  <flow id="JF3654" begin="2520" fromJunction="J0" toJunction="J6" end="2880" vehsPerHour="113.73691323715698" departLane="free"/>
  <flow id="JF3655" begin="2520" fromJunction="J0" toJunction="J7" end="2880" vehsPerHour="106.2423144271234" departLane="free"/>
  <flow id="JF3656" begin="2520" fromJunction="J3" toJunction="J0" end="2880" vehsPerHour="34.58660317527737" departLane="free"/>
  <flow id="JF3657" begin="2520" fromJunction="J3" toJunction="J4" end="2880" vehsPerHour="57.67474043750744" departLane="free"/>
  <flow id="JF3658" begin="2520" fromJunction="J3" toJunction="J5" end="2880" vehsPerHour="112.50198941266844" departLane="free"/>
  <flow id="JF3659" begin="2520" fromJunction="J3" toJunction="J6" end="2880" vehsPerHour="72.28372345666708" departLane="free"/>
  <flow id="JF3660" begin="2520" fromJunction="J3" toJunction="J7" end="2880" vehsPerHour="93.17229986523266" departLane="free"/>
  <flow id="JF3661" begin="2520" fromJunction="J4" toJunction="J0" end="2880" vehsPerHour="32.34515743735462" departLane="free"/>
  <flow id="JF3662" begin="2520" fromJunction="J4" toJunction="J5" end="2880" vehsPerHour="53.176495747619306" departLane="free"/>
  <flow id="JF3663" begin="2520" fromJunction="J4" toJunction="J6" end="2880" vehsPerHour="47.356396327132444" departLane="free"/>
  <flow id="JF3664" begin="2520" fromJunction="J4" toJunction="J7" end="2880" vehsPerHour="56.74166969162452" departLane="free"/>
  <flow id="JF3665" begin="2520" fromJunction="J5" toJunction="J3" end="2880" vehsPerHour="4.640730844023895" departLane="free"/>
  <flow id="JF3666" begin="2520" fromJunction="J5" toJunction="J7" end="2880" vehsPerHour="27.637071341046735" departLane="free"/>
  <flow id="JF3667" begin="2520" fromJunction="J6" toJunction="J0" end="2880" vehsPerHour="56.54784867345347" departLane="free"/>
  <flow id="JF3668" begin="2520" fromJunction="J6" toJunction="J3" end="2880" vehsPerHour="12.327916505243778" departLane="free"/>
  <flow id="JF3669" begin="2520" fromJunction="J6" toJunction="J4" end="2880" vehsPerHour="56.40668537806086" departLane="free"/>
  <flow id="JF3670" begin="2520" fromJunction="J6" toJunction="J5" end="2880" vehsPerHour="22.84654880460551" departLane="free"/>
  <flow id="JF3671" begin="2520" fromJunction="J6" toJunction="J7" end="2880" vehsPerHour="20.374233738493636" departLane="free"/>
  <flow id="JF3672" begin="2520" fromJunction="J7" toJunction="J0" end="2880" vehsPerHour="37.09646560062443" departLane="free"/>
  <flow id="JF3673" begin="2520" fromJunction="J7" toJunction="J3" end="2880" vehsPerHour="7.375802501338935" departLane="free"/>
  <flow id="JF3674" begin="2520" fromJunction="J7" toJunction="J4" end="2880" vehsPerHour="45.4575736307566" departLane="free"/>
  <flow id="JF3675" begin="2520" fromJunction="J7" toJunction="J5" end="2880" vehsPerHour="15.337949636326748" departLane="free"/>
  <flow id="JF3676" begin="2880" fromJunction="J0" toJunction="J3" end="3240" vehsPerHour="62.29297394878477" departLane="free"/>
  <flow id="JF3677" begin="2880" fromJunction="J0" toJunction="J4" end="3240" vehsPerHour="29.997774032638056" departLane="free"/>
  <flow id="JF3678" begin="2880" fromJunction="J0" toJunction="J5" end="3240" vehsPerHour="47.150075214560914" departLane="free"/>
  <flow id="JF3679" begin="2880" fromJunction="J0" toJunction="J6" end="3240" vehsPerHour="90.8306479926258" departLane="free"/>
  <flow id="JF3680" begin="2880" fromJunction="J0" toJunction="J7" end="3240" vehsPerHour="32.381707498509755" departLane="free"/>
  <flow id="JF3681" begin="2880" fromJunction="J3" toJunction="J0" end="3240" vehsPerHour="129.84251093034214" departLane="free"/>
  <flow id="JF3682" begin="2880" fromJunction="J3" toJunction="J7" end="3240" vehsPerHour="82.35075697318399" departLane="free"/>
  <flow id="JF3683" begin="2880" fromJunction="J4" toJunction="J0" end="3240" vehsPerHour="48.22662684979972" departLane="free"/>
  <flow id="JF3684" begin="2880" fromJunction="J4" toJunction="J3" end="3240" vehsPerHour="38.242537669833794" departLane="free"/>
  <flow id="JF3685" begin="2880" fromJunction="J4" toJunction="J6" end="3240" vehsPerHour="9.046333037937428" departLane="free"/>
  <flow id="JF3686" begin="2880" fromJunction="J4" toJunction="J7" end="3240" vehsPerHour="31.529166923497673" departLane="free"/>
  <flow id="JF3687" begin="2880" fromJunction="J5" toJunction="J3" end="3240" vehsPerHour="3.2227802183887486" departLane="free"/>
  <flow id="JF3688" begin="2880" fromJunction="J5" toJunction="J7" end="3240" vehsPerHour="26.81242732346088" departLane="free"/>
  <flow id="JF3689" begin="2880" fromJunction="J6" toJunction="J0" end="3240" vehsPerHour="56.50346631804886" departLane="free"/>
  <flow id="JF3690" begin="2880" fromJunction="J6" toJunction="J3" end="3240" vehsPerHour="8.469632997451113" departLane="free"/>
  <flow id="JF3691" begin="2880" fromJunction="J6" toJunction="J4" end="3240" vehsPerHour="57.19959368046665" departLane="free"/>
  <flow id="JF3692" begin="2880" fromJunction="J6" toJunction="J5" end="3240" vehsPerHour="33.4970340951024" departLane="free"/>
  <flow id="JF3693" begin="2880" fromJunction="J7" toJunction="J3" end="3240" vehsPerHour="22.47939841626425" departLane="free"/>
  <flow id="JF3694" begin="2880" fromJunction="J7" toJunction="J4" end="3240" vehsPerHour="2.252654117811163" departLane="free"/>
  <flow id="JF3695" begin="2880" fromJunction="J7" toJunction="J5" end="3240" vehsPerHour="25.732704475560844" departLane="free"/>
  <flow id="JF3696" begin="2880" fromJunction="J7" toJunction="J6" end="3240" vehsPerHour="37.798997141525675" departLane="free"/>
  <flow id="JF3697" begin="3240" fromJunction="J0" toJunction="J3" end="3600" vehsPerHour="93.09181698529473" departLane="free"/>
  <flow id="JF3698" begin="3240" fromJunction="J0" toJunction="J4" end="3600" vehsPerHour="5.823878993822962" departLane="free"/>
  <flow id="JF3699" begin="3240" fromJunction="J0" toJunction="J6" end="3600" vehsPerHour="122.11442270168375" departLane="free"/>
  <flow id="JF3700" begin="3240" fromJunction="J3" toJunction="J0" end="3600" vehsPerHour="114.66651627918455" departLane="free"/>
  <flow id="JF3701" begin="3240" fromJunction="J3" toJunction="J4" end="3600" vehsPerHour="19.196592758902675" departLane="free"/>
  <flow id="JF3702" begin="3240" fromJunction="J3" toJunction="J5" end="3600" vehsPerHour="19.669372273188394" departLane="free"/>
  <flow id="JF3703" begin="3240" fromJunction="J3" toJunction="J7" end="3600" vehsPerHour="32.431958666858094" departLane="free"/>
  <flow id="JF3704" begin="3240" fromJunction="J4" toJunction="J0" end="3600" vehsPerHour="42.33097670347847" departLane="free"/>
  <flow id="JF3705" begin="3240" fromJunction="J4" toJunction="J3" end="3600" vehsPerHour="17.913367819972297" departLane="free"/>
  <flow id="JF3706" begin="3240" fromJunction="J4" toJunction="J7" end="3600" vehsPerHour="60.2897059719176" departLane="free"/>
  <flow id="JF3707" begin="3240" fromJunction="J5" toJunction="J4" end="3600" vehsPerHour="56.838632353582796" departLane="free"/>
  <flow id="JF3708" begin="3240" fromJunction="J5" toJunction="J6" end="3600" vehsPerHour="35.69424984320082" departLane="free"/>
  <flow id="JF3709" begin="3240" fromJunction="J5" toJunction="J7" end="3600" vehsPerHour="33.13820684591423" departLane="free"/>
  <flow id="JF3710" begin="3240" fromJunction="J6" toJunction="J0" end="3600" vehsPerHour="33.09698065291931" departLane="free"/>
  <flow id="JF3711" begin="3240" fromJunction="J6" toJunction="J4" end="3600" vehsPerHour="41.79858482631083" departLane="free"/>
  <flow id="JF3712" begin="3240" fromJunction="J6" toJunction="J5" end="3600" vehsPerHour="56.492273587213546" departLane="free"/>
  <flow id="JF3713" begin="3240" fromJunction="J7" toJunction="J0" end="3600" vehsPerHour="45.192333415885415" departLane="free"/>
  <flow id="JF3714" begin="3240" fromJunction="J7" toJunction="J3" end="3600" vehsPerHour="34.9299954794514" departLane="free"/>
  <flow id="JF3715" begin="3240" fromJunction="J7" toJunction="J4" end="3600" vehsPerHour="33.44968835400824" departLane="free"/>
  <flow id="JF3716" begin="3240" fromJunction="J7" toJunction="J5" end="3600" vehsPerHour="45.719444912632255" departLane="free"/>
  <flow id="JF3717" begin="3600" fromJunction="J0" toJunction="J3" end="3960" vehsPerHour="12.632433091253835" departLane="free"/>
  <flow id="JF3718" begin="3600" fromJunction="J0" toJunction="J4" end="3960" vehsPerHour="121.38597689649042" departLane="free"/>
  <flow id="JF3719" begin="3600" fromJunction="J0" toJunction="J6" end="3960" vehsPerHour="48.27092764668985" departLane="free"/>
  <flow id="JF3720" begin="3600" fromJunction="J3" toJunction="J0" end="3960" vehsPerHour="107.30736135179211" departLane="free"/>
  <flow id="JF3721" begin="3600" fromJunction="J3" toJunction="J4" end="3960" vehsPerHour="26.502651508493447" departLane="free"/>
  <flow id="JF3722" begin="3600" fromJunction="J3" toJunction="J5" end="3960" vehsPerHour="92.28742014926186" departLane="free"/>
  <flow id="JF3723" begin="3600" fromJunction="J3" toJunction="J7" end="3960" vehsPerHour="44.90111548665625" departLane="free"/>
  <flow id="JF3724" begin="3600" fromJunction="J4" toJunction="J3" end="3960" vehsPerHour="0.43034018130998064" departLane="free"/>
  <flow id="JF3725" begin="3600" fromJunction="J4" toJunction="J5" end="3960" vehsPerHour="8.958096857570828" departLane="free"/>
  <flow id="JF3726" begin="3600" fromJunction="J4" toJunction="J7" end="3960" vehsPerHour="30.563847972334525" departLane="free"/>
  <flow id="JF3727" begin="3600" fromJunction="J5" toJunction="J0" end="3960" vehsPerHour="42.15705962550326" departLane="free"/>