<?xml version="1.0" encoding="UTF-8"?>
<routes xmlns:xsi="http://www.w3.org/2001/XMLSchema-instance" xsi:noNamespaceSchemaLocation="http://sumo.dlr.de/xsd/routes_file.xsd">
  <flow id="JF15316" begin="0" fromJunction="J0" toJunction="J12" end="360" vehsPerHour="1.26062851125787" departLane="free" arrivalSpeed="0.0"/>
  <flow id="JF15317" begin="0" fromJunction="J0" toJunction="J13" end="360" vehsPerHour="33.18606410593388" departLane="free" arrivalSpeed="0.0"/>
  <flow id="JF15318" begin="0" fromJunction="J0" toJunction="J15" end="360" vehsPerHour="18.29046608858336" departLane="free" arrivalSpeed="0.0"/>
  <flow id="JF15319" begin="0" fromJunction="J0" toJunction="J2" end="360" vehsPerHour="27.722288964765628" departLane="free" arrivalSpeed="0.0"/>
  <flow id="JF15320" begin="0" fromJunction="J0" toJunction="J3" end="360" vehsPerHour="45.80992906201121" departLane="free" arrivalSpeed="0.0"/>
  <flow id="JF15321" begin="0" fromJunction="J0" toJunction="J6" end="360" vehsPerHour="56.89181760210426" departLane="free" arrivalSpeed="0.0"/>
  <flow id="JF15322" begin="0" fromJunction="J0" toJunction="J7" end="360" vehsPerHour="33.447446254571105" departLane="free" arrivalSpeed="0.0"/>
  <flow id="JF15323" begin="0" fromJunction="J0" toJunction="J8" end="360" vehsPerHour="2.0555794746009317" departLane="free" arrivalSpeed="0.0"/>
  <flow id="JF15324" begin="0" fromJunction="J0" toJunction="J9" end="360" vehsPerHour="65.41514120033548" departLane="free" arrivalSpeed="0.0"/>
  <flow id="JF15325" begin="0" fromJunction="J12" toJunction="J0" end="360" vehsPerHour="34.3762723432439" departLane="free" arrivalSpeed="0.0"/>
  <flow id="JF15326" begin="0" fromJunction="J12" toJunction="J13" end="360" vehsPerHour="38.04992769522063" departLane="free" arrivalSpeed="0.0"/>
  <flow id="JF15327" begin="0" fromJunction="J12" toJunction="J14" end="360" vehsPerHour="42.96120412545013" departLane="free" arrivalSpeed="0.0"/>
  <flow id="JF15328" begin="0" fromJunction="J12" toJunction="J15" end="360" vehsPerHour="35.823102720716705" departLane="free" arrivalSpeed="0.0"/>
  <flow id="JF15329" begin="0" fromJunction="J12" toJunction="J16" end="360" vehsPerHour="59.45835797924076" departLane="free" arrivalSpeed="0.0"/>
  <flow id="JF15330" begin="0" fromJunction="J12" toJunction="J3" end="360" vehsPerHour="20.577567682301215" departLane="free" arrivalSpeed="0.0"/>
  <flow id="JF15331" begin="0" fromJunction="J12" toJunction="J6" end="360" vehsPerHour="38.05587360445139" departLane="free" arrivalSpeed="0.0"/>
  <flow id="JF15332" begin="0" fromJunction="J12" toJunction="J7" end="360" vehsPerHour="16.27473698451052" departLane="free" arrivalSpeed="0.0"/>
  <flow id="JF15333" begin="0" fromJunction="J12" toJunction="J8" end="360" vehsPerHour="65.52189208648767" departLane="free" arrivalSpeed="0.0"/>
  <flow id="JF15334" begin="0" fromJunction="J12" toJunction="J9" end="360" vehsPerHour="34.17904992529353" departLane="free" arrivalSpeed="0.0"/>
  <flow id="JF15335" begin="0" fromJunction="J13" toJunction="J0" end="360" vehsPerHour="28.622755175024547" departLane="free" arrivalSpeed="0.0"/>
  <flow id="JF15336" begin="0" fromJunction="J13" toJunction="J14" end="360" vehsPerHour="12.655724117851259" departLane="free" arrivalSpeed="0.0"/>
  <flow id="JF15337" begin="0" fromJunction="J13" toJunction="J16" end="360" vehsPerHour="45.50134038894666" departLane="free" arrivalSpeed="0.0"/>
  <flow id="JF15338" begin="0" fromJunction="J13" toJunction="J2" end="360" vehsPerHour="56.59038020522319" departLane="free" arrivalSpeed="0.0"/>
  <flow id="JF15339" begin="0" fromJunction="J13" toJunction="J3" end="360" vehsPerHour="19.830499500439874" departLane="free" arrivalSpeed="0.0"/>
  <flow id="JF15340" begin="0" fromJunction="J13" toJunction="J6" end="360" vehsPerHour="37.34869646480722" departLane="free" arrivalSpeed="0.0"/>
  <flow id="JF15341" begin="0" fromJunction="J13" toJunction="J7" end="360" vehsPerHour="61.037424471942415" departLane="free" arrivalSpeed="0.0"/>
  <flow id="JF15342" begin="0" fromJunction="J13" toJunction="J8" end="360" vehsPerHour="63.07393768088015" departLane="free" arrivalSpeed="0.0"/>
  <flow id="JF15343" begin="0" fromJunction="J13" toJunction="J9" end="360" vehsPerHour="19.01497240359118" departLane="free" arrivalSpeed="0.0"/>
  <flow id="JF15344" begin="0" fromJunction="J14" toJunction="J12" end="360" vehsPerHour="23.64601408085321" departLane="free" arrivalSpeed="0.0"/>
  <flow id="JF15345" begin="0" fromJunction="J14" toJunction="J13" end="360" vehsPerHour="2.2282369847366437" departLane="free" arrivalSpeed="0.0"/>
  <flow id="JF15346" begin="0" fromJunction="J14" toJunction="J15" end="360" vehsPerHour="3.447983463780257" departLane="free" arrivalSpeed="0.0"/>
  <flow id="JF15347" begin="0" fromJunction="J14" toJunction="J2" end="360" vehsPerHour="67.60176233002332" departLane="free" arrivalSpeed="0.0"/>
  <flow id="JF15348" begin="0" fromJunction="J14" toJunction="J3" end="360" vehsPerHour="49.08690877566553" departLane="free" arrivalSpeed="0.0"/>
  <flow id="JF15349" begin="0" fromJunction="J14" toJunction="J6" end="360" vehsPerHour="34.6494493910836" departLane="free" arrivalSpeed="0.0"/>
  <flow id="JF15350" begin="0" fromJunction="J14" toJunction="J7" end="360" vehsPerHour="39.654535789941626" departLane="free" arrivalSpeed="0.0"/>
  <flow id="JF15351" begin="0" fromJunction="J14" toJunction="J8" end="360" vehsPerHour="3.4172806098064803" departLane="free" arrivalSpeed="0.0"/>
  <flow id="JF15352" begin="0" fromJunction="J14" toJunction="J9" end="360" vehsPerHour="7.409424553528314" departLane="free" arrivalSpeed="0.0"/>
  <flow id="JF15353" begin="0" fromJunction="J15" toJunction="J12" end="360" vehsPerHour="2.0131432362500794" departLane="free" arrivalSpeed="0.0"/>
  <flow id="JF15354" begin="0" fromJunction="J15" toJunction="J13" end="360" vehsPerHour="11.72541178239237" departLane="free" arrivalSpeed="0.0"/>
  <flow id="JF15355" begin="0" fromJunction="J15" toJunction="J14" end="360" vehsPerHour="32.582902689797244" departLane="free" arrivalSpeed="0.0"/>
  <flow id="JF15356" begin="0" fromJunction="J15" toJunction="J16" end="360" vehsPerHour="44.50082648225142" departLane="free" arrivalSpeed="0.0"/>
  <flow id="JF15357" begin="0" fromJunction="J15" toJunction="J2" end="360" vehsPerHour="7.569664731362985" departLane="free" arrivalSpeed="0.0"/>
  <flow id="JF15358" begin="0" fromJunction="J15" toJunction="J3" end="360" vehsPerHour="43.27255506110317" departLane="free" arrivalSpeed="0.0"/>
  <flow id="JF15359" begin="0" fromJunction="J15" toJunction="J6" end="360" vehsPerHour="27.653118964346987" departLane="free" arrivalSpeed="0.0"/>
  <flow id="JF15360" begin="0" fromJunction="J15" toJunction="J8" end="360" vehsPerHour="46.25373256551642" departLane="free" arrivalSpeed="0.0"/>
  <flow id="JF15361" begin="0" fromJunction="J15" toJunction="J9" end="360" vehsPerHour="2.9162904566397314" departLane="free" arrivalSpeed="0.0"/>
  <flow id="JF15362" begin="0" fromJunction="J16" toJunction="J12" end="360" vehsPerHour="18.82348018399606" departLane="free" arrivalSpeed="0.0"/>
  <flow id="JF15363" begin="0" fromJunction="J16" toJunction="J13" end="360" vehsPerHour="29.566633877087916" departLane="free" arrivalSpeed="0.0"/>
  <flow id="JF15364" begin="0" fromJunction="J16" toJunction="J14" end="360" vehsPerHour="90.49075506674795" departLane="free" arrivalSpeed="0.0"/>
  <flow id="JF15365" begin="0" fromJunction="J16" toJunction="J15" end="360" vehsPerHour="104.79190802625997" departLane="free" arrivalSpeed="0.0"/>
  <flow id="JF15366" begin="0" fromJunction="J16" toJunction="J2" end="360" vehsPerHour="25.186872643559536" departLane="free" arrivalSpeed="0.0"/>
  <flow id="JF15367" begin="0" fromJunction="J16" toJunction="J8" end="360" vehsPerHour="68.8516015193885" departLane="free" arrivalSpeed="0.0"/>
  <flow id="JF15368" begin="0" fromJunction="J16" toJunction="J9" end="360" vehsPerHour="56.27314076276439" departLane="free" arrivalSpeed="0.0"/>
  <flow id="JF15369" begin="0" fromJunction="J2" toJunction="J0" end="360" vehsPerHour="29.433136926021604" departLane="free" arrivalSpeed="0.0"/>
  <flow id="JF15370" begin="0" fromJunction="J2" toJunction="J12" end="360" vehsPerHour="0.6759175875915581" departLane="free" arrivalSpeed="0.0"/>
  <flow id="JF15371" begin="0" fromJunction="J2" toJunction="J13" end="360" vehsPerHour="101.01406214647325" departLane="free" arrivalSpeed="0.0"/>
  <flow id="JF15372" begin="0" fromJunction="J2" toJunction="J14" end="360" vehsPerHour="101.63405038420657" departLane="free" arrivalSpeed="0.0"/>
  <flow id="JF15373" begin="0" fromJunction="J2" toJunction="J15" end="360" vehsPerHour="101.54581934066779" departLane="free" arrivalSpeed="0.0"/>
  <flow id="JF15374" begin="0" fromJunction="J2" toJunction="J3" end="360" vehsPerHour="46.558986268306214" departLane="free" arrivalSpeed="0.0"/>
  <flow id="JF15375" begin="0" fromJunction="J2" toJunction="J6" end="360" vehsPerHour="102.32294082945286" departLane="free" arrivalSpeed="0.0"/>
  <flow id="JF15376" begin="0" fromJunction="J2" toJunction="J7" end="360" vehsPerHour="43.939391219787204" departLane="free" arrivalSpeed="0.0"/>
  <flow id="JF15377" begin="0" fromJunction="J3" toJunction="J0" end="360" vehsPerHour="4.230479995762363" departLane="free" arrivalSpeed="0.0"/>
  <flow id="JF15378" begin="0" fromJunction="J3" toJunction="J12" end="360" vehsPerHour="26.11464823391308" departLane="free" arrivalSpeed="0.0"/>
  <flow id="JF15379" begin="0" fromJunction="J3" toJunction="J14" end="360" vehsPerHour="19.50778626797733" departLane="free" arrivalSpeed="0.0"/>
  <flow id="JF15380" begin="0" fromJunction="J3" toJunction="J16" end="360" vehsPerHour="16.379521989112696" departLane="free" arrivalSpeed="0.0"/>
  <flow id="JF15381" begin="0" fromJunction="J3" toJunction="J2" end="360" vehsPerHour="41.78689169547938" departLane="free" arrivalSpeed="0.0"/>
  <flow id="JF15382" begin="0" fromJunction="J3" toJunction="J6" end="360" vehsPerHour="29.239279403465094" departLane="free" arrivalSpeed="0.0"/>
  <flow id="JF15383" begin="0" fromJunction="J3" toJunction="J7" end="360" vehsPerHour="31.731437535225698" departLane="free" arrivalSpeed="0.0"/>
  <flow id="JF15384" begin="0" fromJunction="J3" toJunction="J8" end="360" vehsPerHour="54.674658978080615" departLane="free" arrivalSpeed="0.0"/>
  <flow id="JF15385" begin="0" fromJunction="J6" toJunction="J0" end="360" vehsPerHour="22.884761753664467" departLane="free" arrivalSpeed="0.0"/>
  <flow id="JF15386" begin="0" fromJunction="J6" toJunction="J13" end="360" vehsPerHour="5.435804487167472" departLane="free" arrivalSpeed="0.0"/>
  <flow id="JF15387" begin="0" fromJunction="J6" toJunction="J14" end="360" vehsPerHour="51.06289905554724" departLane="free" arrivalSpeed="0.0"/>
  <flow id="JF15388" begin="0" fromJunction="J6" toJunction="J3" end="360" vehsPerHour="21.29241279559669" departLane="free" arrivalSpeed="0.0"/>
  <flow id="JF15389" begin="0" fromJunction="J7" toJunction="J0" end="360" vehsPerHour="31.21072831337089" departLane="free" arrivalSpeed="0.0"/>
  <flow id="JF15390" begin="0" fromJunction="J7" toJunction="J12" end="360" vehsPerHour="64.26437126867037" departLane="free" arrivalSpeed="0.0"/>
  <flow id="JF15391" begin="0" fromJunction="J7" toJunction="J13" end="360" vehsPerHour="52.8205727718509" departLane="free" arrivalSpeed="0.0"/>
  <flow id="JF15392" begin="0" fromJunction="J7" toJunction="J15" end="360" vehsPerHour="57.94566213572441" departLane="free" arrivalSpeed="0.0"/>
  <flow id="JF15393" begin="0" fromJunction="J7" toJunction="J16" end="360" vehsPerHour="40.59600595398549" departLane="free" arrivalSpeed="0.0"/>
  <flow id="JF15394" begin="0" fromJunction="J7" toJunction="J2" end="360" vehsPerHour="34.8660781828486" departLane="free" arrivalSpeed="0.0"/>
  <flow id="JF15395" begin="0" fromJunction="J7" toJunction="J3" end="360" vehsPerHour="35.043094012338415" departLane="free" arrivalSpeed="0.0"/>
  <flow id="JF15396" begin="0" fromJunction="J7" toJunction="J6" end="360" vehsPerHour="43.7560162689037" departLane="free" arrivalSpeed="0.0"/>
  <flow id="JF15397" begin="0" fromJunction="J7" toJunction="J8" end="360" vehsPerHour="4.225343123442031" departLane="free" arrivalSpeed="0.0"/>
  <flow id="JF15398" begin="0" fromJunction="J7" toJunction="J9" end="360" vehsPerHour="17.261341987711997" departLane="free" arrivalSpeed="0.0"/>
  <flow id="JF15399" begin="0" fromJunction="J8" toJunction="J0" end="360" vehsPerHour="32.28801596406325" departLane="free" arrivalSpeed="0.0"/>
  <flow id="JF15400" begin="0" fromJunction="J8" toJunction="J12" end="360" vehsPerHour="64.45022259855257" departLane="free" arrivalSpeed="0.0"/>
  <flow id="JF15401" begin="0" fromJunction="J8" toJunction="J3" end="360" vehsPerHour="68.24978287251174" departLane="free" arrivalSpeed="0.0"/>
  <flow id="JF15402" begin="0" fromJunction="J8" toJunction="J6" end="360" vehsPerHour="43.4637312830043" departLane="free" arrivalSpeed="0.0"/>
  <flow id="JF15403" begin="0" fromJunction="J8" toJunction="J7" end="360" vehsPerHour="32.73203057218087" departLane="free" arrivalSpeed="0.0"/>
  <flow id="JF15404" begin="0" fromJunction="J8" toJunction="J9" end="360" vehsPerHour="22.260796547769647" departLane="free" arrivalSpeed="0.0"/>
  <flow id="JF15405" begin="0" fromJunction="J9" toJunction="J12" end="360" vehsPerHour="1.775673261237568" departLane="free" arrivalSpeed="0.0"/>
  <flow id="JF15406" begin="0" fromJunction="J9" toJunction="J13" end="360" vehsPerHour="3.1770923164211777" departLane="free" arrivalSpeed="0.0"/>
  <flow id="JF15407" begin="0" fromJunction="J9" toJunction="J15" end="360" vehsPerHour="26.719745419399164" departLane="free" arrivalSpeed="0.0"/>
  <flow id="JF15408" begin="0" fromJunction="J9" toJunction="J2" end="360" vehsPerHour="38.103213921630925" departLane="free" arrivalSpeed="0.0"/>
  <flow id="JF15409" begin="0" fromJunction="J9" toJunction="J6" end="360" vehsPerHour="47.03091141248637" departLane="free" arrivalSpeed="0.0"/>
  <flow id="JF15410" begin="0" fromJunction="J9" toJunction="J7" end="360" vehsPerHour="24.33576673358768" departLane="free" arrivalSpeed="0.0"/>
  <flow id="JF15411" begin="0" fromJunction="J9" toJunction="J8" end="360" vehsPerHour="34.8799528297662" departLane="free" arrivalSpeed="0.0"/>
  <flow id="JF15412" begin="360" fromJunction="J0" toJunction="J13" end="720" vehsPerHour="32.610423941838434" departLane="free" arrivalSpeed="0.0"/>
  <flow id="JF15413" begin="360" fromJunction="J0" toJunction="J14" end="720" vehsPerHour="53.30523372015279" departLane="free" arrivalSpeed="0.0"/>
  <flow id="JF15414" begin="360" fromJunction="J0" toJunction="J16" end="720" vehsPerHour="22.40388641366331" departLane="free" arrivalSpeed="0.0"/>
  <flow id="JF15415" begin="360" fromJunction="J0" toJunction="J2" end="720" vehsPerHour="15.154599713293043" departLane="free" arrivalSpeed="0.0"/>
  <flow id="JF15416" begin="360" fromJunction="J0" toJunction="J3" end="720" vehsPerHour="57.83990571695394" departLane="free" arrivalSpeed="0.0"/>
  <flow id="JF15417" begin="360" fromJunction="J0" toJunction="J6" end="720" vehsPerHour="12.04685049774496" departLane="free" arrivalSpeed="0.0"/>
  <flow id="JF15418" begin="360" fromJunction="J0" toJunction="J7" end="720" vehsPerHour="26.697527889127674" departLane="free" arrivalSpeed="0.0"/>
  <flow id="JF15419" begin="360" fromJunction="J0" toJunction="J8" end="720" vehsPerHour="42.79226603002164" departLane="free" arrivalSpeed="0.0"/>
  <flow id="JF15420" begin="360" fromJunction="J0" toJunction="J9" end="720" vehsPerHour="45.77836101015878" departLane="free" arrivalSpeed="0.0"/>
  <flow id="JF15421" begin="360" fromJunction="J12" toJunction="J0" end="720" vehsPerHour="34.79033240616763" departLane="free" arrivalSpeed="0.0"/>
  <flow id="JF15422" begin="360" fromJunction="J12" toJunction="J13" end="720" vehsPerHour="43.62220518167726" departLane="free" arrivalSpeed="0.0"/>
  <flow id="JF15423" begin="360" fromJunction="J12" toJunction="J14" end="720" vehsPerHour="53.33442287145679" departLane="free" arrivalSpeed="0.0"/>
  <flow id="JF15424" begin="360" fromJunction="J12" toJunction="J16" end="720" vehsPerHour="38.800444414467904" departLane="free" arrivalSpeed="0.0"/>
  <flow id="JF15425" begin="360" fromJunction="J12" toJunction="J2" end="720" vehsPerHour="58.60388000056261" departLane="free" arrivalSpeed="0.0"/>
  <flow id="JF15426" begin="360" fromJunction="J12" toJunction="J3" end="720" vehsPerHour="25.133837647229196" departLane="free" arrivalSpeed="0.0"/>
  <flow id="JF15427" begin="360" fromJunction="J12" toJunction="J6" end="720" vehsPerHour="9.342397988219108" departLane="free" arrivalSpeed="0.0"/>
  <flow id="JF15428" begin="360" fromJunction="J12" toJunction="J7" end="720" vehsPerHour="38.87563278483542" departLane="free" arrivalSpeed="0.0"/>
  <flow id="JF15429" begin="360" fromJunction="J12" toJunction="J8" end="720" vehsPerHour="45.6290618567311" departLane="free" arrivalSpeed="0.0"/>
  <flow id="JF15430" begin="360" fromJunction="J12" toJunction="J9" end="720" vehsPerHour="17.0366919732515" departLane="free" arrivalSpeed="0.0"/>
  <flow id="JF15431" begin="360" fromJunction="J13" toJunction="J0" end="720" vehsPerHour="0.8840902392913335" departLane="free" arrivalSpeed="0.0"/>
  <flow id="JF15432" begin="360" fromJunction="J13" toJunction="J14" end="720" vehsPerHour="35.062460727120886" departLane="free" arrivalSpeed="0.0"/>
  <flow id="JF15433" begin="360" fromJunction="J13" toJunction="J15" end="720" vehsPerHour="65.9223142068368" departLane="free" arrivalSpeed="0.0"/>
  <flow id="JF15434" begin="360" fromJunction="J13" toJunction="J2" end="720" vehsPerHour="12.003709940342763" departLane="free" arrivalSpeed="0.0"/>
  <flow id="JF15435" begin="360" fromJunction="J13" toJunction="J7" end="720" vehsPerHour="53.18925250718328" departLane="free" arrivalSpeed="0.0"/>
  <flow id="JF15436" begin="360" fromJunction="J13" toJunction="J8" end="720" vehsPerHour="51.14442148023077" departLane="free" arrivalSpeed="0.0"/>
  <flow id="JF15437" begin="360" fromJunction="J13" toJunction="J9" end="720" vehsPerHour="31.87779202536562" departLane="free" arrivalSpeed="0.0"/>
  <flow id="JF15438" begin="360" fromJunction="J14" toJunction="J0" end="720" vehsPerHour="21.273620598844687" departLane="free" arrivalSpeed="0.0"/>
  <flow id="JF15439" begin="360" fromJunction="J14" toJunction="J12" end="720" vehsPerHour="46.97925476005566" departLane="free" arrivalSpeed="0.0"/>
  <flow id="JF15440" begin="360" fromJunction="J14" toJunction="J13" end="720" vehsPerHour="63.08648152783013" departLane="free" arrivalSpeed="0.0"/>
  <flow id="JF15441" begin="360" fromJunction="J14" toJunction="J15" end="720" vehsPerHour="63.02609715688607" departLane="free" arrivalSpeed="0.0"/>
  <flow id="JF15442" begin="360" fromJunction="J14" toJunction="J16" end="720" vehsPerHour="18.72431745521472" departLane="free" arrivalSpeed="0.0"/>
  <flow id="JF15443" begin="360" fromJunction="J14" toJunction="J6" end="720" vehsPerHour="40.15799103553373" departLane="free" arrivalSpeed="0.0"/>
  <flow id="JF15444" begin="360" fromJunction="J14" toJunction="J8" end="720" vehsPerHour="65.1712915745692" departLane="free" arrivalSpeed="0.0"/>
  <flow id="JF15445" begin="360" fromJunction="J14" toJunction="J9" end="720" vehsPerHour="44.54053879814417" departLane="free" arrivalSpeed="0.0"/>
  <flow id="JF15446" begin="360" fromJunction="J15" toJunction="J0" end="720" vehsPerHour="32.08183275959793" departLane="free" arrivalSpeed="0.0"/>
  <flow id="JF15447" begin="360" fromJunction="J15" toJunction="J12" end="720" vehsPerHour="18.624273586786146" departLane="free" arrivalSpeed="0.0"/>
  <flow id="JF15448" begin="360" fromJunction="J15" toJunction="J13" end="720" vehsPerHour="45.354501506180455" departLane="free" arrivalSpeed="0.0"/>
  <flow id="JF15449" begin="360" fromJunction="J15" toJunction="J14" end="720" vehsPerHour="67.14640781425682" departLane="free" arrivalSpeed="0.0"/>
  <flow id="JF15450" begin="360" fromJunction="J15" toJunction="J3" end="720" vehsPerHour="19.651117445031137" departLane="free" arrivalSpeed="0.0"/>
  <flow id="JF15451" begin="360" fromJunction="J15" toJunction="J6" end="720" vehsPerHour="2.1767468749074346" departLane="free" arrivalSpeed="0.0"/>
  <flow id="JF15452" begin="360" fromJunction="J15" toJunction="J7" end="720" vehsPerHour="31.15549171368432" departLane="free" arrivalSpeed="0.0"/>
  <flow id="JF15453" begin="360" fromJunction="J15" toJunction="J9" end="720" vehsPerHour="7.16923559143231" departLane="free" arrivalSpeed="0.0"/>
  <flow id="JF15454" begin="360" fromJunction="J16" toJunction="J0" end="720" vehsPerHour="83.70960472341417" departLane="free" arrivalSpeed="0.0"/>
  <flow id="JF15455" begin="360" fromJunction="J16" toJunction="J12" end="720" vehsPerHour="63.30529801736134" departLane="free" arrivalSpeed="0.0"/>
  <flow id="JF15456" begin="360" fromJunction="J16" toJunction="J13" end="720" vehsPerHour="93.35642876718903" departLane="free" arrivalSpeed="0.0"/>
  <flow id="JF15457" begin="360" fromJunction="J16" toJunction="J15" end="720" vehsPerHour="59.58245480566096" departLane="free" arrivalSpeed="0.0"/>
  <flow id="JF15458" begin="360" fromJunction="J16" toJunction="J2" end="720" vehsPerHour="28.43067296320012" departLane="free" arrivalSpeed="0.0"/>
  <flow id="JF15459" begin="360" fromJunction="J16" toJunction="J3" end="720" vehsPerHour="71.86446737099261" departLane="free" arrivalSpeed="0.0"/>
  <flow id="JF15460" begin="360" fromJunction="J16" toJunction="J6" end="720" vehsPerHour="116.46935200335061" departLane="free" arrivalSpeed="0.0"/>
  <flow id="JF15461" begin="360" fromJunction="J16" toJunction="J7" end="720" vehsPerHour="100.90925208947067" departLane="free" arrivalSpeed="0.0"/>
  <flow id="JF15462" begin="360" fromJunction="J16" toJunction="J8" end="720" vehsPerHour="113.15030026009121" departLane="free" arrivalSpeed="0.0"/>
  <flow id="JF15463" begin="360" fromJunction="J16" toJunction="J9" end="720" vehsPerHour="98.21562545166795" departLane="free" arrivalSpeed="0.0"/>
  <flow id="JF15464" begin="360" fromJunction="J2" toJunction="J12" end="720" vehsPerHour="52.58023861087528" departLane="free" arrivalSpeed="0.0"/>
  <flow id="JF15465" begin="360" fromJunction="J2" toJunction="J14" end="720" vehsPerHour="126.05403076831108" departLane="free" arrivalSpeed="0.0"/>
  <flow id="JF15466" begin="360" fromJunction="J2" toJunction="J15" end="720" vehsPerHour="83.11905204945351" departLane="free" arrivalSpeed="0.0"/>
  <flow id="JF15467" begin="360" fromJunction="J2" toJunction="J6" end="720" vehsPerHour="31.674394980321107" departLane="free" arrivalSpeed="0.0"/>
  <flow id="JF15468" begin="360" fromJunction="J2" toJunction="J7" end="720" vehsPerHour="8.821919167161028" departLane="free" arrivalSpeed="0.0"/>
  <flow id="JF15469" begin="360" fromJunction="J2" toJunction="J8" end="720" vehsPerHour="67.78255961270756" departLane="free" arrivalSpeed="0.0"/>
  <flow id="JF15470" begin="360" fromJunction="J3" toJunction="J0" end="720" vehsPerHour="25.18237418927832" departLane="free" arrivalSpeed="0.0"/>
  <flow id="JF15471" begin="360" fromJunction="J3" toJunction="J12" end="720" vehsPerHour="56.91627699200254" departLane="free" arrivalSpeed="0.0"/>
  <flow id="JF15472" begin="360" fromJunction="J3" toJunction="J13" end="720" vehsPerHour="31.59997465957173" departLane="free" arrivalSpeed="0.0"/>
  <flow id="JF15473" begin="360" fromJunction="J3" toJunction="J14" end="720" vehsPerHour="62.06406271892165" departLane="free" arrivalSpeed="0.0"/>
  <flow id="JF15474" begin="360" fromJunction="J3" toJunction="J16" end="720" vehsPerHour="56.987068426599606" departLane="free" arrivalSpeed="0.0"/>
  <flow id="JF15475" begin="360" fromJunction="J3" toJunction="J2" end="720" vehsPerHour="57.02333656703219" departLane="free" arrivalSpeed="0.0"/>
  <flow id="JF15476" begin="360" fromJunction="J3" toJunction="J6" end="720" vehsPerHour="35.74392983998129" departLane="free" arrivalSpeed="0.0"/>
  <flow id="JF15477" begin="360" fromJunction="J3" toJunction="J7" end="720" vehsPerHour="46.09058844914235" departLane="free" arrivalSpeed="0.0"/>
  <flow id="JF15478" begin="360" fromJunction="J3" toJunction="J8" end="720" vehsPerHour="61.60791766804811" departLane="free" arrivalSpeed="0.0"/>
  <flow id="JF15479" begin="360" fromJunction="J3" toJunction="J9" end="720" vehsPerHour="57.89595186376975" departLane="free" arrivalSpeed="0.0"/>
  <flow id="JF15480" begin="360" fromJunction="J6" toJunction="J0" end="720" vehsPerHour="36.0305466541855" departLane="free" arrivalSpeed="0.0"/>
  <flow id="JF15481" begin="360" fromJunction="J6" toJunction="J13" end="720" vehsPerHour="48.960245643755385" departLane="free" arrivalSpeed="0.0"/>
  <flow id="JF15482" begin="360" fromJunction="J6" toJunction="J14" end="720" vehsPerHour="41.31035774790561" departLane="free" arrivalSpeed="0.0"/>
  <flow id="JF15483" begin="360" fromJunction="J6" toJunction="J15" end="720" vehsPerHour="41.81099540148995" departLane="free" arrivalSpeed="0.0"/>
  <flow id="JF15484" begin="360" fromJunction="J6" toJunction="J2" end="720" vehsPerHour="20.247668583982776" departLane="free" arrivalSpeed="0.0"/>
  <flow id="JF15485" begin="360" fromJunction="J6" toJunction="J3" end="720" vehsPerHour="67.15655411388124" departLane="free" arrivalSpeed="0.0"/>
  <flow id="JF15486" begin="360" fromJunction="J6" toJunction="J7" end="720" vehsPerHour="14.27951367336722" departLane="free" arrivalSpeed="0.0"/>
  <flow id="JF15487" begin="360" fromJunction="J6" toJunction="J8" end="720" vehsPerHour="8.705518361950283" departLane="free" arrivalSpeed="0.0"/>
  <flow id="JF15488" begin="360" fromJunction="J6" toJunction="J9" end="720" vehsPerHour="16.586151973746535" departLane="free" arrivalSpeed="0.0"/>
  <flow id="JF15489" begin="360" fromJunction="J7" toJunction="J0" end="720" vehsPerHour="55.819692393751254" departLane="free" arrivalSpeed="0.0"/>
  <flow id="JF15490" begin="360" fromJunction="J7" toJunction="J14" end="720" vehsPerHour="59.3863035492472" departLane="free" arrivalSpeed="0.0"/>
  <flow id="JF15491" begin="360" fromJunction="J7" toJunction="J15" end="720" vehsPerHour="27.460163417357833" departLane="free" arrivalSpeed="0.0"/>
  <flow id="JF15492" begin="360" fromJunction="J7" toJunction="J2" end="720" vehsPerHour="18.368463403871434" departLane="free" arrivalSpeed="0.0"/>
  <flow id="JF15493" begin="360" fromJunction="J7" toJunction="J3" end="720" vehsPerHour="0.7630456047951183" departLane="free" arrivalSpeed="0.0"/>
  <flow id="JF15494" begin="360" fromJunction="J7" toJunction="J6" end="720" vehsPerHour="4.6298254830152095" departLane="free" arrivalSpeed="0.0"/>
  <flow id="JF15495" begin="360" fromJunction="J7" toJunction="J8" end="720" vehsPerHour="10.643380623426394" departLane="free" arrivalSpeed="0.0"/>
  <flow id="JF15496" begin="360" fromJunction="J7" toJunction="J9" end="720" vehsPerHour="38.38138043848718" departLane="free" arrivalSpeed="0.0"/>
  <flow id="JF15497" begin="360" fromJunction="J8" toJunction="J0" end="720" vehsPerHour="1.1837670380063035" departLane="free" arrivalSpeed="0.0"/>
  <flow id="JF15498" begin="360" fromJunction="J8" toJunction="J13" end="720" vehsPerHour="49.73072335012194" departLane="free" arrivalSpeed="0.0"/>
  <flow id="JF15499" begin="360" fromJunction="J8" toJunction="J14" end="720" vehsPerHour="38.18721467656429" departLane="free" arrivalSpeed="0.0"/>
  <flow id="JF15500" begin="360" fromJunction="J8" toJunction="J15" end="720" vehsPerHour="33.92094125394291" departLane="free" arrivalSpeed="0.0"/>
  <flow id="JF15501" begin="360" fromJunction="J8" toJunction="J16" end="720" vehsPerHour="39.44716346639074" departLane="free" arrivalSpeed="0.0"/>
  <flow id="JF15502" begin="360" fromJunction="J8" toJunction="J2" end="720" vehsPerHour="8.556875944574577" departLane="free" arrivalSpeed="0.0"/>
  <flow id="JF15503" begin="360" fromJunction="J9" toJunction="J12" end="720" vehsPerHour="12.571721290521914" departLane="free" arrivalSpeed="0.0"/>
  <flow id="JF15504" begin="360" fromJunction="J9" toJunction="J13" end="720" vehsPerHour="45.22643409571044" departLane="free" arrivalSpeed="0.0"/>
  <flow id="JF15505" begin="360" fromJunction="J9" toJunction="J16" end="720" vehsPerHour="1.9972940964079073" departLane="free" arrivalSpeed="0.0"/>
  <flow id="JF15506" begin="360" fromJunction="J9" toJunction="J2" end="720" vehsPerHour="12.946946609104353" departLane="free" arrivalSpeed="0.0"/>
  <flow id="JF15507" begin="360" fromJunction="J9" toJunction="J3" end="720" vehsPerHour="45.91833720655963" departLane="free" arrivalSpeed="0.0"/>
  <flow id="JF15508" begin="360" fromJunction="J9" toJunction="J6" end="720" vehsPerHour="47.7952942005928" departLane="free" arrivalSpeed="0.0"/>
  <flow id="JF15509" begin="360" fromJunction="J9" toJunction="J7" end="720" vehsPerHour="11.024458847637803" departLane="free" arrivalSpeed="0.0"/>
  <flow id="JF15510" begin="360" fromJunction="J9" toJunction="J8" end="720" vehsPerHour="27.753585015544317" departLane="free" arrivalSpeed="0.0"/>
  <flow id="JF15511" begin="720" fromJunction="J0" toJunction="J13" end="1080" vehsPerHour="10.751163964915948" departLane="free" arrivalSpeed="0.0"/>
  <flow id="JF15512" begin="720" fromJunction="J0" toJunction="J14" end="1080" vehsPerHour="28.241025249996472" departLane="free" arrivalSpeed="0.0"/>
  <flow id="JF15513" begin="720" fromJunction="J0" toJunction="J15" end="1080" vehsPerHour="57.730555325186614" departLane="free" arrivalSpeed="0.0"/>
  <flow id="JF15514" begin="720" fromJunction="J0" toJunction="J16" end="1080" vehsPerHour="57.31541389968381" departLane="free" arrivalSpeed="0.0"/>
  <flow id="JF15515" begin="720" fromJunction="J0" toJunction="J3" end="1080" vehsPerHour="52.150466472996946" departLane="free" arrivalSpeed="0.0"/>
  <flow id="JF15516" begin="720" fromJunction="J0" toJunction="J6" end="1080" vehsPerHour="6.9829590103972405" departLane="free" arrivalSpeed="0.0"/>