<?xml version="1.0" encoding="UTF-8"?>
<routes xmlns:xsi="http://www.w3.org/2001/XMLSchema-instance" xsi:noNamespaceSchemaLocation="http://sumo.dlr.de/xsd/routes_file.xsd">
  <flow id="JF86212" begin="0" fromJunction="J0" toJunction="J3" end="60" vehsPerHour="206.25326493581588"/>
  <flow id="JF86213" begin="0" fromJunction="J3" toJunction="J0" end="60" vehsPerHour="408.2237335885214"/>
  <flow id="JF86214" begin="0" fromJunction="J0" toJunction="J2" end="60" vehsPerHour="64.52452763724408"/>
  <flow id="JF86215" begin="0" fromJunction="J0" toJunction="J4" end="60" vehsPerHour="82.64388891035107"/>
  <flow id="JF86216" begin="0" fromJunction="J3" toJunction="J2" end="60" vehsPerHour="32.27604344314302"/>
  <flow id="JF86217" begin="0" fromJunction="J3" toJunction="J4" end="60" vehsPerHour="132.6899127562994"/>
  <flow id="JF86218" begin="0" fromJunction="J2" toJunction="J4" end="60" vehsPerHour="72.08226616917146"/>
  <flow id="JF86219" begin="0" fromJunction="J4" toJunction="J2" end="60" vehsPerHour="71.6459769880801"/>
  <flow id="JF86220" begin="0" fromJunction="J2" toJunction="J0" end="60" vehsPerHour="100.06682409276603"/>
  <flow id="JF86221" begin="0" fromJunction="J2" toJunction="J3" end="60" vehsPerHour="135.71263651158063"/>
  <flow id="JF86222" begin="0" fromJunction="J4" toJunction="J0" end="60" vehsPerHour="86.56919823100287"/>
  <flow id="JF86223" begin="0" fromJunction="J4" toJunction="J3" end="60" vehsPerHour="96.87811428106718"/>
  <flow id="JF86224" begin="60" fromJunction="J0" toJunction="J3" end="120" vehsPerHour="132.1166566651037"/>
  <flow id="JF86225" begin="60" fromJunction="J3" toJunction="J0" end="120" vehsPerHour="169.1192023910844"/>
  <flow id="JF86226" begin="60" fromJunction="J0" toJunction="J2" end="120" vehsPerHour="99.99279446683599"/>
  <flow id="JF86227" begin="60" fromJunction="J0" toJunction="J4" end="120" vehsPerHour="55.86351357982429"/>
  <flow id="JF86228" begin="60" fromJunction="J3" toJunction="J2" end="120" vehsPerHour="28.600982203077717"/>
  <flow id="JF86229" begin="60" fromJunction="J3" toJunction="J4" end="120" vehsPerHour="101.44942656590935"/>
  <flow id="JF86230" begin="60" fromJunction="J2" toJunction="J4" end="120" vehsPerHour="27.44530992108206"/>
  <flow id="JF86231" begin="60" fromJunction="J4" toJunction="J2" end="120" vehsPerHour="91.00801694550735"/>
  <flow id="JF86232" begin="60" fromJunction="J2" toJunction="J0" end="120" vehsPerHour="110.1868208261987"/>
  <flow id="JF86233" begin="60" fromJunction="J2" toJunction="J3" end="120" vehsPerHour="3.8794874483938373"/>
  <flow id="JF86234" begin="60" fromJunction="J4" toJunction="J0" end="120" vehsPerHour="23.368004035567573"/>
  <flow id="JF86235" begin="60" fromJunction="J4" toJunction="J3" end="120" vehsPerHour="66.12226714929344"/>
  <flow id="JF86236" begin="120" fromJunction="J0" toJunction="J3" end="180" vehsPerHour="201.22357711951062"/>
  <flow id="JF86237" begin="120" fromJunction="J3" toJunction="J0" end="180" vehsPerHour="72.68674007216411"/>
  <flow id="JF86238" begin="120" fromJunction="J0" toJunction="J2" end="180" vehsPerHour="103.41894454859892"/>
  <flow id="JF86239" begin="120" fromJunction="J0" toJunction="J4" end="180" vehsPerHour="71.24832716258186"/>
  <flow id="JF86240" begin="120" fromJunction="J3" toJunction="J2" end="180" vehsPerHour="96.252881022569"/>
  <flow id="JF86241" begin="120" fromJunction="J3" toJunction="J4" end="180" vehsPerHour="75.07441814998334"/>
  <flow id="JF86242" begin="120" fromJunction="J2" toJunction="J4" end="180" vehsPerHour="5.826394913136841"/>
  <flow id="JF86243" begin="120" fromJunction="J4" toJunction="J2" end="180" vehsPerHour="131.03265505970228"/>
  <flow id="JF86244" begin="120" fromJunction="J2" toJunction="J0" end="180" vehsPerHour="94.28908881432467"/>
  <flow id="JF86245" begin="120" fromJunction="J2" toJunction="J3" end="180" vehsPerHour="8.346362561534196"/>
  <flow id="JF86246" begin="120" fromJunction="J4" toJunction="J0" end="180" vehsPerHour="49.49260059717373"/>
  <flow id="JF86247" begin="120" fromJunction="J4" toJunction="J3" end="180" vehsPerHour="92.76752501423556"/>
  <flow id="JF86248" begin="180" fromJunction="J0" toJunction="J3" end="240" vehsPerHour="145.91703639972317"/>
  <flow id="JF86249" begin="180" fromJunction="J3" toJunction="J0" end="240" vehsPerHour="413.98230756269845"/>
  <flow id="JF86250" begin="180" fromJunction="J0" toJunction="J2" end="240" vehsPerHour="134.73841357718146"/>
  <flow id="JF86251" begin="180" fromJunction="J0" toJunction="J4" end="240" vehsPerHour="85.07937744232945"/>
  <flow id="JF86252" begin="180" fromJunction="J3" toJunction="J2" end="240" vehsPerHour="36.65364147973723"/>
  <flow id="JF86253" begin="180" fromJunction="J3" toJunction="J4" end="240" vehsPerHour="110.9507699813413"/>
  <flow id="JF86254" begin="240" fromJunction="J0" toJunction="J3" end="300" vehsPerHour="9.540308052131685"/>
  <flow id="JF86255" begin="240" fromJunction="J3" toJunction="J0" end="300" vehsPerHour="253.03812388735514"/>
  <flow id="JF86256" begin="240" fromJunction="J0" toJunction="J2" end="300" vehsPerHour="23.110341987574927"/>
  <flow id="JF86257" begin="240" fromJunction="J0" toJunction="J4" end="300" vehsPerHour="8.904672975114956"/>
  <flow id="JF86258" begin="240" fromJunction="J3" toJunction="J2" end="300" vehsPerHour="29.00949037299054"/>
  <flow id="JF86259" begin="240" fromJunction="J3" toJunction="J4" end="300" vehsPerHour="12.687169945291007"/>
  <flow id="JF86260" begin="240" fromJunction="J2" toJunction="J4" end="300" vehsPerHour="72.65369315075172"/>
  <flow id="JF86261" begin="240" fromJunction="J4" toJunction="J2" end="300" vehsPerHour="77.1739942140656"/>
  <flow id="JF86262" begin="240" fromJunction="J2" toJunction="J0" end="300" vehsPerHour="109.74781914423563"/>
  <flow id="JF86263" begin="240" fromJunction="J2" toJunction="J3" end="300" vehsPerHour="137.35948777151154"/>
  <flow id="JF86264" begin="240" fromJunction="J4" toJunction="J0" end="300" vehsPerHour="79.61326742247964"/>
  <flow id="JF86265" begin="240" fromJunction="J4" toJunction="J3" end="300" vehsPerHour="72.61065720093137"/>
  <flow id="JF86266" begin="300" fromJunction="J0" toJunction="J3" end="360" vehsPerHour="337.7330197042652"/>
  <flow id="JF86267" begin="300" fromJunction="J3" toJunction="J0" end="360" vehsPerHour="137.49318747132813"/>
  <flow id="JF86268" begin="300" fromJunction="J0" toJunction="J2" end="360" vehsPerHour="125.35586285574887"/>
  <flow id="JF86269" begin="300" fromJunction="J0" toJunction="J4" end="360" vehsPerHour="110.3033940836938"/>
  <flow id="JF86270" begin="300" fromJunction="J3" toJunction="J2" end="360" vehsPerHour="49.7938851918803"/>
  <flow id="JF86271" begin="300" fromJunction="J3" toJunction="J4" end="360" vehsPerHour="63.324719612212945"/>
  <flow id="JF86272" begin="360" fromJunction="J0" toJunction="J3" end="420" vehsPerHour="545.2552638004628"/>
  <flow id="JF86273" begin="360" fromJunction="J3" toJunction="J0" end="420" vehsPerHour="465.988060871414"/>
  <flow id="JF86274" begin="360" fromJunction="J0" toJunction="J2" end="420" vehsPerHour="21.143871183244986"/>
  <flow id="JF86275" begin="360" fromJunction="J0" toJunction="J4" end="420" vehsPerHour="21.502505338897443"/>
  <flow id="JF86276" begin="360" fromJunction="J3" toJunction="J2" end="420" vehsPerHour="2.59004059021568"/>
  <flow id="JF86277" begin="360" fromJunction="J3" toJunction="J4" end="420" vehsPerHour="13.696546255281971"/>
  <flow id="JF86278" begin="360" fromJunction="J2" toJunction="J4" end="420" vehsPerHour="40.410362736771276"/>
  <flow id="JF86279" begin="360" fromJunction="J4" toJunction="J2" end="420" vehsPerHour="118.09838740360456"/>
  <flow id="JF86280" begin="360" fromJunction="J2" toJunction="J0" end="420" vehsPerHour="72.47727053421103"/>
  <flow id="JF86281" begin="360" fromJunction="J2" toJunction="J3" end="420" vehsPerHour="112.96701301417177"/>
  <flow id="JF86282" begin="360" fromJunction="J4" toJunction="J0" end="420" vehsPerHour="131.02395264580704"/>
  <flow id="JF86283" begin="360" fromJunction="J4" toJunction="J3" end="420" vehsPerHour="121.2718199886802"/>
  <flow id="JF86284" begin="420" fromJunction="J0" toJunction="J3" end="480" vehsPerHour="98.54365390981576"/>
  <flow id="JF86285" begin="420" fromJunction="J3" toJunction="J0" end="480" vehsPerHour="349.5020378368926"/>
  <flow id="JF86286" begin="420" fromJunction="J0" toJunction="J2" end="480" vehsPerHour="110.83209244398762"/>
  <flow id="JF86287" begin="420" fromJunction="J0" toJunction="J4" end="480" vehsPerHour="101.17313154349186"/>
  <flow id="JF86288" begin="420" fromJunction="J3" toJunction="J2" end="480" vehsPerHour="46.24523921576335"/>
  <flow id="JF86289" begin="420" fromJunction="J3" toJunction="J4" end="480" vehsPerHour="7.822685337024108"/>
  <flow id="JF86290" begin="420" fromJunction="J2" toJunction="J4" end="480" vehsPerHour="9.295041512972386"/>
  <flow id="JF86291" begin="420" fromJunction="J4" toJunction="J2" end="480" vehsPerHour="118.60509225050494"/>
  <flow id="JF86292" begin="420" fromJunction="J2" toJunction="J0" end="480" vehsPerHour="102.64557132636124"/>
  <flow id="JF86293" begin="420" fromJunction="J2" toJunction="J3" end="480" vehsPerHour="33.41371854061112"/>
  <flow id="JF86294" begin="420" fromJunction="J4" toJunction="J0" end="480" vehsPerHour="120.22530352003425"/>
  <flow id="JF86295" begin="420" fromJunction="J4" toJunction="J3" end="480" vehsPerHour="75.67336384183639"/>
  <flow id="JF86296" begin="480" fromJunction="J0" toJunction="J3" end="540" vehsPerHour="338.3165977490272"/>
  <flow id="JF86297" begin="480" fromJunction="J3" toJunction="J0" end="540" vehsPerHour="89.58255322062062"/>
  <flow id="JF86298" begin="480" fromJunction="J0" toJunction="J2" end="540" vehsPerHour="52.78015747339648"/>
  <flow id="JF86299" begin="480" fromJunction="J0" toJunction="J4" end="540" vehsPerHour="110.49349605142318"/>
  <flow id="JF86300" begin="480" fromJunction="J3" toJunction="J2" end="540" vehsPerHour="88.8452167746829"/>
  <flow id="JF86301" begin="480" fromJunction="J3" toJunction="J4" end="540" vehsPerHour="2.126560796765327"/>
  <flow id="JF86302" begin="480" fromJunction="J2" toJunction="J4" end="540" vehsPerHour="52.02516565520299"/>
  <flow id="JF86303" begin="480" fromJunction="J4" toJunction="J2" end="540" vehsPerHour="58.04214520601342"/>
  <flow id="JF86304" begin="480" fromJunction="J2" toJunction="J0" end="540" vehsPerHour="85.07841135259328"/>
  <flow id="JF86305" begin="480" fromJunction="J2" toJunction="J3" end="540" vehsPerHour="38.3614789215368"/>
  <flow id="JF86306" begin="480" fromJunction="J4" toJunction="J0" end="540" vehsPerHour="69.65718095031204"/>
  <flow id="JF86307" begin="480" fromJunction="J4" toJunction="J3" end="540" vehsPerHour="93.88780961691472"/>
  <flow id="JF86308" begin="540" fromJunction="J0" toJunction="J3" end="600" vehsPerHour="337.40064466730024"/>
  <flow id="JF86309" begin="540" fromJunction="J3" toJunction="J0" end="600" vehsPerHour="408.5828422674085"/>
  <flow id="JF86310" begin="540" fromJunction="J0" toJunction="J2" end="600" vehsPerHour="25.614319202707357"/>
  <flow id="JF86311" begin="540" fromJunction="J0" toJunction="J4" end="600" vehsPerHour="29.84021693857491"/>
  <flow id="JF86312" begin="540" fromJunction="J3" toJunction="J2" end="600" vehsPerHour="48.517282437540516"/>
  <flow id="JF86313" begin="540" fromJunction="J3" toJunction="J4" end="600" vehsPerHour="88.85372591287016"/>
  <flow id="JF86314" begin="600" fromJunction="J0" toJunction="J3" end="660" vehsPerHour="399.9298046928972"/>
  <flow id="JF86315" begin="600" fromJunction="J3" toJunction="J0" end="660" vehsPerHour="129.66490866180354"/>
  <flow id="JF86316" begin="600" fromJunction="J0" toJunction="J2" end="660" vehsPerHour="84.84389313526445"/>
  <flow id="JF86317" begin="600" fromJunction="J0" toJunction="J4" end="660" vehsPerHour="6.602812177601513"/>
  <flow id="JF86318" begin="600" fromJunction="J3" toJunction="J2" end="660" vehsPerHour="91.17855086913269"/>
  <flow id="JF86319" begin="600" fromJunction="J3" toJunction="J4" end="660" vehsPerHour="117.33794877495983"/>
  <flow id="JF86320" begin="660" fromJunction="J0" toJunction="J3" end="720" vehsPerHour="393.2780680568128"/>
  <flow id="JF86321" begin="660" fromJunction="J3" toJunction="J0" end="720" vehsPerHour="382.2538400940402"/>
  <flow id="JF86322" begin="660" fromJunction="J0" toJunction="J2" end="720" vehsPerHour="100.65448208883193"/>
  <flow id="JF86323" begin="660" fromJunction="J0" toJunction="J4" end="720" vehsPerHour="2.607852894718496"/>
  <flow id="JF86324" begin="660" fromJunction="J3" toJunction="J2" end="720" vehsPerHour="49.124495526549296"/>
  <flow id="JF86325" begin="660" fromJunction="J3" toJunction="J4" end="720" vehsPerHour="130.3439506153547"/>
  <flow id="JF86326" begin="660" fromJunction="J2" toJunction="J4" end="720" vehsPerHour="111.0679815406955"/>
  <flow id="JF86327" begin="660" fromJunction="J4" toJunction="J2" end="720" vehsPerHour="71.65931410318458"/>
  <flow id="JF86328" begin="660" fromJunction="J2" toJunction="J0" end="720" vehsPerHour="77.83170564559548"/>
  <flow id="JF86329" begin="660" fromJunction="J2" toJunction="J3" end="720" vehsPerHour="133.21753294846815"/>
  <flow id="JF86330" begin="660" fromJunction="J4" toJunction="J0" end="720" vehsPerHour="11.500726270216724"/>
  <flow id="JF86331" begin="660" fromJunction="J4" toJunction="J3" end="720" vehsPerHour="108.53802073022781"/>
  <flow id="JF86332" begin="720" fromJunction="J0" toJunction="J3" end="780" vehsPerHour="289.1182165195851"/>
  <flow id="JF86333" begin="720" fromJunction="J3" toJunction="J0" end="780" vehsPerHour="423.87342507594377"/>
  <flow id="JF86334" begin="720" fromJunction="J0" toJunction="J2" end="780" vehsPerHour="116.4856307205869"/>
  <flow id="JF86335" begin="720" fromJunction="J0" toJunction="J4" end="780" vehsPerHour="106.46077813594076"/>
  <flow id="JF86336" begin="720" fromJunction="J3" toJunction="J2" end="780" vehsPerHour="5.61767214414972"/>
  <flow id="JF86337" begin="720" fromJunction="J3" toJunction="J4" end="780" vehsPerHour="107.18834530007649"/>
  <flow id="JF86338" begin="720" fromJunction="J2" toJunction="J4" end="780" vehsPerHour="1.516358090348372"/>
  <flow id="JF86339" begin="720" fromJunction="J4" toJunction="J2" end="780" vehsPerHour="132.79369839828047"/>
  <flow id="JF86340" begin="720" fromJunction="J2" toJunction="J0" end="780" vehsPerHour="102.59298969154335"/>
  <flow id="JF86341" begin="720" fromJunction="J2" toJunction="J3" end="780" vehsPerHour="32.994561704048024"/>
  <flow id="JF86342" begin="720" fromJunction="J4" toJunction="J0" end="780" vehsPerHour="93.73092790171937"/>
  <flow id="JF86343" begin="720" fromJunction="J4" toJunction="J3" end="780" vehsPerHour="124.6561780317188"/>
  <flow id="JF86344" begin="780" fromJunction="J0" toJunction="J3" end="840" vehsPerHour="466.5489951220006"/>
  <flow id="JF86345" begin="780" fromJunction="J3" toJunction="J0" end="840" vehsPerHour="180.02558115080626"/>
  <flow id="JF86346" begin="780" fromJunction="J0" toJunction="J2" end="840" vehsPerHour="53.394140865935704"/>
  <flow id="JF86347" begin="780" fromJunction="J0" toJunction="J4" end="840" vehsPerHour="6.903414857065755"/>
  <flow id="JF86348" begin="780" fromJunction="J3" toJunction="J2" end="840" vehsPerHour="8.277303323583043"/>
  <flow id="JF86349" begin="780" fromJunction="J3" toJunction="J4" end="840" vehsPerHour="29.404858512013927"/>
  <flow id="JF86350" begin="780" fromJunction="J2" toJunction="J4" end="840" vehsPerHour="42.043476322205684"/>
  <flow id="JF86351" begin="780" fromJunction="J4" toJunction="J2" end="840" vehsPerHour="94.77149524969346"/>
  <flow id="JF86352" begin="780" fromJunction="J2" toJunction="J0" end="840" vehsPerHour="133.4045602750369"/>
  <flow id="JF86353" begin="780" fromJunction="J2" toJunction="J3" end="840" vehsPerHour="133.6467639377902"/>
  <flow id="JF86354" begin="780" fromJunction="J4" toJunction="J0" end="840" vehsPerHour="31.630251053964326"/>
  <flow id="JF86355" begin="780" fromJunction="J4" toJunction="J3" end="840" vehsPerHour="123.83829447688605"/>
  <flow id="JF86356" begin="840" fromJunction="J0" toJunction="J3" end="900" vehsPerHour="137.33779997350138"/>
  <flow id="JF86357" begin="840" fromJunction="J3" toJunction="J0" end="900" vehsPerHour="40.42169311556081"/>
  <flow id="JF86358" begin="840" fromJunction="J0" toJunction="J2" end="900" vehsPerHour="98.60776993316802"/>
  <flow id="JF86359" begin="840" fromJunction="J0" toJunction="J4" end="900" vehsPerHour="107.27970424425128"/>
  <flow id="JF86360" begin="840" fromJunction="J3" toJunction="J2" end="900" vehsPerHour="11.58788003266093"/>
  <flow id="JF86361" begin="840" fromJunction="J3" toJunction="J4" end="900" vehsPerHour="2.9411928649056045"/>
  <flow id="JF86362" begin="900" fromJunction="J0" toJunction="J3" end="960" vehsPerHour="205.63533748270575"/>
  <flow id="JF86363" begin="900" fromJunction="J3" toJunction="J0" end="960" vehsPerHour="26.683927328651595"/>
  <flow id="JF86364" begin="900" fromJunction="J0" toJunction="J2" end="960" vehsPerHour="11.604561443240183"/>
  <flow id="JF86365" begin="900" fromJunction="J0" toJunction="J4" end="960" vehsPerHour="41.61237950762868"/>
  <flow id="JF86366" begin="900" fromJunction="J3" toJunction="J2" end="960" vehsPerHour="48.7774331500019"/>
  <flow id="JF86367" begin="900" fromJunction="J3" toJunction="J4" end="960" vehsPerHour="42.989369726000454"/>
  <flow id="JF86368" begin="900" fromJunction="J2" toJunction="J4" end="960" vehsPerHour="61.78436114641994"/>
  <flow id="JF86369" begin="900" fromJunction="J4" toJunction="J2" end="960" vehsPerHour="17.751370986237752"/>
  <flow id="JF86370" begin="900" fromJunction="J2" toJunction="J0" end="960" vehsPerHour="67.93429708649504"/>
  <flow id="JF86371" begin="900" fromJunction="J2" toJunction="J3" end="960" vehsPerHour="71.24165731059257"/>
  <flow id="JF86372" begin="900" fromJunction="J4" toJunction="J0" end="960" vehsPerHour="44.587057778324436"/>
  <flow id="JF86373" begin="900" fromJunction="J4" toJunction="J3" end="960" vehsPerHour="100.34681304274879"/>
  <flow id="JF86374" begin="960" fromJunction="J0" toJunction="J3" end="1020" vehsPerHour="218.5401294550123"/>
  <flow id="JF86375" begin="960" fromJunction="J3" toJunction="J0" end="1020" vehsPerHour="290.74254877325575"/>
  <flow id="JF86376" begin="960" fromJunction="J0" toJunction="J2" end="1020" vehsPerHour="86.67963766817951"/>
  <flow id="JF86377" begin="960" fromJunction="J0" toJunction="J4" end="1020" vehsPerHour="131.95704081280175"/>
  <flow id="JF86378" begin="960" fromJunction="J3" toJunction="J2" end="1020" vehsPerHour="117.03802609588911"/>
  <flow id="JF86379" begin="960" fromJunction="J3" toJunction="J4" end="1020" vehsPerHour="74.02083909921322"/>
  <flow id="JF86380" begin="1020" fromJunction="J0" toJunction="J3" end="1080" vehsPerHour="255.5174261634468"/>
  <flow id="JF86381" begin="1020" fromJunction="J3" toJunction="J0" end="1080" vehsPerHour="448.6454741478226"/>
  <flow id="JF86382" begin="1020" fromJunction="J0" toJunction="J2" end="1080" vehsPerHour="121.61370408258465"/>
  <flow id="JF86383" begin="1020" fromJunction="J0" toJunction="J4" end="1080" vehsPerHour="137.23205954312004"/>
  <flow id="JF86384" begin="1020" fromJunction="J3" toJunction="J2" end="1080" vehsPerHour="117.49812976534983"/>
  <flow id="JF86385" begin="1020" fromJunction="J3" toJunction="J4" end="1080" vehsPerHour="39.29144307362233"/>
  <flow id="JF86386" begin="1020" fromJunction="J2" toJunction="J4" end="1080" vehsPerHour="40.88541138313812"/>
  <flow id="JF86387" begin="1020" fromJunction="J4" toJunction="J2" end="1080" vehsPerHour="56.4836753593275"/>
  <flow id="JF86388" begin="1020" fromJunction="J2" toJunction="J0" end="1080" vehsPerHour="81.6462402625864"/>
  <flow id="JF86389" begin="1020" fromJunction="J2" toJunction="J3" end="1080" vehsPerHour="65.27567141958043"/>
  <flow id="JF86390" begin="1020" fromJunction="J4" toJunction="J0" end="1080" vehsPerHour="32.317860967960655"/>
  <flow id="JF86391" begin="1020" fromJunction="J4" toJunction="J3" end="1080" vehsPerHour="56.25589013291965"/>
  <flow id="JF86392" begin="1080" fromJunction="J0" toJunction="J3" end="1140" vehsPerHour="327.7403124724164"/>
  <flow id="JF86393" begin="1080" fromJunction="J3" toJunction="J0" end="1140" vehsPerHour="36.797165846827035"/>
  <flow id="JF86394" begin="1080" fromJunction="J0" toJunction="J2" end="1140" vehsPerHour="25.727608003924782"/>
  <flow id="JF86395" begin="1080" fromJunction="J0" toJunction="J4" end="1140" vehsPerHour="86.68336879283446"/>
  <flow id="JF86396" begin="1080" fromJunction="J3" toJunction="J2" end="1140" vehsPerHour="63.485610022397026"/>
  <flow id="JF86397" begin="1080" fromJunction="J3" toJunction="J4" end="1140" vehsPerHour="47.848742428378955"/>
  <flow id="JF86398" begin="1140" fromJunction="J0" toJunction="J3" end="1200" vehsPerHour="6.670365442710351"/>
  <flow id="JF86399" begin="1140" fromJunction="J3" toJunction="J0" end="1200" vehsPerHour="176.86974390796271"/>
  <flow id="JF86400" begin="1140" fromJunction="J0" toJunction="J2" end="1200" vehsPerHour="30.629503396872487"/>
  <flow id="JF86401" begin="1140" fromJunction="J0" toJunction="J4" end="1200" vehsPerHour="57.80828423161121"/>
  <flow id="JF86402" begin="1140" fromJunction="J3" toJunction="J2" end="1200" vehsPerHour="25.302958346971415"/>
  <flow id="JF86403" begin="1140" fromJunction="J3" toJunction="J4" end="1200" vehsPerHour="53.19111352133731"/>
  <flow id="JF86404" begin="1140" fromJunction="J2" toJunction="J4" end="1200" vehsPerHour="80.16912782785852"/>
  <flow id="JF86405" begin="1140" fromJunction="J4" toJunction="J2" end="1200" vehsPerHour="110.76533384863181"/>
  <flow id="JF86406" begin="1140" fromJunction="J2" toJunction="J0" end="1200" vehsPerHour="40.45395205510658"/>
  <flow id="JF86407" begin="1140" fromJunction="J2" toJunction="J3" end="1200" vehsPerHour="26.092270311812943"/>
  <flow id="JF86408" begin="1140" fromJunction="J4" toJunction="J0" end="1200" vehsPerHour="40.06688068175194"/>
  <flow id="JF86409" begin="1140" fromJunction="J4" toJunction="J3" end="1200" vehsPerHour="52.24143151706362"/>
  <flow id="JF86410" begin="1200" fromJunction="J0" toJunction="J3" end="1260" vehsPerHour="93.98903982250228"/>
  <flow id="JF86411" begin="1200" fromJunction="J3" toJunction="J0" end="1260" vehsPerHour="294.81484235173815"/>
  <flow id="JF86412" begin="1200" fromJunction="J0" toJunction="J2" end="1260" vehsPerHour="127.30413648379607"/>
  <flow id="JF86413" begin="1200" fromJunction="J0" toJunction="J4" end="1260" vehsPerHour="80.08247966530057"/>
  <flow id="JF86414" begin="1200" fromJunction="J3" toJunction="J2" end="1260" vehsPerHour="9.448863355493277"/>
  <flow id="JF86415" begin="1200" fromJunction="J3" toJunction="J4" end="1260" vehsPerHour="109.8214659584711"/>
  <flow id="JF86416" begin="1200" fromJunction="J2" toJunction="J4" end="1260" vehsPerHour="134.8145162066206"/>
  <flow id="JF86417" begin="1200" fromJunction="J4" toJunction="J2" end="1260" vehsPerHour="133.60658419593753"/>
  <flow id="JF86418" begin="1200" fromJunction="J2" toJunction="J0" end="1260" vehsPerHour="20.66616405029858"/>
  <flow id="JF86419" begin="1200" fromJunction="J2" toJunction="J3" end="1260" vehsPerHour="10.49172620630953"/>
  <flow id="JF86420" begin="1200" fromJunction="J4" toJunction="J0" end="1260" vehsPerHour="68.0152232046611"/>
  <flow id="JF86421" begin="1200" fromJunction="J4" toJunction="J3" end="1260" vehsPerHour="48.738158130504125"/>
  <flow id="JF86422" begin="1260" fromJunction="J0" toJunction="J3" end="1320" vehsPerHour="305.5626040846794"/>
  <flow id="JF86423" begin="1260" fromJunction="J3" toJunction="J0" end="1320" vehsPerHour="514.9358317222825"/>
  <flow id="JF86424" begin="1260" fromJunction="J0" toJunction="J2" end="1320" vehsPerHour="4.743996866161667"/>
  <flow id="JF86425" begin="1260" fromJunction="J0" toJunction="J4" end="1320" vehsPerHour="94.87822124936534"/>
  <flow id="JF86426" begin="1260" fromJunction="J3" toJunction="J2" end="1320" vehsPerHour="76.89392243573334"/>
  <flow id="JF86427" begin="1260" fromJunction="J3" toJunction="J4" end="1320" vehsPerHour="130.2185948768642"/>
  <flow id="JF86428" begin="1260" fromJunction="J2" toJunction="J4" end="1320" vehsPerHour="47.65108864100421"/>
  <flow id="JF86429" begin="1260" fromJunction="J4" toJunction="J2" end="1320" vehsPerHour="85.72931834741578"/>
  <flow id="JF86430" begin="1260" fromJunction="J2" toJunction="J0" end="1320" vehsPerHour="25.956344242382883"/>
  <flow id="JF86431" begin="1260" fromJunction="J2" toJunction="J3" end="1320" vehsPerHour="16.18457902113501"/>
  <flow id="JF86432" begin="1260" fromJunction="J4" toJunction="J0" end="1320" vehsPerHour="82.61626136355551"/>
  <flow id="JF86433" begin="1260" fromJunction="J4" toJunction="J3" end="1320" vehsPerHour="25.82726454476913"/>
  <flow id="JF86434" begin="1320" fromJunction="J0" toJunction="J3" end="1380" vehsPerHour="232.25057319971296"/>
  <flow id="JF86435" begin="1320" fromJunction="J3" toJunction="J0" end="1380" vehsPerHour="68.15906310038818"/>
  <flow id="JF86436" begin="1320" fromJunction="J0" toJunction="J2" end="1380" vehsPerHour="117.54503485461815"/>
  <flow id="JF86437" begin="1320" fromJunction="J0" toJunction="J4" end="1380" vehsPerHour="25.62963641783482"/>
  <flow id="JF86438" begin="1320" fromJunction="J3" toJunction="J2" end="1380" vehsPerHour="72.60577715205567"/>
  <flow id="JF86439" begin="1320" fromJunction="J3" toJunction="J4" end="1380" vehsPerHour="83.2936759793759"/>
  <flow id="JF86440" begin="1320" fromJunction="J2" toJunction="J4" end="1380" vehsPerHour="41.03997662400223"/>
  <flow id="JF86441" begin="1320" fromJunction="J4" toJunction="J2" end="1380" vehsPerHour="8.396951822353538"/>
  <flow id="JF86442" begin="1320" fromJunction="J2" toJunction="J0" end="1380" vehsPerHour="68.30621226415592"/>
  <flow id="JF86443" begin="1320" fromJunction="J2" toJunction="J3" end="1380" vehsPerHour="126.6208225630916"/>
  <flow id="JF86444" begin="1320" fromJunction="J4" toJunction="J0" end="1380" vehsPerHour="128.07615866310215"/>
  <flow id="JF86445" begin="1320" fromJunction="J4" toJunction="J3" end="1380" vehsPerHour="57.95827216933125"/>
  <flow id="JF86446" begin="1380" fromJunction="J0" toJunction="J3" end="1440" vehsPerHour="95.94367377296135"/>
  <flow id="JF86447" begin="1380" fromJunction="J3" toJunction="J0" end="1440" vehsPerHour="337.55607141706395"/>
  <flow id="JF86448" begin="1380" fromJunction="J0" toJunction="J2" end="1440" vehsPerHour="112.82162797083983"/>
  <flow id="JF86449" begin="1380" fromJunction="J0" toJunction="J4" end="1440" vehsPerHour="14.911099130565216"/>
  <flow id="JF86450" begin="1380" fromJunction="J3" toJunction="J2" end="1440" vehsPerHour="89.82051130655879"/>
  <flow id="JF86451" begin="1380" fromJunction="J3" toJunction="J4" end="1440" vehsPerHour="19.84699989027127"/>
  <flow id="JF86452" begin="1380" fromJunction="J2" toJunction="J4" end="1440" vehsPerHour="75.2158587049887"/>
  <flow id="JF86453" begin="1380" fromJunction="J4" toJunction="J2" end="1440" vehsPerHour="8.509031401431457"/>
  <flow id="JF86454" begin="1380" fromJunction="J2" toJunction="J0" end="1440" vehsPerHour="8.93714315210227"/>
  <flow id="JF86455" begin="1380" fromJunction="J2" toJunction="J3" end="1440" vehsPerHour="0.6107956855378767"/>
  <flow id="JF86456" begin="1380" fromJunction="J4" toJunction="J0" end="1440" vehsPerHour="17.01522941214258"/>
  <flow id="JF86457" begin="1380" fromJunction="J4" toJunction="J3" end="1440" vehsPerHour="84.14189882334801"/>
  <flow id="JF86458" begin="1440" fromJunction="J0" toJunction="J3" end="1500" vehsPerHour="35.43563194856159"/>
  <flow id="JF86459" begin="1440" fromJunction="J3" toJunction="J0" end="1500" vehsPerHour="298.16514500187793"/>
  <flow id="JF86460" begin="1440" fromJunction="J0" toJunction="J2" end="1500" vehsPerHour="53.23613765785966"/>
  <flow id="JF86461" begin="1440" fromJunction="J0" toJunction="J4" end="1500" vehsPerHour="85.67987774216898"/>
  <flow id="JF86462" begin="1440" fromJunction="J3" toJunction="J2" end="1500" vehsPerHour="124.84141592424612"/>
  <flow id="JF86463" begin="1440" fromJunction="J3" toJunction="J4" end="1500" vehsPerHour="44.46683050599321"/>
  <flow id="JF86464" begin="1440" fromJunction="J2" toJunction="J4" end="1500" vehsPerHour="8.201733541623469"/>
  <flow id="JF86465" begin="1440" fromJunction="J4" toJunction="J2" end="1500" vehsPerHour="81.44230685394798"/>
  <flow id="JF86466" begin="1440" fromJunction="J2" toJunction="J0" end="1500" vehsPerHour="85.49750199630897"/>
  <flow id="JF86467" begin="1440" fromJunction="J2" toJunction="J3" end="1500" vehsPerHour="104.91112719240026"/>
  <flow id="JF86468" begin="1440" fromJunction="J4" toJunction="J0" end="1500" vehsPerHour="14.582350513538513"/>
  <flow id="JF86469" begin="1440" fromJunction="J4" toJunction="J3" end="1500" vehsPerHour="84.53882001293016"/>
  <flow id="JF86470" begin="1500" fromJunction="J0" toJunction="J3" end="1560" vehsPerHour="195.73920644391976"/>
  <flow id="JF86471" begin="1500" fromJunction="J3" toJunction="J0" end="1560" vehsPerHour="218.9933469095025"/>
  <flow id="JF86472" begin="1500" fromJunction="J0" toJunction="J2" end="1560" vehsPerHour="81.9434141175186"/>
  <flow id="JF86473" begin="1500" fromJunction="J0" toJunction="J4" end="1560" vehsPerHour="91.582851752193"/>
  <flow id="JF86474" begin="1500" fromJunction="J3" toJunction="J2" end="1560" vehsPerHour="17.67447507294332"/>
  <flow id="JF86475" begin="1500" fromJunction="J3" toJunction="J4" end="1560" vehsPerHour="13.12374630297981"/>
  <flow id="JF86476" begin="1500" fromJunction="J2" toJunction="J4" end="1560" vehsPerHour="124.98808656717196"/>
  <flow id="JF86477" begin="1500" fromJunction="J4" toJunction="J2" end="1560" vehsPerHour="85.58813442953246"/>