<?xml version="1.0" encoding="UTF-8"?>
<routes xmlns:xsi="http://www.w3.org/2001/XMLSchema-instance" xsi:noNamespaceSchemaLocation="http://sumo.dlr.de/xsd/routes_file.xsd">
  <flow id="JF88792" begin="0" fromJunction="J0" toJunction="J3" end="60" vehsPerHour="193.38424561867345"/>
  <flow id="JF88793" begin="0" fromJunction="J3" toJunction="J0" end="60" vehsPerHour="103.79832810262016"/>
  <flow id="JF88794" begin="0" fromJunction="J0" toJunction="J2" end="60" vehsPerHour="69.31759071245348"/>
  <flow id="JF88795" begin="0" fromJunction="J0" toJunction="J4" end="60" vehsPerHour="115.77840893720231"/>
  <flow id="JF88796" begin="0" fromJunction="J3" toJunction="J2" end="60" vehsPerHour="4.836285958054776"/>
  <flow id="JF88797" begin="0" fromJunction="J3" toJunction="J4" end="60" vehsPerHour="89.28087089882989"/>
  <flow id="JF88798" begin="0" fromJunction="J2" toJunction="J4" end="60" vehsPerHour="49.150675425860406"/>
  <flow id="JF88799" begin="0" fromJunction="J4" toJunction="J2" end="60" vehsPerHour="121.04350172421175"/>
  <flow id="JF88800" begin="0" fromJunction="J2" toJunction="J0" end="60" vehsPerHour="126.3930028085646"/>
  <flow id="JF88801" begin="0" fromJunction="J2" toJunction="J3" end="60" vehsPerHour="53.05404276753897"/>
  <flow id="JF88802" begin="0" fromJunction="J4" toJunction="J0" end="60" vehsPerHour="109.70661525930734"/>
  <flow id="JF88803" begin="0" fromJunction="J4" toJunction="J3" end="60" vehsPerHour="13.149638727120996"/>
  <flow id="JF88804" begin="60" fromJunction="J0" toJunction="J3" end="120" vehsPerHour="41.934289717292764"/>
  <flow id="JF88805" begin="60" fromJunction="J3" toJunction="J0" end="120" vehsPerHour="179.5677128438107"/>
  <flow id="JF88806" begin="60" fromJunction="J0" toJunction="J2" end="120" vehsPerHour="37.63997842278586"/>
  <flow id="JF88807" begin="60" fromJunction="J0" toJunction="J4" end="120" vehsPerHour="65.47142638542385"/>
  <flow id="JF88808" begin="60" fromJunction="J3" toJunction="J2" end="120" vehsPerHour="21.729065166942053"/>
  <flow id="JF88809" begin="60" fromJunction="J3" toJunction="J4" end="120" vehsPerHour="18.34587192620106"/>
  <flow id="JF88810" begin="60" fromJunction="J2" toJunction="J4" end="120" vehsPerHour="76.01980643716236"/>
  <flow id="JF88811" begin="60" fromJunction="J4" toJunction="J2" end="120" vehsPerHour="28.680344053132597"/>
  <flow id="JF88812" begin="60" fromJunction="J2" toJunction="J0" end="120" vehsPerHour="126.60281374591605"/>
  <flow id="JF88813" begin="60" fromJunction="J2" toJunction="J3" end="120" vehsPerHour="22.526924893071456"/>
  <flow id="JF88814" begin="60" fromJunction="J4" toJunction="J0" end="120" vehsPerHour="46.91740378022147"/>
  <flow id="JF88815" begin="60" fromJunction="J4" toJunction="J3" end="120" vehsPerHour="75.06694479809958"/>
  <flow id="JF88816" begin="120" fromJunction="J0" toJunction="J3" end="180" vehsPerHour="476.1518072476004"/>
  <flow id="JF88817" begin="120" fromJunction="J3" toJunction="J0" end="180" vehsPerHour="78.17489382819623"/>
  <flow id="JF88818" begin="120" fromJunction="J0" toJunction="J2" end="180" vehsPerHour="95.54960747404864"/>
  <flow id="JF88819" begin="120" fromJunction="J0" toJunction="J4" end="180" vehsPerHour="53.56819455893318"/>
  <flow id="JF88820" begin="120" fromJunction="J3" toJunction="J2" end="180" vehsPerHour="135.23569938352034"/>
  <flow id="JF88821" begin="120" fromJunction="J3" toJunction="J4" end="180" vehsPerHour="121.43472325100667"/>
  <flow id="JF88822" begin="120" fromJunction="J2" toJunction="J4" end="180" vehsPerHour="103.11574316182234"/>
  <flow id="JF88823" begin="120" fromJunction="J4" toJunction="J2" end="180" vehsPerHour="118.9006792186898"/>
  <flow id="JF88824" begin="120" fromJunction="J2" toJunction="J0" end="180" vehsPerHour="64.65468178123406"/>
  <flow id="JF88825" begin="120" fromJunction="J2" toJunction="J3" end="180" vehsPerHour="63.54040996844974"/>
  <flow id="JF88826" begin="120" fromJunction="J4" toJunction="J0" end="180" vehsPerHour="9.953600443304891"/>
  <flow id="JF88827" begin="120" fromJunction="J4" toJunction="J3" end="180" vehsPerHour="69.59494269868006"/>
  <flow id="JF88828" begin="180" fromJunction="J0" toJunction="J3" end="240" vehsPerHour="281.2499747667553"/>
  <flow id="JF88829" begin="180" fromJunction="J3" toJunction="J0" end="240" vehsPerHour="19.37596059715502"/>
  <flow id="JF88830" begin="180" fromJunction="J0" toJunction="J2" end="240" vehsPerHour="50.384280126132715"/>
  <flow id="JF88831" begin="180" fromJunction="J0" toJunction="J4" end="240" vehsPerHour="64.19786792963043"/>
  <flow id="JF88832" begin="180" fromJunction="J3" toJunction="J2" end="240" vehsPerHour="61.94618534115552"/>
  <flow id="JF88833" begin="180" fromJunction="J3" toJunction="J4" end="240" vehsPerHour="73.10627725670237"/>
  <flow id="JF88834" begin="240" fromJunction="J0" toJunction="J3" end="300" vehsPerHour="393.6275521770964"/>
  <flow id="JF88835" begin="240" fromJunction="J3" toJunction="J0" end="300" vehsPerHour="0.335280233486944"/>
  <flow id="JF88836" begin="240" fromJunction="J0" toJunction="J2" end="300" vehsPerHour="66.4211846149541"/>
  <flow id="JF88837" begin="240" fromJunction="J0" toJunction="J4" end="300" vehsPerHour="46.10585155747172"/>
  <flow id="JF88838" begin="240" fromJunction="J3" toJunction="J2" end="300" vehsPerHour="82.7645919449168"/>
  <flow id="JF88839" begin="240" fromJunction="J3" toJunction="J4" end="300" vehsPerHour="62.01769373534426"/>
  <flow id="JF88840" begin="300" fromJunction="J0" toJunction="J3" end="360" vehsPerHour="516.9309182553202"/>
  <flow id="JF88841" begin="300" fromJunction="J3" toJunction="J0" end="360" vehsPerHour="159.78312799247658"/>
  <flow id="JF88842" begin="300" fromJunction="J0" toJunction="J2" end="360" vehsPerHour="121.22033347834784"/>
  <flow id="JF88843" begin="300" fromJunction="J0" toJunction="J4" end="360" vehsPerHour="126.71896998089633"/>
  <flow id="JF88844" begin="300" fromJunction="J3" toJunction="J2" end="360" vehsPerHour="59.73610255424678"/>
  <flow id="JF88845" begin="300" fromJunction="J3" toJunction="J4" end="360" vehsPerHour="6.777964829506177"/>
  <flow id="JF88846" begin="360" fromJunction="J0" toJunction="J3" end="420" vehsPerHour="274.0861944357693"/>
  <flow id="JF88847" begin="360" fromJunction="J3" toJunction="J0" end="420" vehsPerHour="5.1570655081891585"/>
  <flow id="JF88848" begin="360" fromJunction="J0" toJunction="J2" end="420" vehsPerHour="14.214674277649909"/>
  <flow id="JF88849" begin="360" fromJunction="J0" toJunction="J4" end="420" vehsPerHour="101.94761497479008"/>
  <flow id="JF88850" begin="360" fromJunction="J3" toJunction="J2" end="420" vehsPerHour="33.49439665566332"/>
  <flow id="JF88851" begin="360" fromJunction="J3" toJunction="J4" end="420" vehsPerHour="101.01033048101687"/>
  <flow id="JF88852" begin="360" fromJunction="J2" toJunction="J4" end="420" vehsPerHour="36.03569975694692"/>
  <flow id="JF88853" begin="360" fromJunction="J4" toJunction="J2" end="420" vehsPerHour="50.03752410413436"/>
  <flow id="JF88854" begin="360" fromJunction="J2" toJunction="J0" end="420" vehsPerHour="93.32539483084093"/>
  <flow id="JF88855" begin="360" fromJunction="J2" toJunction="J3" end="420" vehsPerHour="41.13513858773263"/>
  <flow id="JF88856" begin="360" fromJunction="J4" toJunction="J0" end="420" vehsPerHour="23.164867387503854"/>
  <flow id="JF88857" begin="360" fromJunction="J4" toJunction="J3" end="420" vehsPerHour="36.17221346765886"/>
  <flow id="JF88858" begin="420" fromJunction="J0" toJunction="J3" end="480" vehsPerHour="521.928947441099"/>
  <flow id="JF88859" begin="420" fromJunction="J3" toJunction="J0" end="480" vehsPerHour="413.1390816738786"/>
  <flow id="JF88860" begin="420" fromJunction="J0" toJunction="J2" end="480" vehsPerHour="121.21188491995564"/>
  <flow id="JF88861" begin="420" fromJunction="J0" toJunction="J4" end="480" vehsPerHour="114.77079291650335"/>
  <flow id="JF88862" begin="420" fromJunction="J3" toJunction="J2" end="480" vehsPerHour="109.80435968987054"/>
  <flow id="JF88863" begin="420" fromJunction="J3" toJunction="J4" end="480" vehsPerHour="73.83012893250658"/>
  <flow id="JF88864" begin="420" fromJunction="J2" toJunction="J4" end="480" vehsPerHour="4.212685237081734"/>
  <flow id="JF88865" begin="420" fromJunction="J4" toJunction="J2" end="480" vehsPerHour="75.41569447113113"/>
  <flow id="JF88866" begin="420" fromJunction="J2" toJunction="J0" end="480" vehsPerHour="67.20513471398101"/>
  <flow id="JF88867" begin="420" fromJunction="J2" toJunction="J3" end="480" vehsPerHour="101.21841273553129"/>
  <flow id="JF88868" begin="420" fromJunction="J4" toJunction="J0" end="480" vehsPerHour="80.44182297182635"/>
  <flow id="JF88869" begin="420" fromJunction="J4" toJunction="J3" end="480" vehsPerHour="24.952394535715143"/>
  <flow id="JF88870" begin="480" fromJunction="J0" toJunction="J3" end="540" vehsPerHour="431.69352264702246"/>
  <flow id="JF88871" begin="480" fromJunction="J3" toJunction="J0" end="540" vehsPerHour="544.7041959403241"/>
  <flow id="JF88872" begin="480" fromJunction="J0" toJunction="J2" end="540" vehsPerHour="5.102383289139181"/>
  <flow id="JF88873" begin="480" fromJunction="J0" toJunction="J4" end="540" vehsPerHour="16.181108806448883"/>
  <flow id="JF88874" begin="480" fromJunction="J3" toJunction="J2" end="540" vehsPerHour="67.52653696088281"/>
  <flow id="JF88875" begin="480" fromJunction="J3" toJunction="J4" end="540" vehsPerHour="102.8864158975187"/>
  <flow id="JF88876" begin="480" fromJunction="J2" toJunction="J4" end="540" vehsPerHour="53.54425120587956"/>
  <flow id="JF88877" begin="480" fromJunction="J4" toJunction="J2" end="540" vehsPerHour="8.787638258680948"/>
  <flow id="JF88878" begin="480" fromJunction="J2" toJunction="J0" end="540" vehsPerHour="6.213379335694629"/>
  <flow id="JF88879" begin="480" fromJunction="J2" toJunction="J3" end="540" vehsPerHour="72.70687634256657"/>
  <flow id="JF88880" begin="480" fromJunction="J4" toJunction="J0" end="540" vehsPerHour="62.29998984411161"/>
  <flow id="JF88881" begin="480" fromJunction="J4" toJunction="J3" end="540" vehsPerHour="93.25622307692298"/>
  <flow id="JF88882" begin="540" fromJunction="J0" toJunction="J3" end="600" vehsPerHour="104.0458898938123"/>
  <flow id="JF88883" begin="540" fromJunction="J3" toJunction="J0" end="600" vehsPerHour="374.3403467472536"/>
  <flow id="JF88884" begin="540" fromJunction="J0" toJunction="J2" end="600" vehsPerHour="17.975739167412772"/>
  <flow id="JF88885" begin="540" fromJunction="J0" toJunction="J4" end="600" vehsPerHour="104.42545791038728"/>
  <flow id="JF88886" begin="540" fromJunction="J3" toJunction="J2" end="600" vehsPerHour="115.01209894336316"/>
  <flow id="JF88887" begin="540" fromJunction="J3" toJunction="J4" end="600" vehsPerHour="9.59823609303329"/>
  <flow id="JF88888" begin="540" fromJunction="J2" toJunction="J4" end="600" vehsPerHour="108.70366611252204"/>
  <flow id="JF88889" begin="540" fromJunction="J4" toJunction="J2" end="600" vehsPerHour="102.37555033430155"/>
  <flow id="JF88890" begin="540" fromJunction="J2" toJunction="J0" end="600" vehsPerHour="85.62721719273692"/>
  <flow id="JF88891" begin="540" fromJunction="J2" toJunction="J3" end="600" vehsPerHour="17.023727256781328"/>
  <flow id="JF88892" begin="540" fromJunction="J4" toJunction="J0" end="600" vehsPerHour="29.065595795316522"/>
  <flow id="JF88893" begin="540" fromJunction="J4" toJunction="J3" end="600" vehsPerHour="54.32700629500575"/>
  <flow id="JF88894" begin="600" fromJunction="J0" toJunction="J3" end="660" vehsPerHour="293.77311253713225"/>
  <flow id="JF88895" begin="600" fromJunction="J3" toJunction="J0" end="660" vehsPerHour="462.72558580077424"/>
  <flow id="JF88896" begin="600" fromJunction="J0" toJunction="J2" end="660" vehsPerHour="25.067587810511064"/>
  <flow id="JF88897" begin="600" fromJunction="J0" toJunction="J4" end="660" vehsPerHour="18.34855513740404"/>
  <flow id="JF88898" begin="600" fromJunction="J3" toJunction="J2" end="660" vehsPerHour="92.36464674614747"/>
  <flow id="JF88899" begin="600" fromJunction="J3" toJunction="J4" end="660" vehsPerHour="125.17831931034853"/>
  <flow id="JF88900" begin="600" fromJunction="J2" toJunction="J4" end="660" vehsPerHour="80.12938540124027"/>
  <flow id="JF88901" begin="600" fromJunction="J4" toJunction="J2" end="660" vehsPerHour="4.638928368632133"/>
  <flow id="JF88902" begin="600" fromJunction="J2" toJunction="J0" end="660" vehsPerHour="103.34645196167743"/>
  <flow id="JF88903" begin="600" fromJunction="J2" toJunction="J3" end="660" vehsPerHour="136.28761869255675"/>
  <flow id="JF88904" begin="600" fromJunction="J4" toJunction="J0" end="660" vehsPerHour="111.34610637805913"/>
  <flow id="JF88905" begin="600" fromJunction="J4" toJunction="J3" end="660" vehsPerHour="98.2749942250657"/>
  <flow id="JF88906" begin="660" fromJunction="J0" toJunction="J3" end="720" vehsPerHour="88.94728674823601"/>
  <flow id="JF88907" begin="660" fromJunction="J3" toJunction="J0" end="720" vehsPerHour="273.80025460565577"/>
  <flow id="JF88908" begin="660" fromJunction="J0" toJunction="J2" end="720" vehsPerHour="81.0709336025328"/>
  <flow id="JF88909" begin="660" fromJunction="J0" toJunction="J4" end="720" vehsPerHour="11.404311074915114"/>
  <flow id="JF88910" begin="660" fromJunction="J3" toJunction="J2" end="720" vehsPerHour="111.42856958929141"/>
  <flow id="JF88911" begin="660" fromJunction="J3" toJunction="J4" end="720" vehsPerHour="83.57448344041686"/>
  <flow id="JF88912" begin="660" fromJunction="J2" toJunction="J4" end="720" vehsPerHour="63.6971653587107"/>
  <flow id="JF88913" begin="660" fromJunction="J4" toJunction="J2" end="720" vehsPerHour="124.00461219478616"/>
  <flow id="JF88914" begin="660" fromJunction="J2" toJunction="J0" end="720" vehsPerHour="107.33484646665651"/>
  <flow id="JF88915" begin="660" fromJunction="J2" toJunction="J3" end="720" vehsPerHour="49.48120259062148"/>
  <flow id="JF88916" begin="660" fromJunction="J4" toJunction="J0" end="720" vehsPerHour="39.47885767229139"/>
  <flow id="JF88917" begin="660" fromJunction="J4" toJunction="J3" end="720" vehsPerHour="121.40887499048873"/>
  <flow id="JF88918" begin="720" fromJunction="J0" toJunction="J3" end="780" vehsPerHour="266.0539354266027"/>
  <flow id="JF88919" begin="720" fromJunction="J3" toJunction="J0" end="780" vehsPerHour="182.71310117281703"/>
  <flow id="JF88920" begin="720" fromJunction="J0" toJunction="J2" end="780" vehsPerHour="119.73261569614793"/>
  <flow id="JF88921" begin="720" fromJunction="J0" toJunction="J4" end="780" vehsPerHour="126.31886085454856"/>
  <flow id="JF88922" begin="720" fromJunction="J3" toJunction="J2" end="780" vehsPerHour="97.03235849553373"/>
  <flow id="JF88923" begin="720" fromJunction="J3" toJunction="J4" end="780" vehsPerHour="133.19052280231196"/>
  <flow id="JF88924" begin="720" fromJunction="J2" toJunction="J4" end="780" vehsPerHour="134.0416492363105"/>
  <flow id="JF88925" begin="720" fromJunction="J4" toJunction="J2" end="780" vehsPerHour="83.39472371319941"/>
  <flow id="JF88926" begin="720" fromJunction="J2" toJunction="J0" end="780" vehsPerHour="65.8853695332191"/>
  <flow id="JF88927" begin="720" fromJunction="J2" toJunction="J3" end="780" vehsPerHour="95.45356455235931"/>
  <flow id="JF88928" begin="720" fromJunction="J4" toJunction="J0" end="780" vehsPerHour="17.72973726470776"/>
  <flow id="JF88929" begin="720" fromJunction="J4" toJunction="J3" end="780" vehsPerHour="132.4024588266219"/>
  <flow id="JF88930" begin="780" fromJunction="J0" toJunction="J3" end="840" vehsPerHour="44.84133940849484"/>
  <flow id="JF88931" begin="780" fromJunction="J3" toJunction="J0" end="840" vehsPerHour="405.86888737733113"/>
  <flow id="JF88932" begin="780" fromJunction="J0" toJunction="J2" end="840" vehsPerHour="74.7887649394901"/>
  <flow id="JF88933" begin="780" fromJunction="J0" toJunction="J4" end="840" vehsPerHour="53.71191246005814"/>
  <flow id="JF88934" begin="780" fromJunction="J3" toJunction="J2" end="840" vehsPerHour="22.367965103618296"/>
  <flow id="JF88935" begin="780" fromJunction="J3" toJunction="J4" end="840" vehsPerHour="33.776540096314065"/>
  <flow id="JF88936" begin="780" fromJunction="J2" toJunction="J4" end="840" vehsPerHour="37.55471434459218"/>
  <flow id="JF88937" begin="780" fromJunction="J4" toJunction="J2" end="840" vehsPerHour="7.380923652697394"/>
  <flow id="JF88938" begin="780" fromJunction="J2" toJunction="J0" end="840" vehsPerHour="26.363337880138634"/>
  <flow id="JF88939" begin="780" fromJunction="J2" toJunction="J3" end="840" vehsPerHour="22.156285149014384"/>
  <flow id="JF88940" begin="780" fromJunction="J4" toJunction="J0" end="840" vehsPerHour="95.10535573128223"/>
  <flow id="JF88941" begin="780" fromJunction="J4" toJunction="J3" end="840" vehsPerHour="114.6726396875457"/>
  <flow id="JF88942" begin="840" fromJunction="J0" toJunction="J3" end="900" vehsPerHour="186.87392503872417"/>
  <flow id="JF88943" begin="840" fromJunction="J3" toJunction="J0" end="900" vehsPerHour="337.9029267631626"/>
  <flow id="JF88944" begin="840" fromJunction="J0" toJunction="J2" end="900" vehsPerHour="56.3365958735524"/>
  <flow id="JF88945" begin="840" fromJunction="J0" toJunction="J4" end="900" vehsPerHour="20.586980919557462"/>
  <flow id="JF88946" begin="840" fromJunction="J3" toJunction="J2" end="900" vehsPerHour="136.1433254628873"/>
  <flow id="JF88947" begin="840" fromJunction="J3" toJunction="J4" end="900" vehsPerHour="108.62043257679191"/>
  <flow id="JF88948" begin="900" fromJunction="J0" toJunction="J3" end="960" vehsPerHour="548.1014184222096"/>
  <flow id="JF88949" begin="900" fromJunction="J3" toJunction="J0" end="960" vehsPerHour="363.16936323408197"/>
  <flow id="JF88950" begin="900" fromJunction="J0" toJunction="J2" end="960" vehsPerHour="39.958874550957646"/>
  <flow id="JF88951" begin="900" fromJunction="J0" toJunction="J4" end="960" vehsPerHour="95.26371033448329"/>
  <flow id="JF88952" begin="900" fromJunction="J3" toJunction="J2" end="960" vehsPerHour="129.6965144972265"/>
  <flow id="JF88953" begin="900" fromJunction="J3" toJunction="J4" end="960" vehsPerHour="127.98319952339861"/>
  <flow id="JF88954" begin="900" fromJunction="J2" toJunction="J4" end="960" vehsPerHour="2.223372790382183"/>
  <flow id="JF88955" begin="900" fromJunction="J4" toJunction="J2" end="960" vehsPerHour="122.3126768241891"/>
  <flow id="JF88956" begin="900" fromJunction="J2" toJunction="J0" end="960" vehsPerHour="31.899916445677075"/>
  <flow id="JF88957" begin="900" fromJunction="J2" toJunction="J3" end="960" vehsPerHour="66.49093314944659"/>
  <flow id="JF88958" begin="900" fromJunction="J4" toJunction="J0" end="960" vehsPerHour="36.62045785262755"/>
  <flow id="JF88959" begin="900" fromJunction="J4" toJunction="J3" end="960" vehsPerHour="80.49844432130998"/>
  <flow id="JF88960" begin="960" fromJunction="J0" toJunction="J3" end="1020" vehsPerHour="166.50741243126407"/>
  <flow id="JF88961" begin="960" fromJunction="J3" toJunction="J0" end="1020" vehsPerHour="44.750707864417144"/>
  <flow id="JF88962" begin="960" fromJunction="J0" toJunction="J2" end="1020" vehsPerHour="107.81420395080528"/>
  <flow id="JF88963" begin="960" fromJunction="J0" toJunction="J4" end="1020" vehsPerHour="104.05450010446856"/>
  <flow id="JF88964" begin="960" fromJunction="J3" toJunction="J2" end="1020" vehsPerHour="22.25458781847758"/>
  <flow id="JF88965" begin="960" fromJunction="J3" toJunction="J4" end="1020" vehsPerHour="133.52242717698726"/>
  <flow id="JF88966" begin="1020" fromJunction="J0" toJunction="J3" end="1080" vehsPerHour="397.2192830234803"/>
  <flow id="JF88967" begin="1020" fromJunction="J3" toJunction="J0" end="1080" vehsPerHour="97.55077694523827"/>
  <flow id="JF88968" begin="1020" fromJunction="J0" toJunction="J2" end="1080" vehsPerHour="28.320846129411454"/>
  <flow id="JF88969" begin="1020" fromJunction="J0" toJunction="J4" end="1080" vehsPerHour="3.876267221241528"/>
  <flow id="JF88970" begin="1020" fromJunction="J3" toJunction="J2" end="1080" vehsPerHour="90.42260015123982"/>
  <flow id="JF88971" begin="1020" fromJunction="J3" toJunction="J4" end="1080" vehsPerHour="38.670174923535015"/>
  <flow id="JF88972" begin="1020" fromJunction="J2" toJunction="J4" end="1080" vehsPerHour="7.472500660499535"/>
  <flow id="JF88973" begin="1020" fromJunction="J4" toJunction="J2" end="1080" vehsPerHour="106.20908655442793"/>
  <flow id="JF88974" begin="1020" fromJunction="J2" toJunction="J0" end="1080" vehsPerHour="72.59399891455108"/>
  <flow id="JF88975" begin="1020" fromJunction="J2" toJunction="J3" end="1080" vehsPerHour="67.76673049323142"/>
  <flow id="JF88976" begin="1020" fromJunction="J4" toJunction="J0" end="1080" vehsPerHour="95.6116143349439"/>
  <flow id="JF88977" begin="1020" fromJunction="J4" toJunction="J3" end="1080" vehsPerHour="9.73301192097145"/>
  <flow id="JF88978" begin="1080" fromJunction="J0" toJunction="J3" end="1140" vehsPerHour="82.51807171317598"/>
  <flow id="JF88979" begin="1080" fromJunction="J3" toJunction="J0" end="1140" vehsPerHour="29.71893255267652"/>
  <flow id="JF88980" begin="1080" fromJunction="J0" toJunction="J2" end="1140" vehsPerHour="0.03192679650925454"/>
  <flow id="JF88981" begin="1080" fromJunction="J0" toJunction="J4" end="1140" vehsPerHour="130.01706880440756"/>
  <flow id="JF88982" begin="1080" fromJunction="J3" toJunction="J2" end="1140" vehsPerHour="73.4446271908657"/>
  <flow id="JF88983" begin="1080" fromJunction="J3" toJunction="J4" end="1140" vehsPerHour="63.32130851932614"/>
  <flow id="JF88984" begin="1140" fromJunction="J0" toJunction="J3" end="1200" vehsPerHour="365.16461864452856"/>
  <flow id="JF88985" begin="1140" fromJunction="J3" toJunction="J0" end="1200" vehsPerHour="400.96890710878006"/>
  <flow id="JF88986" begin="1140" fromJunction="J0" toJunction="J2" end="1200" vehsPerHour="126.65917035920079"/>
  <flow id="JF88987" begin="1140" fromJunction="J0" toJunction="J4" end="1200" vehsPerHour="22.31908606126866"/>
  <flow id="JF88988" begin="1140" fromJunction="J3" toJunction="J2" end="1200" vehsPerHour="39.40537915370297"/>
  <flow id="JF88989" begin="1140" fromJunction="J3" toJunction="J4" end="1200" vehsPerHour="57.02530817210724"/>
  <flow id="JF88990" begin="1140" fromJunction="J2" toJunction="J4" end="1200" vehsPerHour="16.431551219971094"/>
  <flow id="JF88991" begin="1140" fromJunction="J4" toJunction="J2" end="1200" vehsPerHour="135.5011084212782"/>
  <flow id="JF88992" begin="1140" fromJunction="J2" toJunction="J0" end="1200" vehsPerHour="49.51539328312459"/>
  <flow id="JF88993" begin="1140" fromJunction="J2" toJunction="J3" end="1200" vehsPerHour="0.5897495992096734"/>
  <flow id="JF88994" begin="1140" fromJunction="J4" toJunction="J0" end="1200" vehsPerHour="35.61937826098681"/>
  <flow id="JF88995" begin="1140" fromJunction="J4" toJunction="J3" end="1200" vehsPerHour="3.791850517170593"/>
  <flow id="JF88996" begin="1200" fromJunction="J0" toJunction="J3" end="1260" vehsPerHour="383.7058553187227"/>
  <flow id="JF88997" begin="1200" fromJunction="J3" toJunction="J0" end="1260" vehsPerHour="72.05200045778044"/>
  <flow id="JF88998" begin="1200" fromJunction="J0" toJunction="J2" end="1260" vehsPerHour="18.71105032162143"/>
  <flow id="JF88999" begin="1200" fromJunction="J0" toJunction="J4" end="1260" vehsPerHour="122.77327323119835"/>
  <flow id="JF89000" begin="1200" fromJunction="J3" toJunction="J2" end="1260" vehsPerHour="12.901186787932748"/>
  <flow id="JF89001" begin="1200" fromJunction="J3" toJunction="J4" end="1260" vehsPerHour="103.62975873446092"/>
  <flow id="JF89002" begin="1200" fromJunction="J2" toJunction="J4" end="1260" vehsPerHour="119.18007823323839"/>
  <flow id="JF89003" begin="1200" fromJunction="J4" toJunction="J2" end="1260" vehsPerHour="2.2706196064475597"/>
  <flow id="JF89004" begin="1200" fromJunction="J2" toJunction="J0" end="1260" vehsPerHour="59.90564707149876"/>
  <flow id="JF89005" begin="1200" fromJunction="J2" toJunction="J3" end="1260" vehsPerHour="26.844151279580274"/>
  <flow id="JF89006" begin="1200" fromJunction="J4" toJunction="J0" end="1260" vehsPerHour="81.59042086169487"/>
  <flow id="JF89007" begin="1200" fromJunction="J4" toJunction="J3" end="1260" vehsPerHour="39.65462081341427"/>
  <flow id="JF89008" begin="1260" fromJunction="J0" toJunction="J3" end="1320" vehsPerHour="45.56739813046177"/>
  <flow id="JF89009" begin="1260" fromJunction="J3" toJunction="J0" end="1320" vehsPerHour="62.96211069477742"/>
  <flow id="JF89010" begin="1260" fromJunction="J0" toJunction="J2" end="1320" vehsPerHour="123.46296200211543"/>
  <flow id="JF89011" begin="1260" fromJunction="J0" toJunction="J4" end="1320" vehsPerHour="19.28960515154103"/>
  <flow id="JF89012" begin="1260" fromJunction="J3" toJunction="J2" end="1320" vehsPerHour="107.57761548416781"/>
  <flow id="JF89013" begin="1260" fromJunction="J3" toJunction="J4" end="1320" vehsPerHour="16.042047525034302"/>
  <flow id="JF89014" begin="1260" fromJunction="J2" toJunction="J4" end="1320" vehsPerHour="130.12933635891468"/>
  <flow id="JF89015" begin="1260" fromJunction="J4" toJunction="J2" end="1320" vehsPerHour="65.65411534451921"/>
  <flow id="JF89016" begin="1260" fromJunction="J2" toJunction="J0" end="1320" vehsPerHour="20.398754973970448"/>
  <flow id="JF89017" begin="1260" fromJunction="J2" toJunction="J3" end="1320" vehsPerHour="59.54791430809502"/>
  <flow id="JF89018" begin="1260" fromJunction="J4" toJunction="J0" end="1320" vehsPerHour="66.91085921142489"/>
  <flow id="JF89019" begin="1260" fromJunction="J4" toJunction="J3" end="1320" vehsPerHour="24.455830520633267"/>
  <flow id="JF89020" begin="1320" fromJunction="J0" toJunction="J3" end="1380" vehsPerHour="285.61810049000746"/>
  <flow id="JF89021" begin="1320" fromJunction="J3" toJunction="J0" end="1380" vehsPerHour="108.814078427547"/>
  <flow id="JF89022" begin="1320" fromJunction="J0" toJunction="J2" end="1380" vehsPerHour="74.57700018151975"/>
  <flow id="JF89023" begin="1320" fromJunction="J0" toJunction="J4" end="1380" vehsPerHour="26.994788011477258"/>
  <flow id="JF89024" begin="1320" fromJunction="J3" toJunction="J2" end="1380" vehsPerHour="102.15016297871448"/>
  <flow id="JF89025" begin="1320" fromJunction="J3" toJunction="J4" end="1380" vehsPerHour="19.923625675326527"/>
  <flow id="JF89026" begin="1320" fromJunction="J2" toJunction="J4" end="1380" vehsPerHour="26.835612050022437"/>
  <flow id="JF89027" begin="1320" fromJunction="J4" toJunction="J2" end="1380" vehsPerHour="49.65914132246125"/>
  <flow id="JF89028" begin="1320" fromJunction="J2" toJunction="J0" end="1380" vehsPerHour="42.94570484079312"/>
  <flow id="JF89029" begin="1320" fromJunction="J2" toJunction="J3" end="1380" vehsPerHour="129.41348895267149"/>
  <flow id="JF89030" begin="1320" fromJunction="J4" toJunction="J0" end="1380" vehsPerHour="75.76350412804751"/>
  <flow id="JF89031" begin="1320" fromJunction="J4" toJunction="J3" end="1380" vehsPerHour="118.36596688531905"/>
  <flow id="JF89032" begin="1380" fromJunction="J0" toJunction="J3" end="1440" vehsPerHour="189.54364251593483"/>
  <flow id="JF89033" begin="1380" fromJunction="J3" toJunction="J0" end="1440" vehsPerHour="527.9811756553469"/>
  <flow id="JF89034" begin="1380" fromJunction="J0" toJunction="J2" end="1440" vehsPerHour="22.937487150283797"/>
  <flow id="JF89035" begin="1380" fromJunction="J0" toJunction="J4" end="1440" vehsPerHour="25.213581784368582"/>
  <flow id="JF89036" begin="1380" fromJunction="J3" toJunction="J2" end="1440" vehsPerHour="67.63963217991011"/>
  <flow id="JF89037" begin="1380" fromJunction="J3" toJunction="J4" end="1440" vehsPerHour="30.08592497656684"/>
  <flow id="JF89038" begin="1440" fromJunction="J0" toJunction="J3" end="1500" vehsPerHour="372.92299796806265"/>
  <flow id="JF89039" begin="1440" fromJunction="J3" toJunction="J0" end="1500" vehsPerHour="306.7061013296838"/>
  <flow id="JF89040" begin="1440" fromJunction="J0" toJunction="J2" end="1500" vehsPerHour="28.00802321564557"/>
  <flow id="JF89041" begin="1440" fromJunction="J0" toJunction="J4" end="1500" vehsPerHour="76.87301643396376"/>
  <flow id="JF89042" begin="1440" fromJunction="J3" toJunction="J2" end="1500" vehsPerHour="13.489184591997702"/>
  <flow id="JF89043" begin="1440" fromJunction="J3" toJunction="J4" end="1500" vehsPerHour="129.14169868023254"/>
  <flow id="JF89044" begin="1440" fromJunction="J2" toJunction="J4" end="1500" vehsPerHour="110.79082804452885"/>
  <flow id="JF89045" begin="1440" fromJunction="J4" toJunction="J2" end="1500" vehsPerHour="78.09083781589717"/>
  <flow id="JF89046" begin="1440" fromJunction="J2" toJunction="J0" end="1500" vehsPerHour="111.19859310586571"/>
  <flow id="JF89047" begin="1440" fromJunction="J2" toJunction="J3" end="1500" vehsPerHour="30.659677748681965"/>
  <flow id="JF89048" begin="1440" fromJunction="J4" toJunction="J0" end="1500" vehsPerHour="99.58700241077301"/>
  <flow id="JF89049" begin="1440" fromJunction="J4" toJunction="J3" end="1500" vehsPerHour="95.70761825852367"/>
  <flow id="JF89050" begin="1500" fromJunction="J0" toJunction="J3" end="1560" vehsPerHour="73.38209696247726"/>
  <flow id="JF89051" begin="1500" fromJunction="J3" toJunction="J0" end="1560" vehsPerHour="63.240052877884544"/>
  <flow id="JF89052" begin="1500" fromJunction="J0" toJunction="J2" end="1560" vehsPerHour="72.26936311296205"/>
  <flow id="JF89053" begin="1500" fromJunction="J0" toJunction="J4" end="1560" vehsPerHour="9.811829907191866"/>
  <flow id="JF89054" begin="1500" fromJunction="J3" toJunction="J2" end="1560" vehsPerHour="48.72546357851102"/>
  <flow id="JF89055" begin="1500" fromJunction="J3" toJunction="J4" end="1560" vehsPerHour="76.81001025363508"/>
  <flow id="JF89056" begin="1560" fromJunction="J0" toJunction="J3" end="1620" vehsPerHour="420.598119629197"/>
  <flow id="JF89057" begin="1560" fromJunction="J3" toJunction="J0" end="1620" vehsPerHour="334.54996555809805"/>