<?xml version="1.0" encoding="UTF-8"?>
<routes xmlns:xsi="http://www.w3.org/2001/XMLSchema-instance" xsi:noNamespaceSchemaLocation="http://sumo.dlr.de/xsd/routes_file.xsd">
  <flow id="JF91354" begin="0" fromJunction="J0" toJunction="J3" end="60" vehsPerHour="61.27902290797281"/>
  <flow id="JF91355" begin="0" fromJunction="J3" toJunction="J0" end="60" vehsPerHour="159.39978594509185"/>
  <flow id="JF91356" begin="0" fromJunction="J0" toJunction="J2" end="60" vehsPerHour="28.931188019746493"/>
  <flow id="JF91357" begin="0" fromJunction="J0" toJunction="J4" end="60" vehsPerHour="97.7122896888258"/>
  <flow id="JF91358" begin="0" fromJunction="J3" toJunction="J2" end="60" vehsPerHour="129.86151040562663"/>
  <flow id="JF91359" begin="0" fromJunction="J3" toJunction="J4" end="60" vehsPerHour="132.61512480595113"/>
  <flow id="JF91360" begin="0" fromJunction="J2" toJunction="J4" end="60" vehsPerHour="72.86172473710123"/>
  <flow id="JF91361" begin="0" fromJunction="J4" toJunction="J2" end="60" vehsPerHour="87.63886001843164"/>
  <flow id="JF91362" begin="0" fromJunction="J2" toJunction="J0" end="60" vehsPerHour="34.272643618830905"/>
  <flow id="JF91363" begin="0" fromJunction="J2" toJunction="J3" end="60" vehsPerHour="62.12410911473747"/>
  <flow id="JF91364" begin="0" fromJunction="J4" toJunction="J0" end="60" vehsPerHour="59.18816085394495"/>
  <flow id="JF91365" begin="0" fromJunction="J4" toJunction="J3" end="60" vehsPerHour="33.759998979613485"/>
  <flow id="JF91366" begin="60" fromJunction="J0" toJunction="J3" end="120" vehsPerHour="310.6104548954711"/>
  <flow id="JF91367" begin="60" fromJunction="J3" toJunction="J0" end="120" vehsPerHour="406.7435899076981"/>
  <flow id="JF91368" begin="60" fromJunction="J0" toJunction="J2" end="120" vehsPerHour="50.01436160556984"/>
  <flow id="JF91369" begin="60" fromJunction="J0" toJunction="J4" end="120" vehsPerHour="58.912661175955606"/>
  <flow id="JF91370" begin="60" fromJunction="J3" toJunction="J2" end="120" vehsPerHour="90.12007083216274"/>
  <flow id="JF91371" begin="60" fromJunction="J3" toJunction="J4" end="120" vehsPerHour="80.07430671594403"/>
  <flow id="JF91372" begin="120" fromJunction="J0" toJunction="J3" end="180" vehsPerHour="150.28262121426238"/>
  <flow id="JF91373" begin="120" fromJunction="J3" toJunction="J0" end="180" vehsPerHour="435.1019265108579"/>
  <flow id="JF91374" begin="120" fromJunction="J0" toJunction="J2" end="180" vehsPerHour="41.42644952028969"/>
  <flow id="JF91375" begin="120" fromJunction="J0" toJunction="J4" end="180" vehsPerHour="132.6499365303844"/>
  <flow id="JF91376" begin="120" fromJunction="J3" toJunction="J2" end="180" vehsPerHour="59.70369164030996"/>
  <flow id="JF91377" begin="120" fromJunction="J3" toJunction="J4" end="180" vehsPerHour="31.864959741880845"/>
  <flow id="JF91378" begin="120" fromJunction="J2" toJunction="J4" end="180" vehsPerHour="22.21404636011933"/>
  <flow id="JF91379" begin="120" fromJunction="J4" toJunction="J2" end="180" vehsPerHour="111.78413740428145"/>
  <flow id="JF91380" begin="120" fromJunction="J2" toJunction="J0" end="180" vehsPerHour="70.55889571154685"/>
  <flow id="JF91381" begin="120" fromJunction="J2" toJunction="J3" end="180" vehsPerHour="89.88778704329245"/>
  <flow id="JF91382" begin="120" fromJunction="J4" toJunction="J0" end="180" vehsPerHour="15.953821117195744"/>
  <flow id="JF91383" begin="120" fromJunction="J4" toJunction="J3" end="180" vehsPerHour="66.49362603803789"/>
  <flow id="JF91384" begin="180" fromJunction="J0" toJunction="J3" end="240" vehsPerHour="252.25862896356833"/>
  <flow id="JF91385" begin="180" fromJunction="J3" toJunction="J0" end="240" vehsPerHour="137.2428786887201"/>
  <flow id="JF91386" begin="180" fromJunction="J0" toJunction="J2" end="240" vehsPerHour="64.78452120292523"/>
  <flow id="JF91387" begin="180" fromJunction="J0" toJunction="J4" end="240" vehsPerHour="58.8593361731457"/>
  <flow id="JF91388" begin="180" fromJunction="J3" toJunction="J2" end="240" vehsPerHour="12.52593787229314"/>
  <flow id="JF91389" begin="180" fromJunction="J3" toJunction="J4" end="240" vehsPerHour="19.59114174150359"/>
  <flow id="JF91390" begin="240" fromJunction="J0" toJunction="J3" end="300" vehsPerHour="402.1301431929361"/>
  <flow id="JF91391" begin="240" fromJunction="J3" toJunction="J0" end="300" vehsPerHour="422.55539883273946"/>
  <flow id="JF91392" begin="240" fromJunction="J0" toJunction="J2" end="300" vehsPerHour="26.67304050494283"/>
  <flow id="JF91393" begin="240" fromJunction="J0" toJunction="J4" end="300" vehsPerHour="100.79370128870026"/>
  <flow id="JF91394" begin="240" fromJunction="J3" toJunction="J2" end="300" vehsPerHour="114.41615766121136"/>
  <flow id="JF91395" begin="240" fromJunction="J3" toJunction="J4" end="300" vehsPerHour="47.5972581008676"/>
  <flow id="JF91396" begin="240" fromJunction="J2" toJunction="J4" end="300" vehsPerHour="76.79756110010574"/>
  <flow id="JF91397" begin="240" fromJunction="J4" toJunction="J2" end="300" vehsPerHour="46.26322192865205"/>
  <flow id="JF91398" begin="240" fromJunction="J2" toJunction="J0" end="300" vehsPerHour="85.91684884250122"/>
  <flow id="JF91399" begin="240" fromJunction="J2" toJunction="J3" end="300" vehsPerHour="91.27298011847147"/>
  <flow id="JF91400" begin="240" fromJunction="J4" toJunction="J0" end="300" vehsPerHour="97.96536045312405"/>
  <flow id="JF91401" begin="240" fromJunction="J4" toJunction="J3" end="300" vehsPerHour="15.683024972860713"/>
  <flow id="JF91402" begin="300" fromJunction="J0" toJunction="J3" end="360" vehsPerHour="303.668509341379"/>
  <flow id="JF91403" begin="300" fromJunction="J3" toJunction="J0" end="360" vehsPerHour="398.07887977994045"/>
  <flow id="JF91404" begin="300" fromJunction="J0" toJunction="J2" end="360" vehsPerHour="18.411397026138587"/>
  <flow id="JF91405" begin="300" fromJunction="J0" toJunction="J4" end="360" vehsPerHour="22.479510015850664"/>
  <flow id="JF91406" begin="300" fromJunction="J3" toJunction="J2" end="360" vehsPerHour="104.5035901871796"/>
  <flow id="JF91407" begin="300" fromJunction="J3" toJunction="J4" end="360" vehsPerHour="76.65550707778242"/>
  <flow id="JF91408" begin="300" fromJunction="J2" toJunction="J4" end="360" vehsPerHour="109.77908122902708"/>
  <flow id="JF91409" begin="300" fromJunction="J4" toJunction="J2" end="360" vehsPerHour="81.61175643661507"/>
  <flow id="JF91410" begin="300" fromJunction="J2" toJunction="J0" end="360" vehsPerHour="88.87342289158948"/>
  <flow id="JF91411" begin="300" fromJunction="J2" toJunction="J3" end="360" vehsPerHour="17.896896386713788"/>
  <flow id="JF91412" begin="300" fromJunction="J4" toJunction="J0" end="360" vehsPerHour="24.36992102591668"/>
  <flow id="JF91413" begin="300" fromJunction="J4" toJunction="J3" end="360" vehsPerHour="46.81555538784917"/>
  <flow id="JF91414" begin="360" fromJunction="J0" toJunction="J3" end="420" vehsPerHour="27.883226989484143"/>
  <flow id="JF91415" begin="360" fromJunction="J3" toJunction="J0" end="420" vehsPerHour="17.39420765346542"/>
  <flow id="JF91416" begin="360" fromJunction="J0" toJunction="J2" end="420" vehsPerHour="43.06210429225344"/>
  <flow id="JF91417" begin="360" fromJunction="J0" toJunction="J4" end="420" vehsPerHour="116.15682722353534"/>
  <flow id="JF91418" begin="360" fromJunction="J3" toJunction="J2" end="420" vehsPerHour="85.71422211470745"/>
  <flow id="JF91419" begin="360" fromJunction="J3" toJunction="J4" end="420" vehsPerHour="98.81452450968297"/>
  <flow id="JF91420" begin="360" fromJunction="J2" toJunction="J4" end="420" vehsPerHour="71.24912886627683"/>
  <flow id="JF91421" begin="360" fromJunction="J4" toJunction="J2" end="420" vehsPerHour="84.00203143527351"/>
  <flow id="JF91422" begin="360" fromJunction="J2" toJunction="J0" end="420" vehsPerHour="128.26297091634405"/>
  <flow id="JF91423" begin="360" fromJunction="J2" toJunction="J3" end="420" vehsPerHour="88.522320037128"/>
  <flow id="JF91424" begin="360" fromJunction="J4" toJunction="J0" end="420" vehsPerHour="61.20341659774142"/>
  <flow id="JF91425" begin="360" fromJunction="J4" toJunction="J3" end="420" vehsPerHour="101.45594304959798"/>
  <flow id="JF91426" begin="420" fromJunction="J0" toJunction="J3" end="480" vehsPerHour="51.24166925044683"/>
  <flow id="JF91427" begin="420" fromJunction="J3" toJunction="J0" end="480" vehsPerHour="373.6991744150746"/>
  <flow id="JF91428" begin="420" fromJunction="J0" toJunction="J2" end="480" vehsPerHour="55.37966850760833"/>
  <flow id="JF91429" begin="420" fromJunction="J0" toJunction="J4" end="480" vehsPerHour="111.9941623287478"/>
  <flow id="JF91430" begin="420" fromJunction="J3" toJunction="J2" end="480" vehsPerHour="74.59434969283501"/>
  <flow id="JF91431" begin="420" fromJunction="J3" toJunction="J4" end="480" vehsPerHour="66.34718903480393"/>
  <flow id="JF91432" begin="420" fromJunction="J2" toJunction="J4" end="480" vehsPerHour="93.23282538365345"/>
  <flow id="JF91433" begin="420" fromJunction="J4" toJunction="J2" end="480" vehsPerHour="16.502115272521824"/>
  <flow id="JF91434" begin="420" fromJunction="J2" toJunction="J0" end="480" vehsPerHour="88.18216749548253"/>
  <flow id="JF91435" begin="420" fromJunction="J2" toJunction="J3" end="480" vehsPerHour="117.99462113169693"/>
  <flow id="JF91436" begin="420" fromJunction="J4" toJunction="J0" end="480" vehsPerHour="40.89681256885829"/>
  <flow id="JF91437" begin="420" fromJunction="J4" toJunction="J3" end="480" vehsPerHour="19.290240681746443"/>
  <flow id="JF91438" begin="480" fromJunction="J0" toJunction="J3" end="540" vehsPerHour="517.2187724595568"/>
  <flow id="JF91439" begin="480" fromJunction="J3" toJunction="J0" end="540" vehsPerHour="499.8686637474998"/>
  <flow id="JF91440" begin="480" fromJunction="J0" toJunction="J2" end="540" vehsPerHour="80.67954951124433"/>
  <flow id="JF91441" begin="480" fromJunction="J0" toJunction="J4" end="540" vehsPerHour="66.77102876986515"/>
  <flow id="JF91442" begin="480" fromJunction="J3" toJunction="J2" end="540" vehsPerHour="125.31048192915044"/>
  <flow id="JF91443" begin="480" fromJunction="J3" toJunction="J4" end="540" vehsPerHour="73.65436493901322"/>
  <flow id="JF91444" begin="480" fromJunction="J2" toJunction="J4" end="540" vehsPerHour="66.04655386525067"/>
  <flow id="JF91445" begin="480" fromJunction="J4" toJunction="J2" end="540" vehsPerHour="95.11227232690791"/>
  <flow id="JF91446" begin="480" fromJunction="J2" toJunction="J0" end="540" vehsPerHour="12.470720873839891"/>
  <flow id="JF91447" begin="480" fromJunction="J2" toJunction="J3" end="540" vehsPerHour="35.324728329501596"/>
  <flow id="JF91448" begin="480" fromJunction="J4" toJunction="J0" end="540" vehsPerHour="106.89236393224301"/>
  <flow id="JF91449" begin="480" fromJunction="J4" toJunction="J3" end="540" vehsPerHour="10.2773655967587"/>
  <flow id="JF91450" begin="540" fromJunction="J0" toJunction="J3" end="600" vehsPerHour="260.480904093927"/>
  <flow id="JF91451" begin="540" fromJunction="J3" toJunction="J0" end="600" vehsPerHour="351.73820081004146"/>
  <flow id="JF91452" begin="540" fromJunction="J0" toJunction="J2" end="600" vehsPerHour="130.92220521112662"/>
  <flow id="JF91453" begin="540" fromJunction="J0" toJunction="J4" end="600" vehsPerHour="16.78641871568363"/>
  <flow id="JF91454" begin="540" fromJunction="J3" toJunction="J2" end="600" vehsPerHour="122.26025586143705"/>
  <flow id="JF91455" begin="540" fromJunction="J3" toJunction="J4" end="600" vehsPerHour="84.67220496494039"/>
  <flow id="JF91456" begin="540" fromJunction="J2" toJunction="J4" end="600" vehsPerHour="67.00289491754097"/>
  <flow id="JF91457" begin="540" fromJunction="J4" toJunction="J2" end="600" vehsPerHour="89.41091806866083"/>
  <flow id="JF91458" begin="540" fromJunction="J2" toJunction="J0" end="600" vehsPerHour="51.254648877246694"/>
  <flow id="JF91459" begin="540" fromJunction="J2" toJunction="J3" end="600" vehsPerHour="32.32917284217212"/>
  <flow id="JF91460" begin="540" fromJunction="J4" toJunction="J0" end="600" vehsPerHour="101.15615740442092"/>
  <flow id="JF91461" begin="540" fromJunction="J4" toJunction="J3" end="600" vehsPerHour="76.45564631692001"/>
  <flow id="JF91462" begin="600" fromJunction="J0" toJunction="J3" end="660" vehsPerHour="73.58001268279766"/>
  <flow id="JF91463" begin="600" fromJunction="J3" toJunction="J0" end="660" vehsPerHour="171.20230473280574"/>
  <flow id="JF91464" begin="600" fromJunction="J0" toJunction="J2" end="660" vehsPerHour="35.65878726586863"/>
  <flow id="JF91465" begin="600" fromJunction="J0" toJunction="J4" end="660" vehsPerHour="44.8822360609255"/>
  <flow id="JF91466" begin="600" fromJunction="J3" toJunction="J2" end="660" vehsPerHour="28.483079933140562"/>
  <flow id="JF91467" begin="600" fromJunction="J3" toJunction="J4" end="660" vehsPerHour="118.69454902819332"/>
  <flow id="JF91468" begin="600" fromJunction="J2" toJunction="J4" end="660" vehsPerHour="29.93320704170028"/>
  <flow id="JF91469" begin="600" fromJunction="J4" toJunction="J2" end="660" vehsPerHour="114.16545323482327"/>
  <flow id="JF91470" begin="600" fromJunction="J2" toJunction="J0" end="660" vehsPerHour="135.8098202095548"/>
  <flow id="JF91471" begin="600" fromJunction="J2" toJunction="J3" end="660" vehsPerHour="18.260216405159916"/>
  <flow id="JF91472" begin="600" fromJunction="J4" toJunction="J0" end="660" vehsPerHour="4.679927198786269"/>
  <flow id="JF91473" begin="600" fromJunction="J4" toJunction="J3" end="660" vehsPerHour="16.553871818079067"/>
  <flow id="JF91474" begin="660" fromJunction="J0" toJunction="J3" end="720" vehsPerHour="320.9615666227203"/>
  <flow id="JF91475" begin="660" fromJunction="J3" toJunction="J0" end="720" vehsPerHour="91.11385662910037"/>
  <flow id="JF91476" begin="660" fromJunction="J0" toJunction="J2" end="720" vehsPerHour="39.80601992627115"/>
  <flow id="JF91477" begin="660" fromJunction="J0" toJunction="J4" end="720" vehsPerHour="43.0213947598868"/>
  <flow id="JF91478" begin="660" fromJunction="J3" toJunction="J2" end="720" vehsPerHour="115.06829248615612"/>
  <flow id="JF91479" begin="660" fromJunction="J3" toJunction="J4" end="720" vehsPerHour="20.99471241929692"/>
  <flow id="JF91480" begin="720" fromJunction="J0" toJunction="J3" end="780" vehsPerHour="97.6923195972559"/>
  <flow id="JF91481" begin="720" fromJunction="J3" toJunction="J0" end="780" vehsPerHour="232.86319369028092"/>
  <flow id="JF91482" begin="720" fromJunction="J0" toJunction="J2" end="780" vehsPerHour="53.7006244891254"/>
  <flow id="JF91483" begin="720" fromJunction="J0" toJunction="J4" end="780" vehsPerHour="24.794020852015432"/>
  <flow id="JF91484" begin="720" fromJunction="J3" toJunction="J2" end="780" vehsPerHour="7.173681051497701"/>
  <flow id="JF91485" begin="720" fromJunction="J3" toJunction="J4" end="780" vehsPerHour="41.39723416376382"/>
  <flow id="JF91486" begin="780" fromJunction="J0" toJunction="J3" end="840" vehsPerHour="239.7243625981816"/>
  <flow id="JF91487" begin="780" fromJunction="J3" toJunction="J0" end="840" vehsPerHour="74.62141332279046"/>
  <flow id="JF91488" begin="780" fromJunction="J0" toJunction="J2" end="840" vehsPerHour="68.3370819363392"/>
  <flow id="JF91489" begin="780" fromJunction="J0" toJunction="J4" end="840" vehsPerHour="28.56780144683128"/>
  <flow id="JF91490" begin="780" fromJunction="J3" toJunction="J2" end="840" vehsPerHour="63.98180132365"/>
  <flow id="JF91491" begin="780" fromJunction="J3" toJunction="J4" end="840" vehsPerHour="78.07210256416727"/>
  <flow id="JF91492" begin="780" fromJunction="J2" toJunction="J4" end="840" vehsPerHour="25.59792438849679"/>
  <flow id="JF91493" begin="780" fromJunction="J4" toJunction="J2" end="840" vehsPerHour="85.92067988305313"/>
  <flow id="JF91494" begin="780" fromJunction="J2" toJunction="J0" end="840" vehsPerHour="70.9301525297792"/>
  <flow id="JF91495" begin="780" fromJunction="J2" toJunction="J3" end="840" vehsPerHour="7.65229929870398"/>
  <flow id="JF91496" begin="780" fromJunction="J4" toJunction="J0" end="840" vehsPerHour="1.3680031143681783"/>
  <flow id="JF91497" begin="780" fromJunction="J4" toJunction="J3" end="840" vehsPerHour="71.71968402449396"/>
  <flow id="JF91498" begin="840" fromJunction="J0" toJunction="J3" end="900" vehsPerHour="61.305281429558526"/>
  <flow id="JF91499" begin="840" fromJunction="J3" toJunction="J0" end="900" vehsPerHour="337.85813452558824"/>
  <flow id="JF91500" begin="840" fromJunction="J0" toJunction="J2" end="900" vehsPerHour="89.07845990168826"/>
  <flow id="JF91501" begin="840" fromJunction="J0" toJunction="J4" end="900" vehsPerHour="90.83435113667211"/>
  <flow id="JF91502" begin="840" fromJunction="J3" toJunction="J2" end="900" vehsPerHour="64.4965316678684"/>
  <flow id="JF91503" begin="840" fromJunction="J3" toJunction="J4" end="900" vehsPerHour="58.84539073170445"/>
  <flow id="JF91504" begin="900" fromJunction="J0" toJunction="J3" end="960" vehsPerHour="171.74451474767386"/>
  <flow id="JF91505" begin="900" fromJunction="J3" toJunction="J0" end="960" vehsPerHour="408.30358129123465"/>
  <flow id="JF91506" begin="900" fromJunction="J0" toJunction="J2" end="960" vehsPerHour="105.9733852480556"/>
  <flow id="JF91507" begin="900" fromJunction="J0" toJunction="J4" end="960" vehsPerHour="131.1167313630284"/>
  <flow id="JF91508" begin="900" fromJunction="J3" toJunction="J2" end="960" vehsPerHour="106.78859962998408"/>
  <flow id="JF91509" begin="900" fromJunction="J3" toJunction="J4" end="960" vehsPerHour="51.476112900884324"/>
  <flow id="JF91510" begin="900" fromJunction="J2" toJunction="J4" end="960" vehsPerHour="60.180893387475315"/>
  <flow id="JF91511" begin="900" fromJunction="J4" toJunction="J2" end="960" vehsPerHour="101.4939129049201"/>
  <flow id="JF91512" begin="900" fromJunction="J2" toJunction="J0" end="960" vehsPerHour="21.11267896588758"/>
  <flow id="JF91513" begin="900" fromJunction="J2" toJunction="J3" end="960" vehsPerHour="115.7753530356619"/>
  <flow id="JF91514" begin="900" fromJunction="J4" toJunction="J0" end="960" vehsPerHour="56.45860373986267"/>
  <flow id="JF91515" begin="900" fromJunction="J4" toJunction="J3" end="960" vehsPerHour="92.3316548124546"/>
  <flow id="JF91516" begin="960" fromJunction="J0" toJunction="J3" end="1020" vehsPerHour="251.50457579917037"/>
  <flow id="JF91517" begin="960" fromJunction="J3" toJunction="J0" end="1020" vehsPerHour="430.94358179465206"/>
  <flow id="JF91518" begin="960" fromJunction="J0" toJunction="J2" end="1020" vehsPerHour="117.29896428350796"/>
  <flow id="JF91519" begin="960" fromJunction="J0" toJunction="J4" end="1020" vehsPerHour="21.836357441747257"/>
  <flow id="JF91520" begin="960" fromJunction="J3" toJunction="J2" end="1020" vehsPerHour="73.75963868839882"/>
  <flow id="JF91521" begin="960" fromJunction="J3" toJunction="J4" end="1020" vehsPerHour="125.96454360535098"/>
  <flow id="JF91522" begin="960" fromJunction="J2" toJunction="J4" end="1020" vehsPerHour="75.58774194763404"/>
  <flow id="JF91523" begin="960" fromJunction="J4" toJunction="J2" end="1020" vehsPerHour="60.41155494541203"/>
  <flow id="JF91524" begin="960" fromJunction="J2" toJunction="J0" end="1020" vehsPerHour="35.75172545827647"/>
  <flow id="JF91525" begin="960" fromJunction="J2" toJunction="J3" end="1020" vehsPerHour="120.13417817201767"/>
  <flow id="JF91526" begin="960" fromJunction="J4" toJunction="J0" end="1020" vehsPerHour="11.60795316317711"/>
  <flow id="JF91527" begin="960" fromJunction="J4" toJunction="J3" end="1020" vehsPerHour="9.824791759269614"/>
  <flow id="JF91528" begin="1020" fromJunction="J0" toJunction="J3" end="1080" vehsPerHour="256.01670067020495"/>
  <flow id="JF91529" begin="1020" fromJunction="J3" toJunction="J0" end="1080" vehsPerHour="6.20983913459919"/>
  <flow id="JF91530" begin="1020" fromJunction="J0" toJunction="J2" end="1080" vehsPerHour="47.18703870322004"/>
  <flow id="JF91531" begin="1020" fromJunction="J0" toJunction="J4" end="1080" vehsPerHour="98.98839005157517"/>
  <flow id="JF91532" begin="1020" fromJunction="J3" toJunction="J2" end="1080" vehsPerHour="87.7300615296195"/>
  <flow id="JF91533" begin="1020" fromJunction="J3" toJunction="J4" end="1080" vehsPerHour="38.904931363806575"/>
  <flow id="JF91534" begin="1020" fromJunction="J2" toJunction="J4" end="1080" vehsPerHour="62.35683114080843"/>
  <flow id="JF91535" begin="1020" fromJunction="J4" toJunction="J2" end="1080" vehsPerHour="106.06418156657553"/>
  <flow id="JF91536" begin="1020" fromJunction="J2" toJunction="J0" end="1080" vehsPerHour="59.04018394279813"/>
  <flow id="JF91537" begin="1020" fromJunction="J2" toJunction="J3" end="1080" vehsPerHour="59.70748825895061"/>
  <flow id="JF91538" begin="1020" fromJunction="J4" toJunction="J0" end="1080" vehsPerHour="129.82879101987004"/>
  <flow id="JF91539" begin="1020" fromJunction="J4" toJunction="J3" end="1080" vehsPerHour="130.59827455379823"/>
  <flow id="JF91540" begin="1080" fromJunction="J0" toJunction="J3" end="1140" vehsPerHour="183.7593640886718"/>
  <flow id="JF91541" begin="1080" fromJunction="J3" toJunction="J0" end="1140" vehsPerHour="351.87277013385074"/>
  <flow id="JF91542" begin="1080" fromJunction="J0" toJunction="J2" end="1140" vehsPerHour="43.9715833314703"/>
  <flow id="JF91543" begin="1080" fromJunction="J0" toJunction="J4" end="1140" vehsPerHour="79.73939580454308"/>
  <flow id="JF91544" begin="1080" fromJunction="J3" toJunction="J2" end="1140" vehsPerHour="99.66395655050488"/>
  <flow id="JF91545" begin="1080" fromJunction="J3" toJunction="J4" end="1140" vehsPerHour="117.47276636981819"/>
  <flow id="JF91546" begin="1140" fromJunction="J0" toJunction="J3" end="1200" vehsPerHour="33.00128935218945"/>
  <flow id="JF91547" begin="1140" fromJunction="J3" toJunction="J0" end="1200" vehsPerHour="386.3159194360816"/>
  <flow id="JF91548" begin="1140" fromJunction="J0" toJunction="J2" end="1200" vehsPerHour="136.01113111962326"/>
  <flow id="JF91549" begin="1140" fromJunction="J0" toJunction="J4" end="1200" vehsPerHour="18.759443914258874"/>
  <flow id="JF91550" begin="1140" fromJunction="J3" toJunction="J2" end="1200" vehsPerHour="128.87857382006237"/>
  <flow id="JF91551" begin="1140" fromJunction="J3" toJunction="J4" end="1200" vehsPerHour="114.53890496301823"/>
  <flow id="JF91552" begin="1140" fromJunction="J2" toJunction="J4" end="1200" vehsPerHour="85.63453955101107"/>
  <flow id="JF91553" begin="1140" fromJunction="J4" toJunction="J2" end="1200" vehsPerHour="27.693498254362982"/>
  <flow id="JF91554" begin="1140" fromJunction="J2" toJunction="J0" end="1200" vehsPerHour="30.108883531508795"/>
  <flow id="JF91555" begin="1140" fromJunction="J2" toJunction="J3" end="1200" vehsPerHour="64.95214321570143"/>
  <flow id="JF91556" begin="1140" fromJunction="J4" toJunction="J0" end="1200" vehsPerHour="56.86531927764724"/>
  <flow id="JF91557" begin="1140" fromJunction="J4" toJunction="J3" end="1200" vehsPerHour="115.67836959839413"/>
  <flow id="JF91558" begin="1200" fromJunction="J0" toJunction="J3" end="1260" vehsPerHour="303.51941563756685"/>
  <flow id="JF91559" begin="1200" fromJunction="J3" toJunction="J0" end="1260" vehsPerHour="546.3180804840139"/>
  <flow id="JF91560" begin="1200" fromJunction="J0" toJunction="J2" end="1260" vehsPerHour="15.496672771039018"/>
  <flow id="JF91561" begin="1200" fromJunction="J0" toJunction="J4" end="1260" vehsPerHour="133.33035253501583"/>
  <flow id="JF91562" begin="1200" fromJunction="J3" toJunction="J2" end="1260" vehsPerHour="55.92285895170244"/>
  <flow id="JF91563" begin="1200" fromJunction="J3" toJunction="J4" end="1260" vehsPerHour="90.58107730463648"/>
  <flow id="JF91564" begin="1260" fromJunction="J0" toJunction="J3" end="1320" vehsPerHour="470.5635308288209"/>
  <flow id="JF91565" begin="1260" fromJunction="J3" toJunction="J0" end="1320" vehsPerHour="180.4429718748003"/>
  <flow id="JF91566" begin="1260" fromJunction="J0" toJunction="J2" end="1320" vehsPerHour="64.72573716564155"/>
  <flow id="JF91567" begin="1260" fromJunction="J0" toJunction="J4" end="1320" vehsPerHour="121.41081937302066"/>
  <flow id="JF91568" begin="1260" fromJunction="J3" toJunction="J2" end="1320" vehsPerHour="45.440449676748955"/>
  <flow id="JF91569" begin="1260" fromJunction="J3" toJunction="J4" end="1320" vehsPerHour="40.715663776348286"/>
  <flow id="JF91570" begin="1260" fromJunction="J2" toJunction="J4" end="1320" vehsPerHour="135.8647896651158"/>
  <flow id="JF91571" begin="1260" fromJunction="J4" toJunction="J2" end="1320" vehsPerHour="75.75700093307212"/>
  <flow id="JF91572" begin="1260" fromJunction="J2" toJunction="J0" end="1320" vehsPerHour="31.474106338477384"/>
  <flow id="JF91573" begin="1260" fromJunction="J2" toJunction="J3" end="1320" vehsPerHour="52.529198122664525"/>
  <flow id="JF91574" begin="1260" fromJunction="J4" toJunction="J0" end="1320" vehsPerHour="102.2237445771647"/>
  <flow id="JF91575" begin="1260" fromJunction="J4" toJunction="J3" end="1320" vehsPerHour="109.1035515677918"/>
  <flow id="JF91576" begin="1320" fromJunction="J0" toJunction="J3" end="1380" vehsPerHour="499.27092851293014"/>
  <flow id="JF91577" begin="1320" fromJunction="J3" toJunction="J0" end="1380" vehsPerHour="316.5876232362475"/>
  <flow id="JF91578" begin="1320" fromJunction="J0" toJunction="J2" end="1380" vehsPerHour="114.37014089625056"/>
  <flow id="JF91579" begin="1320" fromJunction="J0" toJunction="J4" end="1380" vehsPerHour="76.16381204633336"/>
  <flow id="JF91580" begin="1320" fromJunction="J3" toJunction="J2" end="1380" vehsPerHour="1.9117820999001813"/>
  <flow id="JF91581" begin="1320" fromJunction="J3" toJunction="J4" end="1380" vehsPerHour="56.46749828999855"/>
  <flow id="JF91582" begin="1320" fromJunction="J2" toJunction="J4" end="1380" vehsPerHour="119.45078580787752"/>
  <flow id="JF91583" begin="1320" fromJunction="J4" toJunction="J2" end="1380" vehsPerHour="41.80653722540176"/>
  <flow id="JF91584" begin="1320" fromJunction="J2" toJunction="J0" end="1380" vehsPerHour="52.38957353104221"/>
  <flow id="JF91585" begin="1320" fromJunction="J2" toJunction="J3" end="1380" vehsPerHour="72.42735175249945"/>
  <flow id="JF91586" begin="1320" fromJunction="J4" toJunction="J0" end="1380" vehsPerHour="105.07982771600297"/>
  <flow id="JF91587" begin="1320" fromJunction="J4" toJunction="J3" end="1380" vehsPerHour="34.71166245860532"/>
  <flow id="JF91588" begin="1380" fromJunction="J0" toJunction="J3" end="1440" vehsPerHour="342.46763653962284"/>
  <flow id="JF91589" begin="1380" fromJunction="J3" toJunction="J0" end="1440" vehsPerHour="254.01355347239948"/>
  <flow id="JF91590" begin="1380" fromJunction="J0" toJunction="J2" end="1440" vehsPerHour="118.77232183301206"/>
  <flow id="JF91591" begin="1380" fromJunction="J0" toJunction="J4" end="1440" vehsPerHour="134.8673231048523"/>
  <flow id="JF91592" begin="1380" fromJunction="J3" toJunction="J2" end="1440" vehsPerHour="127.18344844453897"/>
  <flow id="JF91593" begin="1380" fromJunction="J3" toJunction="J4" end="1440" vehsPerHour="98.7470512163553"/>
  <flow id="JF91594" begin="1440" fromJunction="J0" toJunction="J3" end="1500" vehsPerHour="458.22986610382685"/>
  <flow id="JF91595" begin="1440" fromJunction="J3" toJunction="J0" end="1500" vehsPerHour="177.26974864938964"/>
  <flow id="JF91596" begin="1440" fromJunction="J0" toJunction="J2" end="1500" vehsPerHour="70.34141668812038"/>
  <flow id="JF91597" begin="1440" fromJunction="J0" toJunction="J4" end="1500" vehsPerHour="4.838140745764224"/>
  <flow id="JF91598" begin="1440" fromJunction="J3" toJunction="J2" end="1500" vehsPerHour="81.39961701721045"/>
  <flow id="JF91599" begin="1440" fromJunction="J3" toJunction="J4" end="1500" vehsPerHour="29.198377684032074"/>
  <flow id="JF91600" begin="1500" fromJunction="J0" toJunction="J3" end="1560" vehsPerHour="190.7533257760367"/>
  <flow id="JF91601" begin="1500" fromJunction="J3" toJunction="J0" end="1560" vehsPerHour="224.98161206976516"/>
  <flow id="JF91602" begin="1500" fromJunction="J0" toJunction="J2" end="1560" vehsPerHour="31.276405469279016"/>
  <flow id="JF91603" begin="1500" fromJunction="J0" toJunction="J4" end="1560" vehsPerHour="34.99105901434747"/>
  <flow id="JF91604" begin="1500" fromJunction="J3" toJunction="J2" end="1560" vehsPerHour="50.88292644130954"/>
  <flow id="JF91605" begin="1500" fromJunction="J3" toJunction="J4" end="1560" vehsPerHour="135.6241650565897"/>
  <flow id="JF91606" begin="1500" fromJunction="J2" toJunction="J4" end="1560" vehsPerHour="33.635628511672714"/>
  <flow id="JF91607" begin="1500" fromJunction="J4" toJunction="J2" end="1560" vehsPerHour="62.10753744642176"/>
  <flow id="JF91608" begin="1500" fromJunction="J2" toJunction="J0" end="1560" vehsPerHour="47.11200664083832"/>
  <flow id="JF91609" begin="1500" fromJunction="J2" toJunction="J3" end="1560" vehsPerHour="120.59809331998095"/>
  <flow id="JF91610" begin="1500" fromJunction="J4" toJunction="J0" end="1560" vehsPerHour="118.15749618782985"/>
  <flow id="JF91611" begin="1500" fromJunction="J4" toJunction="J3" end="1560" vehsPerHour="38.65685954786663"/>
  <flow id="JF91612" begin="1560" fromJunction="J0" toJunction="J3" end="1620" vehsPerHour="51.06668334506284"/>
  <flow id="JF91613" begin="1560" fromJunction="J3" toJunction="J0" end="1620" vehsPerHour="64.06164320275484"/>
  <flow id="JF91614" begin="1560" fromJunction="J0" toJunction="J2" end="1620" vehsPerHour="107.34112909706299"/>
  <flow id="JF91615" begin="1560" fromJunction="J0" toJunction="J4" end="1620" vehsPerHour="53.317410502185545"/>
  <flow id="JF91616" begin="1560" fromJunction="J3" toJunction="J2" end="1620" vehsPerHour="10.36262484485398"/>
  <flow id="JF91617" begin="1560" fromJunction="J3" toJunction="J4" end="1620" vehsPerHour="94.06524309397506"/>
  <flow id="JF91618" begin="1560" fromJunction="J2" toJunction="J4" end="1620" vehsPerHour="10.739254161955307"/>
  <flow id="JF91619" begin="1560" fromJunction="J4" toJunction="J2" end="1620" vehsPerHour="52.53508632360308"/>