<?xml version="1.0" encoding="UTF-8"?>
<routes xmlns:xsi="http://www.w3.org/2001/XMLSchema-instance" xsi:noNamespaceSchemaLocation="http://sumo.dlr.de/xsd/routes_file.xsd">
  <flow id="JF89656" begin="0" fromJunction="J0" toJunction="J3" end="60" vehsPerHour="425.086049546742"/>
  <flow id="JF89657" begin="0" fromJunction="J3" toJunction="J0" end="60" vehsPerHour="490.6713642698595"/>
  <flow id="JF89658" begin="0" fromJunction="J0" toJunction="J2" end="60" vehsPerHour="80.25403619031006"/>
  <flow id="JF89659" begin="0" fromJunction="J0" toJunction="J4" end="60" vehsPerHour="91.9695271184107"/>
  <flow id="JF89660" begin="0" fromJunction="J3" toJunction="J2" end="60" vehsPerHour="124.37520995867648"/>
  <flow id="JF89661" begin="0" fromJunction="J3" toJunction="J4" end="60" vehsPerHour="113.37952700738296"/>
  <flow id="JF89662" begin="0" fromJunction="J2" toJunction="J4" end="60" vehsPerHour="14.182172593427257"/>
  <flow id="JF89663" begin="0" fromJunction="J4" toJunction="J2" end="60" vehsPerHour="136.80596171869013"/>
  <flow id="JF89664" begin="0" fromJunction="J2" toJunction="J0" end="60" vehsPerHour="33.09715763444662"/>
  <flow id="JF89665" begin="0" fromJunction="J2" toJunction="J3" end="60" vehsPerHour="33.66206974288146"/>
  <flow id="JF89666" begin="0" fromJunction="J4" toJunction="J0" end="60" vehsPerHour="110.13004463759201"/>
  <flow id="JF89667" begin="0" fromJunction="J4" toJunction="J3" end="60" vehsPerHour="94.14362392635631"/>
  <flow id="JF89668" begin="60" fromJunction="J0" toJunction="J3" end="120" vehsPerHour="2.885419871116504"/>
  <flow id="JF89669" begin="60" fromJunction="J3" toJunction="J0" end="120" vehsPerHour="392.2261036747339"/>
  <flow id="JF89670" begin="60" fromJunction="J0" toJunction="J2" end="120" vehsPerHour="106.39959972481803"/>
  <flow id="JF89671" begin="60" fromJunction="J0" toJunction="J4" end="120" vehsPerHour="85.15747647928643"/>
  <flow id="JF89672" begin="60" fromJunction="J3" toJunction="J2" end="120" vehsPerHour="50.11870579084388"/>
  <flow id="JF89673" begin="60" fromJunction="J3" toJunction="J4" end="120" vehsPerHour="130.89758227141718"/>
  <flow id="JF89674" begin="60" fromJunction="J2" toJunction="J4" end="120" vehsPerHour="10.10118619830227"/>
  <flow id="JF89675" begin="60" fromJunction="J4" toJunction="J2" end="120" vehsPerHour="0.4284680973265556"/>
  <flow id="JF89676" begin="60" fromJunction="J2" toJunction="J0" end="120" vehsPerHour="82.06847134202158"/>
  <flow id="JF89677" begin="60" fromJunction="J2" toJunction="J3" end="120" vehsPerHour="5.630378539371101"/>
  <flow id="JF89678" begin="60" fromJunction="J4" toJunction="J0" end="120" vehsPerHour="31.041593413658077"/>
  <flow id="JF89679" begin="60" fromJunction="J4" toJunction="J3" end="120" vehsPerHour="27.882194121263204"/>
  <flow id="JF89680" begin="120" fromJunction="J0" toJunction="J3" end="180" vehsPerHour="431.75613850097955"/>
  <flow id="JF89681" begin="120" fromJunction="J3" toJunction="J0" end="180" vehsPerHour="417.1176033823593"/>
  <flow id="JF89682" begin="120" fromJunction="J0" toJunction="J2" end="180" vehsPerHour="36.22016756148257"/>
  <flow id="JF89683" begin="120" fromJunction="J0" toJunction="J4" end="180" vehsPerHour="111.22047210328292"/>
  <flow id="JF89684" begin="120" fromJunction="J3" toJunction="J2" end="180" vehsPerHour="106.69581344124465"/>
  <flow id="JF89685" begin="120" fromJunction="J3" toJunction="J4" end="180" vehsPerHour="38.875459685487684"/>
  <flow id="JF89686" begin="120" fromJunction="J2" toJunction="J4" end="180" vehsPerHour="71.34203098846497"/>
  <flow id="JF89687" begin="120" fromJunction="J4" toJunction="J2" end="180" vehsPerHour="105.13682193854326"/>
  <flow id="JF89688" begin="120" fromJunction="J2" toJunction="J0" end="180" vehsPerHour="116.64577589782029"/>
  <flow id="JF89689" begin="120" fromJunction="J2" toJunction="J3" end="180" vehsPerHour="115.12795923744291"/>
  <flow id="JF89690" begin="120" fromJunction="J4" toJunction="J0" end="180" vehsPerHour="106.62704056760936"/>
  <flow id="JF89691" begin="120" fromJunction="J4" toJunction="J3" end="180" vehsPerHour="96.13543554634332"/>
  <flow id="JF89692" begin="180" fromJunction="J0" toJunction="J3" end="240" vehsPerHour="548.4318367922162"/>
  <flow id="JF89693" begin="180" fromJunction="J3" toJunction="J0" end="240" vehsPerHour="438.72381429746133"/>
  <flow id="JF89694" begin="180" fromJunction="J0" toJunction="J2" end="240" vehsPerHour="27.71332946778245"/>
  <flow id="JF89695" begin="180" fromJunction="J0" toJunction="J4" end="240" vehsPerHour="111.06275782231211"/>
  <flow id="JF89696" begin="180" fromJunction="J3" toJunction="J2" end="240" vehsPerHour="3.917794860683305"/>
  <flow id="JF89697" begin="180" fromJunction="J3" toJunction="J4" end="240" vehsPerHour="126.46235167380402"/>
  <flow id="JF89698" begin="180" fromJunction="J2" toJunction="J4" end="240" vehsPerHour="135.7656492928391"/>
  <flow id="JF89699" begin="180" fromJunction="J4" toJunction="J2" end="240" vehsPerHour="111.96066879039475"/>
  <flow id="JF89700" begin="180" fromJunction="J2" toJunction="J0" end="240" vehsPerHour="47.56183073743075"/>
  <flow id="JF89701" begin="180" fromJunction="J2" toJunction="J3" end="240" vehsPerHour="62.80294963355315"/>
  <flow id="JF89702" begin="180" fromJunction="J4" toJunction="J0" end="240" vehsPerHour="112.15158727107539"/>
  <flow id="JF89703" begin="180" fromJunction="J4" toJunction="J3" end="240" vehsPerHour="81.98323869226392"/>
  <flow id="JF89704" begin="240" fromJunction="J0" toJunction="J3" end="300" vehsPerHour="459.42643605698873"/>
  <flow id="JF89705" begin="240" fromJunction="J3" toJunction="J0" end="300" vehsPerHour="186.65675162210908"/>
  <flow id="JF89706" begin="240" fromJunction="J0" toJunction="J2" end="300" vehsPerHour="11.063260873288893"/>
  <flow id="JF89707" begin="240" fromJunction="J0" toJunction="J4" end="300" vehsPerHour="30.31722691024619"/>
  <flow id="JF89708" begin="240" fromJunction="J3" toJunction="J2" end="300" vehsPerHour="55.47599286229554"/>
  <flow id="JF89709" begin="240" fromJunction="J3" toJunction="J4" end="300" vehsPerHour="0.04486501336039568"/>
  <flow id="JF89710" begin="240" fromJunction="J2" toJunction="J4" end="300" vehsPerHour="80.5056060902093"/>
  <flow id="JF89711" begin="240" fromJunction="J4" toJunction="J2" end="300" vehsPerHour="89.48615432669858"/>
  <flow id="JF89712" begin="240" fromJunction="J2" toJunction="J0" end="300" vehsPerHour="10.904482717160883"/>
  <flow id="JF89713" begin="240" fromJunction="J2" toJunction="J3" end="300" vehsPerHour="124.36824642262489"/>
  <flow id="JF89714" begin="240" fromJunction="J4" toJunction="J0" end="300" vehsPerHour="31.84712722047531"/>
  <flow id="JF89715" begin="240" fromJunction="J4" toJunction="J3" end="300" vehsPerHour="82.65906531206592"/>
  <flow id="JF89716" begin="300" fromJunction="J0" toJunction="J3" end="360" vehsPerHour="84.98254606319338"/>
  <flow id="JF89717" begin="300" fromJunction="J3" toJunction="J0" end="360" vehsPerHour="415.6917000974085"/>
  <flow id="JF89718" begin="300" fromJunction="J0" toJunction="J2" end="360" vehsPerHour="96.34830040453942"/>
  <flow id="JF89719" begin="300" fromJunction="J0" toJunction="J4" end="360" vehsPerHour="17.72300955102728"/>
  <flow id="JF89720" begin="300" fromJunction="J3" toJunction="J2" end="360" vehsPerHour="57.481074987420435"/>
  <flow id="JF89721" begin="300" fromJunction="J3" toJunction="J4" end="360" vehsPerHour="78.5858062895846"/>
  <flow id="JF89722" begin="300" fromJunction="J2" toJunction="J4" end="360" vehsPerHour="70.97483684929271"/>
  <flow id="JF89723" begin="300" fromJunction="J4" toJunction="J2" end="360" vehsPerHour="17.477835749032035"/>
  <flow id="JF89724" begin="300" fromJunction="J2" toJunction="J0" end="360" vehsPerHour="59.91124798937013"/>
  <flow id="JF89725" begin="300" fromJunction="J2" toJunction="J3" end="360" vehsPerHour="84.03119706937974"/>
  <flow id="JF89726" begin="300" fromJunction="J4" toJunction="J0" end="360" vehsPerHour="77.81333866324084"/>
  <flow id="JF89727" begin="300" fromJunction="J4" toJunction="J3" end="360" vehsPerHour="109.73289060846724"/>
  <flow id="JF89728" begin="360" fromJunction="J0" toJunction="J3" end="420" vehsPerHour="549.1545591729015"/>
  <flow id="JF89729" begin="360" fromJunction="J3" toJunction="J0" end="420" vehsPerHour="166.11372641172198"/>
  <flow id="JF89730" begin="360" fromJunction="J0" toJunction="J2" end="420" vehsPerHour="49.59929141845902"/>
  <flow id="JF89731" begin="360" fromJunction="J0" toJunction="J4" end="420" vehsPerHour="52.07762513640416"/>
  <flow id="JF89732" begin="360" fromJunction="J3" toJunction="J2" end="420" vehsPerHour="60.76226038621706"/>
  <flow id="JF89733" begin="360" fromJunction="J3" toJunction="J4" end="420" vehsPerHour="75.7223914929416"/>
  <flow id="JF89734" begin="420" fromJunction="J0" toJunction="J3" end="480" vehsPerHour="440.4273957931662"/>
  <flow id="JF89735" begin="420" fromJunction="J3" toJunction="J0" end="480" vehsPerHour="403.61667432993113"/>
  <flow id="JF89736" begin="420" fromJunction="J0" toJunction="J2" end="480" vehsPerHour="68.09222514324797"/>
  <flow id="JF89737" begin="420" fromJunction="J0" toJunction="J4" end="480" vehsPerHour="39.40665922157655"/>
  <flow id="JF89738" begin="420" fromJunction="J3" toJunction="J2" end="480" vehsPerHour="98.26319603222048"/>
  <flow id="JF89739" begin="420" fromJunction="J3" toJunction="J4" end="480" vehsPerHour="2.239933773088027"/>
  <flow id="JF89740" begin="420" fromJunction="J2" toJunction="J4" end="480" vehsPerHour="58.95039963098968"/>
  <flow id="JF89741" begin="420" fromJunction="J4" toJunction="J2" end="480" vehsPerHour="41.3418114194939"/>
  <flow id="JF89742" begin="420" fromJunction="J2" toJunction="J0" end="480" vehsPerHour="74.66913345447769"/>
  <flow id="JF89743" begin="420" fromJunction="J2" toJunction="J3" end="480" vehsPerHour="14.865107086994138"/>
  <flow id="JF89744" begin="420" fromJunction="J4" toJunction="J0" end="480" vehsPerHour="120.75947089375263"/>
  <flow id="JF89745" begin="420" fromJunction="J4" toJunction="J3" end="480" vehsPerHour="115.30675455105599"/>
  <flow id="JF89746" begin="480" fromJunction="J0" toJunction="J3" end="540" vehsPerHour="208.0141177837917"/>
  <flow id="JF89747" begin="480" fromJunction="J3" toJunction="J0" end="540" vehsPerHour="2.004336458391947"/>
  <flow id="JF89748" begin="480" fromJunction="J0" toJunction="J2" end="540" vehsPerHour="35.41835590180273"/>
  <flow id="JF89749" begin="480" fromJunction="J0" toJunction="J4" end="540" vehsPerHour="66.22513076367679"/>
  <flow id="JF89750" begin="480" fromJunction="J3" toJunction="J2" end="540" vehsPerHour="38.50491274098947"/>
  <flow id="JF89751" begin="480" fromJunction="J3" toJunction="J4" end="540" vehsPerHour="131.32419566698798"/>
  <flow id="JF89752" begin="540" fromJunction="J0" toJunction="J3" end="600" vehsPerHour="461.4577324895533"/>
  <flow id="JF89753" begin="540" fromJunction="J3" toJunction="J0" end="600" vehsPerHour="256.6408144729764"/>
  <flow id="JF89754" begin="540" fromJunction="J0" toJunction="J2" end="600" vehsPerHour="2.007296468979776"/>
  <flow id="JF89755" begin="540" fromJunction="J0" toJunction="J4" end="600" vehsPerHour="34.03206069475843"/>
  <flow id="JF89756" begin="540" fromJunction="J3" toJunction="J2" end="600" vehsPerHour="49.86099217170629"/>
  <flow id="JF89757" begin="540" fromJunction="J3" toJunction="J4" end="600" vehsPerHour="22.44800347591816"/>
  <flow id="JF89758" begin="540" fromJunction="J2" toJunction="J4" end="600" vehsPerHour="23.666277651353752"/>
  <flow id="JF89759" begin="540" fromJunction="J4" toJunction="J2" end="600" vehsPerHour="26.05901780221909"/>
  <flow id="JF89760" begin="540" fromJunction="J2" toJunction="J0" end="600" vehsPerHour="109.97676164193406"/>
  <flow id="JF89761" begin="540" fromJunction="J2" toJunction="J3" end="600" vehsPerHour="119.04803779185791"/>
  <flow id="JF89762" begin="540" fromJunction="J4" toJunction="J0" end="600" vehsPerHour="35.93110498686658"/>
  <flow id="JF89763" begin="540" fromJunction="J4" toJunction="J3" end="600" vehsPerHour="100.44516692529785"/>
  <flow id="JF89764" begin="600" fromJunction="J0" toJunction="J3" end="660" vehsPerHour="378.2400054524848"/>
  <flow id="JF89765" begin="600" fromJunction="J3" toJunction="J0" end="660" vehsPerHour="223.5810328807589"/>
  <flow id="JF89766" begin="600" fromJunction="J0" toJunction="J2" end="660" vehsPerHour="12.282721442746272"/>
  <flow id="JF89767" begin="600" fromJunction="J0" toJunction="J4" end="660" vehsPerHour="73.69386440409151"/>
  <flow id="JF89768" begin="600" fromJunction="J3" toJunction="J2" end="660" vehsPerHour="120.63408039384178"/>
  <flow id="JF89769" begin="600" fromJunction="J3" toJunction="J4" end="660" vehsPerHour="22.556535166116443"/>
  <flow id="JF89770" begin="600" fromJunction="J2" toJunction="J4" end="660" vehsPerHour="91.95075214788416"/>
  <flow id="JF89771" begin="600" fromJunction="J4" toJunction="J2" end="660" vehsPerHour="18.662172102640458"/>
  <flow id="JF89772" begin="600" fromJunction="J2" toJunction="J0" end="660" vehsPerHour="135.14809863175915"/>
  <flow id="JF89773" begin="600" fromJunction="J2" toJunction="J3" end="660" vehsPerHour="77.4296201090161"/>
  <flow id="JF89774" begin="600" fromJunction="J4" toJunction="J0" end="660" vehsPerHour="67.96252256625102"/>
  <flow id="JF89775" begin="600" fromJunction="J4" toJunction="J3" end="660" vehsPerHour="18.864566896380893"/>
  <flow id="JF89776" begin="660" fromJunction="J0" toJunction="J3" end="720" vehsPerHour="164.3982340028308"/>
  <flow id="JF89777" begin="660" fromJunction="J3" toJunction="J0" end="720" vehsPerHour="21.543328155355425"/>
  <flow id="JF89778" begin="660" fromJunction="J0" toJunction="J2" end="720" vehsPerHour="41.58272307913302"/>
  <flow id="JF89779" begin="660" fromJunction="J0" toJunction="J4" end="720" vehsPerHour="99.73315258199956"/>
  <flow id="JF89780" begin="660" fromJunction="J3" toJunction="J2" end="720" vehsPerHour="20.152318118979082"/>
  <flow id="JF89781" begin="660" fromJunction="J3" toJunction="J4" end="720" vehsPerHour="27.989661806631002"/>
  <flow id="JF89782" begin="660" fromJunction="J2" toJunction="J4" end="720" vehsPerHour="69.17334709633505"/>
  <flow id="JF89783" begin="660" fromJunction="J4" toJunction="J2" end="720" vehsPerHour="37.212679490645876"/>
  <flow id="JF89784" begin="660" fromJunction="J2" toJunction="J0" end="720" vehsPerHour="58.56086326996463"/>
  <flow id="JF89785" begin="660" fromJunction="J2" toJunction="J3" end="720" vehsPerHour="35.64072103689261"/>
  <flow id="JF89786" begin="660" fromJunction="J4" toJunction="J0" end="720" vehsPerHour="110.348324906337"/>
  <flow id="JF89787" begin="660" fromJunction="J4" toJunction="J3" end="720" vehsPerHour="38.934328091825094"/>
  <flow id="JF89788" begin="720" fromJunction="J0" toJunction="J3" end="780" vehsPerHour="197.9438095471052"/>
  <flow id="JF89789" begin="720" fromJunction="J3" toJunction="J0" end="780" vehsPerHour="448.2909764630161"/>
  <flow id="JF89790" begin="720" fromJunction="J0" toJunction="J2" end="780" vehsPerHour="73.71847389461847"/>
  <flow id="JF89791" begin="720" fromJunction="J0" toJunction="J4" end="780" vehsPerHour="102.09442387936747"/>
  <flow id="JF89792" begin="720" fromJunction="J3" toJunction="J2" end="780" vehsPerHour="47.46100838174981"/>
  <flow id="JF89793" begin="720" fromJunction="J3" toJunction="J4" end="780" vehsPerHour="98.7410459137154"/>
  <flow id="JF89794" begin="720" fromJunction="J2" toJunction="J4" end="780" vehsPerHour="69.091474710347"/>
  <flow id="JF89795" begin="720" fromJunction="J4" toJunction="J2" end="780" vehsPerHour="127.01925242667554"/>
  <flow id="JF89796" begin="720" fromJunction="J2" toJunction="J0" end="780" vehsPerHour="132.92871846787173"/>
  <flow id="JF89797" begin="720" fromJunction="J2" toJunction="J3" end="780" vehsPerHour="7.54401813038151"/>
  <flow id="JF89798" begin="720" fromJunction="J4" toJunction="J0" end="780" vehsPerHour="22.92734807735569"/>
  <flow id="JF89799" begin="720" fromJunction="J4" toJunction="J3" end="780" vehsPerHour="81.66102996786242"/>
  <flow id="JF89800" begin="780" fromJunction="J0" toJunction="J3" end="840" vehsPerHour="22.17008154442459"/>
  <flow id="JF89801" begin="780" fromJunction="J3" toJunction="J0" end="840" vehsPerHour="7.506102340574334"/>
  <flow id="JF89802" begin="780" fromJunction="J0" toJunction="J2" end="840" vehsPerHour="41.277800372619154"/>
  <flow id="JF89803" begin="780" fromJunction="J0" toJunction="J4" end="840" vehsPerHour="87.09071393810089"/>
  <flow id="JF89804" begin="780" fromJunction="J3" toJunction="J2" end="840" vehsPerHour="99.2751597116529"/>
  <flow id="JF89805" begin="780" fromJunction="J3" toJunction="J4" end="840" vehsPerHour="63.81721256036232"/>
  <flow id="JF89806" begin="780" fromJunction="J2" toJunction="J4" end="840" vehsPerHour="112.32565283864052"/>
  <flow id="JF89807" begin="780" fromJunction="J4" toJunction="J2" end="840" vehsPerHour="85.08113119116206"/>
  <flow id="JF89808" begin="780" fromJunction="J2" toJunction="J0" end="840" vehsPerHour="96.70087830197058"/>
  <flow id="JF89809" begin="780" fromJunction="J2" toJunction="J3" end="840" vehsPerHour="36.90118147277758"/>
  <flow id="JF89810" begin="780" fromJunction="J4" toJunction="J0" end="840" vehsPerHour="115.56941312324751"/>
  <flow id="JF89811" begin="780" fromJunction="J4" toJunction="J3" end="840" vehsPerHour="30.36447850876956"/>
  <flow id="JF89812" begin="840" fromJunction="J0" toJunction="J3" end="900" vehsPerHour="226.60240258111617"/>
  <flow id="JF89813" begin="840" fromJunction="J3" toJunction="J0" end="900" vehsPerHour="461.02064257208855"/>
  <flow id="JF89814" begin="840" fromJunction="J0" toJunction="J2" end="900" vehsPerHour="123.47165594746222"/>
  <flow id="JF89815" begin="840" fromJunction="J0" toJunction="J4" end="900" vehsPerHour="29.43029701077344"/>
  <flow id="JF89816" begin="840" fromJunction="J3" toJunction="J2" end="900" vehsPerHour="101.99089277296265"/>
  <flow id="JF89817" begin="840" fromJunction="J3" toJunction="J4" end="900" vehsPerHour="84.4332859735286"/>
  <flow id="JF89818" begin="840" fromJunction="J2" toJunction="J4" end="900" vehsPerHour="43.90338633018711"/>
  <flow id="JF89819" begin="840" fromJunction="J4" toJunction="J2" end="900" vehsPerHour="98.71754028622243"/>
  <flow id="JF89820" begin="840" fromJunction="J2" toJunction="J0" end="900" vehsPerHour="41.302070898142325"/>
  <flow id="JF89821" begin="840" fromJunction="J2" toJunction="J3" end="900" vehsPerHour="12.326385183483128"/>
  <flow id="JF89822" begin="840" fromJunction="J4" toJunction="J0" end="900" vehsPerHour="19.815630621450577"/>
  <flow id="JF89823" begin="840" fromJunction="J4" toJunction="J3" end="900" vehsPerHour="114.14019280319613"/>
  <flow id="JF89824" begin="900" fromJunction="J0" toJunction="J3" end="960" vehsPerHour="421.48218280196147"/>
  <flow id="JF89825" begin="900" fromJunction="J3" toJunction="J0" end="960" vehsPerHour="70.66176877473617"/>
  <flow id="JF89826" begin="900" fromJunction="J0" toJunction="J2" end="960" vehsPerHour="112.19481600785376"/>
  <flow id="JF89827" begin="900" fromJunction="J0" toJunction="J4" end="960" vehsPerHour="18.147964902368862"/>
  <flow id="JF89828" begin="900" fromJunction="J3" toJunction="J2" end="960" vehsPerHour="35.816226880725914"/>
  <flow id="JF89829" begin="900" fromJunction="J3" toJunction="J4" end="960" vehsPerHour="47.83122033536225"/>
  <flow id="JF89830" begin="960" fromJunction="J0" toJunction="J3" end="1020" vehsPerHour="153.869631506617"/>
  <flow id="JF89831" begin="960" fromJunction="J3" toJunction="J0" end="1020" vehsPerHour="99.06761908802996"/>
  <flow id="JF89832" begin="960" fromJunction="J0" toJunction="J2" end="1020" vehsPerHour="117.3602297271836"/>
  <flow id="JF89833" begin="960" fromJunction="J0" toJunction="J4" end="1020" vehsPerHour="73.0125305114398"/>
  <flow id="JF89834" begin="960" fromJunction="J3" toJunction="J2" end="1020" vehsPerHour="115.29166150414115"/>
  <flow id="JF89835" begin="960" fromJunction="J3" toJunction="J4" end="1020" vehsPerHour="27.47005884455362"/>
  <flow id="JF89836" begin="960" fromJunction="J2" toJunction="J4" end="1020" vehsPerHour="129.5414432576914"/>
  <flow id="JF89837" begin="960" fromJunction="J4" toJunction="J2" end="1020" vehsPerHour="83.67234104053851"/>
  <flow id="JF89838" begin="960" fromJunction="J2" toJunction="J0" end="1020" vehsPerHour="17.434621014520463"/>
  <flow id="JF89839" begin="960" fromJunction="J2" toJunction="J3" end="1020" vehsPerHour="55.68172981843699"/>
  <flow id="JF89840" begin="960" fromJunction="J4" toJunction="J0" end="1020" vehsPerHour="121.15380743638684"/>
  <flow id="JF89841" begin="960" fromJunction="J4" toJunction="J3" end="1020" vehsPerHour="40.02840711212728"/>
  <flow id="JF89842" begin="1020" fromJunction="J0" toJunction="J3" end="1080" vehsPerHour="336.08349134707476"/>
  <flow id="JF89843" begin="1020" fromJunction="J3" toJunction="J0" end="1080" vehsPerHour="246.8566347488882"/>
  <flow id="JF89844" begin="1020" fromJunction="J0" toJunction="J2" end="1080" vehsPerHour="52.03394056202629"/>
  <flow id="JF89845" begin="1020" fromJunction="J0" toJunction="J4" end="1080" vehsPerHour="99.27670778852158"/>
  <flow id="JF89846" begin="1020" fromJunction="J3" toJunction="J2" end="1080" vehsPerHour="25.624307049589444"/>
  <flow id="JF89847" begin="1020" fromJunction="J3" toJunction="J4" end="1080" vehsPerHour="101.74989594742482"/>
  <flow id="JF89848" begin="1080" fromJunction="J0" toJunction="J3" end="1140" vehsPerHour="423.9429668149665"/>
  <flow id="JF89849" begin="1080" fromJunction="J3" toJunction="J0" end="1140" vehsPerHour="427.1974579555754"/>
  <flow id="JF89850" begin="1080" fromJunction="J0" toJunction="J2" end="1140" vehsPerHour="50.76857979066073"/>
  <flow id="JF89851" begin="1080" fromJunction="J0" toJunction="J4" end="1140" vehsPerHour="109.24276829609867"/>
  <flow id="JF89852" begin="1080" fromJunction="J3" toJunction="J2" end="1140" vehsPerHour="89.6659676198249"/>
  <flow id="JF89853" begin="1080" fromJunction="J3" toJunction="J4" end="1140" vehsPerHour="109.87537091839393"/>
  <flow id="JF89854" begin="1080" fromJunction="J2" toJunction="J4" end="1140" vehsPerHour="33.27002886670506"/>
  <flow id="JF89855" begin="1080" fromJunction="J4" toJunction="J2" end="1140" vehsPerHour="103.60646156973998"/>
  <flow id="JF89856" begin="1080" fromJunction="J2" toJunction="J0" end="1140" vehsPerHour="31.436444927171436"/>
  <flow id="JF89857" begin="1080" fromJunction="J2" toJunction="J3" end="1140" vehsPerHour="35.648572044871194"/>
  <flow id="JF89858" begin="1080" fromJunction="J4" toJunction="J0" end="1140" vehsPerHour="45.655900532296975"/>
  <flow id="JF89859" begin="1080" fromJunction="J4" toJunction="J3" end="1140" vehsPerHour="67.68277620681096"/>
  <flow id="JF89860" begin="1140" fromJunction="J0" toJunction="J3" end="1200" vehsPerHour="137.57008518697938"/>
  <flow id="JF89861" begin="1140" fromJunction="J3" toJunction="J0" end="1200" vehsPerHour="447.95871105117"/>
  <flow id="JF89862" begin="1140" fromJunction="J0" toJunction="J2" end="1200" vehsPerHour="104.99094564468925"/>
  <flow id="JF89863" begin="1140" fromJunction="J0" toJunction="J4" end="1200" vehsPerHour="99.62775237214333"/>
  <flow id="JF89864" begin="1140" fromJunction="J3" toJunction="J2" end="1200" vehsPerHour="111.76328638115943"/>
  <flow id="JF89865" begin="1140" fromJunction="J3" toJunction="J4" end="1200" vehsPerHour="90.68036327525579"/>
  <flow id="JF89866" begin="1140" fromJunction="J2" toJunction="J4" end="1200" vehsPerHour="64.17582427097534"/>
  <flow id="JF89867" begin="1140" fromJunction="J4" toJunction="J2" end="1200" vehsPerHour="84.2501333996001"/>
  <flow id="JF89868" begin="1140" fromJunction="J2" toJunction="J0" end="1200" vehsPerHour="92.22244247776675"/>
  <flow id="JF89869" begin="1140" fromJunction="J2" toJunction="J3" end="1200" vehsPerHour="93.78306881918242"/>
  <flow id="JF89870" begin="1140" fromJunction="J4" toJunction="J0" end="1200" vehsPerHour="7.139894445139976"/>
  <flow id="JF89871" begin="1140" fromJunction="J4" toJunction="J3" end="1200" vehsPerHour="67.90489082385928"/>
  <flow id="JF89872" begin="1200" fromJunction="J0" toJunction="J3" end="1260" vehsPerHour="200.0481376602039"/>
  <flow id="JF89873" begin="1200" fromJunction="J3" toJunction="J0" end="1260" vehsPerHour="268.7197399445435"/>
  <flow id="JF89874" begin="1200" fromJunction="J0" toJunction="J2" end="1260" vehsPerHour="58.68942699742733"/>
  <flow id="JF89875" begin="1200" fromJunction="J0" toJunction="J4" end="1260" vehsPerHour="98.30163375721052"/>
  <flow id="JF89876" begin="1200" fromJunction="J3" toJunction="J2" end="1260" vehsPerHour="57.48840389994315"/>
  <flow id="JF89877" begin="1200" fromJunction="J3" toJunction="J4" end="1260" vehsPerHour="55.720321982446954"/>
  <flow id="JF89878" begin="1260" fromJunction="J0" toJunction="J3" end="1320" vehsPerHour="404.45600408600274"/>
  <flow id="JF89879" begin="1260" fromJunction="J3" toJunction="J0" end="1320" vehsPerHour="549.1090891555791"/>
  <flow id="JF89880" begin="1260" fromJunction="J0" toJunction="J2" end="1320" vehsPerHour="49.39625817092224"/>
  <flow id="JF89881" begin="1260" fromJunction="J0" toJunction="J4" end="1320" vehsPerHour="67.87518438133323"/>
  <flow id="JF89882" begin="1260" fromJunction="J3" toJunction="J2" end="1320" vehsPerHour="64.2570516218667"/>
  <flow id="JF89883" begin="1260" fromJunction="J3" toJunction="J4" end="1320" vehsPerHour="131.66181227465316"/>
  <flow id="JF89884" begin="1260" fromJunction="J2" toJunction="J4" end="1320" vehsPerHour="91.33644389608371"/>
  <flow id="JF89885" begin="1260" fromJunction="J4" toJunction="J2" end="1320" vehsPerHour="10.182251789181485"/>
  <flow id="JF89886" begin="1260" fromJunction="J2" toJunction="J0" end="1320" vehsPerHour="102.09742711027965"/>
  <flow id="JF89887" begin="1260" fromJunction="J2" toJunction="J3" end="1320" vehsPerHour="45.38418660189208"/>
  <flow id="JF89888" begin="1260" fromJunction="J4" toJunction="J0" end="1320" vehsPerHour="90.368223217229"/>
  <flow id="JF89889" begin="1260" fromJunction="J4" toJunction="J3" end="1320" vehsPerHour="120.83195516707426"/>
  <flow id="JF89890" begin="1320" fromJunction="J0" toJunction="J3" end="1380" vehsPerHour="415.6399556826953"/>
  <flow id="JF89891" begin="1320" fromJunction="J3" toJunction="J0" end="1380" vehsPerHour="338.27861966387724"/>
  <flow id="JF89892" begin="1320" fromJunction="J0" toJunction="J2" end="1380" vehsPerHour="75.78886331180303"/>
  <flow id="JF89893" begin="1320" fromJunction="J0" toJunction="J4" end="1380" vehsPerHour="109.81280245652188"/>
  <flow id="JF89894" begin="1320" fromJunction="J3" toJunction="J2" end="1380" vehsPerHour="87.58962523205321"/>
  <flow id="JF89895" begin="1320" fromJunction="J3" toJunction="J4" end="1380" vehsPerHour="12.782012866166525"/>
  <flow id="JF89896" begin="1320" fromJunction="J2" toJunction="J4" end="1380" vehsPerHour="10.189081319158841"/>
  <flow id="JF89897" begin="1320" fromJunction="J4" toJunction="J2" end="1380" vehsPerHour="103.90583842550015"/>
  <flow id="JF89898" begin="1320" fromJunction="J2" toJunction="J0" end="1380" vehsPerHour="86.82256743612096"/>
  <flow id="JF89899" begin="1320" fromJunction="J2" toJunction="J3" end="1380" vehsPerHour="118.73150953027684"/>
  <flow id="JF89900" begin="1320" fromJunction="J4" toJunction="J0" end="1380" vehsPerHour="104.78705127534907"/>
  <flow id="JF89901" begin="1320" fromJunction="J4" toJunction="J3" end="1380" vehsPerHour="123.19573169491942"/>
  <flow id="JF89902" begin="1380" fromJunction="J0" toJunction="J3" end="1440" vehsPerHour="146.60081807464778"/>
  <flow id="JF89903" begin="1380" fromJunction="J3" toJunction="J0" end="1440" vehsPerHour="245.0442065764255"/>
  <flow id="JF89904" begin="1380" fromJunction="J0" toJunction="J2" end="1440" vehsPerHour="122.97522812147585"/>
  <flow id="JF89905" begin="1380" fromJunction="J0" toJunction="J4" end="1440" vehsPerHour="131.54056476578293"/>
  <flow id="JF89906" begin="1380" fromJunction="J3" toJunction="J2" end="1440" vehsPerHour="116.48553630167822"/>
  <flow id="JF89907" begin="1380" fromJunction="J3" toJunction="J4" end="1440" vehsPerHour="38.54935877762719"/>
  <flow id="JF89908" begin="1380" fromJunction="J2" toJunction="J4" end="1440" vehsPerHour="41.73632105069034"/>
  <flow id="JF89909" begin="1380" fromJunction="J4" toJunction="J2" end="1440" vehsPerHour="71.6472836882148"/>
  <flow id="JF89910" begin="1380" fromJunction="J2" toJunction="J0" end="1440" vehsPerHour="92.30020679249026"/>
  <flow id="JF89911" begin="1380" fromJunction="J2" toJunction="J3" end="1440" vehsPerHour="17.316336318712782"/>
  <flow id="JF89912" begin="1380" fromJunction="J4" toJunction="J0" end="1440" vehsPerHour="9.16741195113711"/>
  <flow id="JF89913" begin="1380" fromJunction="J4" toJunction="J3" end="1440" vehsPerHour="86.17615080473156"/>
  <flow id="JF89914" begin="1440" fromJunction="J0" toJunction="J3" end="1500" vehsPerHour="522.7023198293736"/>
  <flow id="JF89915" begin="1440" fromJunction="J3" toJunction="J0" end="1500" vehsPerHour="147.3338474684215"/>
  <flow id="JF89916" begin="1440" fromJunction="J0" toJunction="J2" end="1500" vehsPerHour="72.85867356375772"/>
  <flow id="JF89917" begin="1440" fromJunction="J0" toJunction="J4" end="1500" vehsPerHour="39.689570154040936"/>
  <flow id="JF89918" begin="1440" fromJunction="J3" toJunction="J2" end="1500" vehsPerHour="59.90848972180936"/>
  <flow id="JF89919" begin="1440" fromJunction="J3" toJunction="J4" end="1500" vehsPerHour="127.35165275442655"/>
  <flow id="JF89920" begin="1440" fromJunction="J2" toJunction="J4" end="1500" vehsPerHour="18.327470529177862"/>
  <flow id="JF89921" begin="1440" fromJunction="J4" toJunction="J2" end="1500" vehsPerHour="0.6786330967199115"/>