<?xml version="1.0" encoding="UTF-8"?>
<routes xmlns:xsi="http://www.w3.org/2001/XMLSchema-instance" xsi:noNamespaceSchemaLocation="http://sumo.dlr.de/xsd/routes_file.xsd">
  <flow id="JF84466" begin="0" fromJunction="J0" toJunction="J3" end="60" vehsPerHour="241.94317950882188"/>
  <flow id="JF84467" begin="0" fromJunction="J3" toJunction="J0" end="60" vehsPerHour="152.1593966322519"/>
  <flow id="JF84468" begin="0" fromJunction="J0" toJunction="J2" end="60" vehsPerHour="3.494459434495087"/>
  <flow id="JF84469" begin="0" fromJunction="J0" toJunction="J4" end="60" vehsPerHour="13.834254443908222"/>
  <flow id="JF84470" begin="0" fromJunction="J3" toJunction="J2" end="60" vehsPerHour="42.55189211542049"/>
  <flow id="JF84471" begin="0" fromJunction="J3" toJunction="J4" end="60" vehsPerHour="37.72560224451548"/>
  <flow id="JF84472" begin="0" fromJunction="J2" toJunction="J4" end="60" vehsPerHour="63.00564695070238"/>
  <flow id="JF84473" begin="0" fromJunction="J4" toJunction="J2" end="60" vehsPerHour="4.716044662208749"/>
  <flow id="JF84474" begin="0" fromJunction="J2" toJunction="J0" end="60" vehsPerHour="20.807460387685985"/>
  <flow id="JF84475" begin="0" fromJunction="J2" toJunction="J3" end="60" vehsPerHour="119.32746907303812"/>
  <flow id="JF84476" begin="0" fromJunction="J4" toJunction="J0" end="60" vehsPerHour="12.054876527995738"/>
  <flow id="JF84477" begin="0" fromJunction="J4" toJunction="J3" end="60" vehsPerHour="88.18464456228261"/>
  <flow id="JF84478" begin="60" fromJunction="J0" toJunction="J3" end="120" vehsPerHour="152.01684769068214"/>
  <flow id="JF84479" begin="60" fromJunction="J3" toJunction="J0" end="120" vehsPerHour="286.3849432333746"/>
  <flow id="JF84480" begin="60" fromJunction="J0" toJunction="J2" end="120" vehsPerHour="24.719218110448153"/>
  <flow id="JF84481" begin="60" fromJunction="J0" toJunction="J4" end="120" vehsPerHour="0.030763958861887587"/>
  <flow id="JF84482" begin="60" fromJunction="J3" toJunction="J2" end="120" vehsPerHour="64.80969285513105"/>
  <flow id="JF84483" begin="60" fromJunction="J3" toJunction="J4" end="120" vehsPerHour="20.412500605809342"/>
  <flow id="JF84484" begin="120" fromJunction="J0" toJunction="J3" end="180" vehsPerHour="425.10054308446945"/>
  <flow id="JF84485" begin="120" fromJunction="J3" toJunction="J0" end="180" vehsPerHour="445.52401021364267"/>
  <flow id="JF84486" begin="120" fromJunction="J0" toJunction="J2" end="180" vehsPerHour="43.13756094273825"/>
  <flow id="JF84487" begin="120" fromJunction="J0" toJunction="J4" end="180" vehsPerHour="23.51427939676352"/>
  <flow id="JF84488" begin="120" fromJunction="J3" toJunction="J2" end="180" vehsPerHour="129.2379090266047"/>
  <flow id="JF84489" begin="120" fromJunction="J3" toJunction="J4" end="180" vehsPerHour="53.00014649737154"/>
  <flow id="JF84490" begin="120" fromJunction="J2" toJunction="J4" end="180" vehsPerHour="98.16307684507755"/>
  <flow id="JF84491" begin="120" fromJunction="J4" toJunction="J2" end="180" vehsPerHour="21.712208045681766"/>
  <flow id="JF84492" begin="120" fromJunction="J2" toJunction="J0" end="180" vehsPerHour="66.99178276587587"/>
  <flow id="JF84493" begin="120" fromJunction="J2" toJunction="J3" end="180" vehsPerHour="122.94477459579218"/>
  <flow id="JF84494" begin="120" fromJunction="J4" toJunction="J0" end="180" vehsPerHour="63.123092144348156"/>
  <flow id="JF84495" begin="120" fromJunction="J4" toJunction="J3" end="180" vehsPerHour="137.04584427920946"/>
  <flow id="JF84496" begin="180" fromJunction="J0" toJunction="J3" end="240" vehsPerHour="336.4776029859351"/>
  <flow id="JF84497" begin="180" fromJunction="J3" toJunction="J0" end="240" vehsPerHour="372.79031257919723"/>
  <flow id="JF84498" begin="180" fromJunction="J0" toJunction="J2" end="240" vehsPerHour="104.50113216983189"/>
  <flow id="JF84499" begin="180" fromJunction="J0" toJunction="J4" end="240" vehsPerHour="125.32460357628767"/>
  <flow id="JF84500" begin="180" fromJunction="J3" toJunction="J2" end="240" vehsPerHour="127.0248174377924"/>
  <flow id="JF84501" begin="180" fromJunction="J3" toJunction="J4" end="240" vehsPerHour="95.21317742021665"/>
  <flow id="JF84502" begin="180" fromJunction="J2" toJunction="J4" end="240" vehsPerHour="59.68158403349111"/>
  <flow id="JF84503" begin="180" fromJunction="J4" toJunction="J2" end="240" vehsPerHour="87.39468304372737"/>
  <flow id="JF84504" begin="180" fromJunction="J2" toJunction="J0" end="240" vehsPerHour="55.894966301061345"/>
  <flow id="JF84505" begin="180" fromJunction="J2" toJunction="J3" end="240" vehsPerHour="31.85459532522603"/>
  <flow id="JF84506" begin="180" fromJunction="J4" toJunction="J0" end="240" vehsPerHour="4.335298992539803"/>
  <flow id="JF84507" begin="180" fromJunction="J4" toJunction="J3" end="240" vehsPerHour="21.7734874196422"/>
  <flow id="JF84508" begin="240" fromJunction="J0" toJunction="J3" end="300" vehsPerHour="320.025327337236"/>
  <flow id="JF84509" begin="240" fromJunction="J3" toJunction="J0" end="300" vehsPerHour="37.00024209727551"/>
  <flow id="JF84510" begin="240" fromJunction="J0" toJunction="J2" end="300" vehsPerHour="88.71254672859575"/>
  <flow id="JF84511" begin="240" fromJunction="J0" toJunction="J4" end="300" vehsPerHour="46.10298197090691"/>
  <flow id="JF84512" begin="240" fromJunction="J3" toJunction="J2" end="300" vehsPerHour="84.21939865967433"/>
  <flow id="JF84513" begin="240" fromJunction="J3" toJunction="J4" end="300" vehsPerHour="67.48108327007382"/>
  <flow id="JF84514" begin="240" fromJunction="J2" toJunction="J4" end="300" vehsPerHour="58.242145722930886"/>
  <flow id="JF84515" begin="240" fromJunction="J4" toJunction="J2" end="300" vehsPerHour="64.27129829952462"/>
  <flow id="JF84516" begin="240" fromJunction="J2" toJunction="J0" end="300" vehsPerHour="2.2230293183033574"/>
  <flow id="JF84517" begin="240" fromJunction="J2" toJunction="J3" end="300" vehsPerHour="71.50502236433866"/>
  <flow id="JF84518" begin="240" fromJunction="J4" toJunction="J0" end="300" vehsPerHour="111.24985559262684"/>
  <flow id="JF84519" begin="240" fromJunction="J4" toJunction="J3" end="300" vehsPerHour="83.59666118262872"/>
  <flow id="JF84520" begin="300" fromJunction="J0" toJunction="J3" end="360" vehsPerHour="491.4951258384506"/>
  <flow id="JF84521" begin="300" fromJunction="J3" toJunction="J0" end="360" vehsPerHour="506.4709196542369"/>
  <flow id="JF84522" begin="300" fromJunction="J0" toJunction="J2" end="360" vehsPerHour="5.453488315156429"/>
  <flow id="JF84523" begin="300" fromJunction="J0" toJunction="J4" end="360" vehsPerHour="31.312922866087668"/>
  <flow id="JF84524" begin="300" fromJunction="J3" toJunction="J2" end="360" vehsPerHour="17.061582769377615"/>
  <flow id="JF84525" begin="300" fromJunction="J3" toJunction="J4" end="360" vehsPerHour="52.350901147752765"/>
  <flow id="JF84526" begin="300" fromJunction="J2" toJunction="J4" end="360" vehsPerHour="13.367469233720131"/>
  <flow id="JF84527" begin="300" fromJunction="J4" toJunction="J2" end="360" vehsPerHour="24.86078836436974"/>
  <flow id="JF84528" begin="300" fromJunction="J2" toJunction="J0" end="360" vehsPerHour="128.53855291270267"/>
  <flow id="JF84529" begin="300" fromJunction="J2" toJunction="J3" end="360" vehsPerHour="129.51483418419656"/>
  <flow id="JF84530" begin="300" fromJunction="J4" toJunction="J0" end="360" vehsPerHour="50.643154253865454"/>
  <flow id="JF84531" begin="300" fromJunction="J4" toJunction="J3" end="360" vehsPerHour="88.48479522942124"/>
  <flow id="JF84532" begin="360" fromJunction="J0" toJunction="J3" end="420" vehsPerHour="268.28795270239146"/>
  <flow id="JF84533" begin="360" fromJunction="J3" toJunction="J0" end="420" vehsPerHour="60.81477868100466"/>
  <flow id="JF84534" begin="360" fromJunction="J0" toJunction="J2" end="420" vehsPerHour="17.796945285070578"/>
  <flow id="JF84535" begin="360" fromJunction="J0" toJunction="J4" end="420" vehsPerHour="117.08031787471296"/>
  <flow id="JF84536" begin="360" fromJunction="J3" toJunction="J2" end="420" vehsPerHour="41.667086748673405"/>
  <flow id="JF84537" begin="360" fromJunction="J3" toJunction="J4" end="420" vehsPerHour="117.90472351294764"/>
  <flow id="JF84538" begin="420" fromJunction="J0" toJunction="J3" end="480" vehsPerHour="58.63936636515087"/>
  <flow id="JF84539" begin="420" fromJunction="J3" toJunction="J0" end="480" vehsPerHour="102.64781379372246"/>
  <flow id="JF84540" begin="420" fromJunction="J0" toJunction="J2" end="480" vehsPerHour="84.65627603333573"/>
  <flow id="JF84541" begin="420" fromJunction="J0" toJunction="J4" end="480" vehsPerHour="126.283799656814"/>
  <flow id="JF84542" begin="420" fromJunction="J3" toJunction="J2" end="480" vehsPerHour="29.337888527102084"/>
  <flow id="JF84543" begin="420" fromJunction="J3" toJunction="J4" end="480" vehsPerHour="27.45101199681055"/>
  <flow id="JF84544" begin="420" fromJunction="J2" toJunction="J4" end="480" vehsPerHour="119.55107465246077"/>
  <flow id="JF84545" begin="420" fromJunction="J4" toJunction="J2" end="480" vehsPerHour="22.580247838347205"/>
  <flow id="JF84546" begin="420" fromJunction="J2" toJunction="J0" end="480" vehsPerHour="112.33224194488615"/>
  <flow id="JF84547" begin="420" fromJunction="J2" toJunction="J3" end="480" vehsPerHour="16.590837040017075"/>
  <flow id="JF84548" begin="420" fromJunction="J4" toJunction="J0" end="480" vehsPerHour="40.660721628014656"/>
  <flow id="JF84549" begin="420" fromJunction="J4" toJunction="J3" end="480" vehsPerHour="84.70717332063225"/>
  <flow id="JF84550" begin="480" fromJunction="J0" toJunction="J3" end="540" vehsPerHour="259.7447797120375"/>
  <flow id="JF84551" begin="480" fromJunction="J3" toJunction="J0" end="540" vehsPerHour="93.2002353826377"/>
  <flow id="JF84552" begin="480" fromJunction="J0" toJunction="J2" end="540" vehsPerHour="71.10596492884473"/>
  <flow id="JF84553" begin="480" fromJunction="J0" toJunction="J4" end="540" vehsPerHour="96.67498488610701"/>
  <flow id="JF84554" begin="480" fromJunction="J3" toJunction="J2" end="540" vehsPerHour="75.87185814800766"/>
  <flow id="JF84555" begin="480" fromJunction="J3" toJunction="J4" end="540" vehsPerHour="65.8938443969846"/>
  <flow id="JF84556" begin="540" fromJunction="J0" toJunction="J3" end="600" vehsPerHour="106.58042260340162"/>
  <flow id="JF84557" begin="540" fromJunction="J3" toJunction="J0" end="600" vehsPerHour="39.72341868188334"/>
  <flow id="JF84558" begin="540" fromJunction="J0" toJunction="J2" end="600" vehsPerHour="78.29390637094781"/>
  <flow id="JF84559" begin="540" fromJunction="J0" toJunction="J4" end="600" vehsPerHour="51.78463592401041"/>
  <flow id="JF84560" begin="540" fromJunction="J3" toJunction="J2" end="600" vehsPerHour="31.668867939375275"/>
  <flow id="JF84561" begin="540" fromJunction="J3" toJunction="J4" end="600" vehsPerHour="73.26624749794574"/>
  <flow id="JF84562" begin="540" fromJunction="J2" toJunction="J4" end="600" vehsPerHour="32.48152498382025"/>
  <flow id="JF84563" begin="540" fromJunction="J4" toJunction="J2" end="600" vehsPerHour="126.54292695616321"/>
  <flow id="JF84564" begin="540" fromJunction="J2" toJunction="J0" end="600" vehsPerHour="17.886040757424063"/>
  <flow id="JF84565" begin="540" fromJunction="J2" toJunction="J3" end="600" vehsPerHour="101.09967644574421"/>
  <flow id="JF84566" begin="540" fromJunction="J4" toJunction="J0" end="600" vehsPerHour="31.084552755630067"/>
  <flow id="JF84567" begin="540" fromJunction="J4" toJunction="J3" end="600" vehsPerHour="58.055486712246484"/>
  <flow id="JF84568" begin="600" fromJunction="J0" toJunction="J3" end="660" vehsPerHour="133.01598761713234"/>
  <flow id="JF84569" begin="600" fromJunction="J3" toJunction="J0" end="660" vehsPerHour="17.40647564331825"/>
  <flow id="JF84570" begin="600" fromJunction="J0" toJunction="J2" end="660" vehsPerHour="50.29759285722412"/>
  <flow id="JF84571" begin="600" fromJunction="J0" toJunction="J4" end="660" vehsPerHour="90.20049000438601"/>
  <flow id="JF84572" begin="600" fromJunction="J3" toJunction="J2" end="660" vehsPerHour="103.04257154676347"/>
  <flow id="JF84573" begin="600" fromJunction="J3" toJunction="J4" end="660" vehsPerHour="131.75697425818348"/>
  <flow id="JF84574" begin="600" fromJunction="J2" toJunction="J4" end="660" vehsPerHour="116.8719468661693"/>
  <flow id="JF84575" begin="600" fromJunction="J4" toJunction="J2" end="660" vehsPerHour="114.42081101564541"/>
  <flow id="JF84576" begin="600" fromJunction="J2" toJunction="J0" end="660" vehsPerHour="70.46561382231678"/>
  <flow id="JF84577" begin="600" fromJunction="J2" toJunction="J3" end="660" vehsPerHour="83.30170085443002"/>
  <flow id="JF84578" begin="600" fromJunction="J4" toJunction="J0" end="660" vehsPerHour="103.0916071693647"/>
  <flow id="JF84579" begin="600" fromJunction="J4" toJunction="J3" end="660" vehsPerHour="79.15062461933115"/>
  <flow id="JF84580" begin="660" fromJunction="J0" toJunction="J3" end="720" vehsPerHour="108.19282347753852"/>
  <flow id="JF84581" begin="660" fromJunction="J3" toJunction="J0" end="720" vehsPerHour="454.1689823160328"/>
  <flow id="JF84582" begin="660" fromJunction="J0" toJunction="J2" end="720" vehsPerHour="97.6620116714804"/>
  <flow id="JF84583" begin="660" fromJunction="J0" toJunction="J4" end="720" vehsPerHour="97.38298185088479"/>
  <flow id="JF84584" begin="660" fromJunction="J3" toJunction="J2" end="720" vehsPerHour="135.11596940179376"/>
  <flow id="JF84585" begin="660" fromJunction="J3" toJunction="J4" end="720" vehsPerHour="19.618928666580757"/>
  <flow id="JF84586" begin="720" fromJunction="J0" toJunction="J3" end="780" vehsPerHour="397.1768694132477"/>
  <flow id="JF84587" begin="720" fromJunction="J3" toJunction="J0" end="780" vehsPerHour="11.146625867791554"/>
  <flow id="JF84588" begin="720" fromJunction="J0" toJunction="J2" end="780" vehsPerHour="78.98854796944377"/>
  <flow id="JF84589" begin="720" fromJunction="J0" toJunction="J4" end="780" vehsPerHour="59.64715274317033"/>
  <flow id="JF84590" begin="720" fromJunction="J3" toJunction="J2" end="780" vehsPerHour="121.33702525457532"/>
  <flow id="JF84591" begin="720" fromJunction="J3" toJunction="J4" end="780" vehsPerHour="91.09686131897848"/>
  <flow id="JF84592" begin="780" fromJunction="J0" toJunction="J3" end="840" vehsPerHour="424.8097085668268"/>
  <flow id="JF84593" begin="780" fromJunction="J3" toJunction="J0" end="840" vehsPerHour="500.03274405857184"/>
  <flow id="JF84594" begin="780" fromJunction="J0" toJunction="J2" end="840" vehsPerHour="76.28436851909271"/>
  <flow id="JF84595" begin="780" fromJunction="J0" toJunction="J4" end="840" vehsPerHour="20.33134426288898"/>
  <flow id="JF84596" begin="780" fromJunction="J3" toJunction="J2" end="840" vehsPerHour="111.03440971220529"/>
  <flow id="JF84597" begin="780" fromJunction="J3" toJunction="J4" end="840" vehsPerHour="122.4954660088692"/>
  <flow id="JF84598" begin="780" fromJunction="J2" toJunction="J4" end="840" vehsPerHour="106.63534029337434"/>
  <flow id="JF84599" begin="780" fromJunction="J4" toJunction="J2" end="840" vehsPerHour="114.47956654736046"/>
  <flow id="JF84600" begin="780" fromJunction="J2" toJunction="J0" end="840" vehsPerHour="5.39095263455808"/>
  <flow id="JF84601" begin="780" fromJunction="J2" toJunction="J3" end="840" vehsPerHour="46.877878223849514"/>
  <flow id="JF84602" begin="780" fromJunction="J4" toJunction="J0" end="840" vehsPerHour="1.9886903016654027"/>
  <flow id="JF84603" begin="780" fromJunction="J4" toJunction="J3" end="840" vehsPerHour="61.90510910189093"/>
  <flow id="JF84604" begin="840" fromJunction="J0" toJunction="J3" end="900" vehsPerHour="501.4419617076417"/>
  <flow id="JF84605" begin="840" fromJunction="J3" toJunction="J0" end="900" vehsPerHour="274.14216976527996"/>
  <flow id="JF84606" begin="840" fromJunction="J0" toJunction="J2" end="900" vehsPerHour="106.38070729277617"/>
  <flow id="JF84607" begin="840" fromJunction="J0" toJunction="J4" end="900" vehsPerHour="85.01667812273713"/>
  <flow id="JF84608" begin="840" fromJunction="J3" toJunction="J2" end="900" vehsPerHour="14.22780095623358"/>
  <flow id="JF84609" begin="840" fromJunction="J3" toJunction="J4" end="900" vehsPerHour="19.221983337594175"/>
  <flow id="JF84610" begin="840" fromJunction="J2" toJunction="J4" end="900" vehsPerHour="34.665451880896754"/>
  <flow id="JF84611" begin="840" fromJunction="J4" toJunction="J2" end="900" vehsPerHour="49.60571359547773"/>
  <flow id="JF84612" begin="840" fromJunction="J2" toJunction="J0" end="900" vehsPerHour="39.792199007625925"/>
  <flow id="JF84613" begin="840" fromJunction="J2" toJunction="J3" end="900" vehsPerHour="110.888639946227"/>
  <flow id="JF84614" begin="840" fromJunction="J4" toJunction="J0" end="900" vehsPerHour="55.93110091650305"/>
  <flow id="JF84615" begin="840" fromJunction="J4" toJunction="J3" end="900" vehsPerHour="81.74050830451412"/>
  <flow id="JF84616" begin="900" fromJunction="J0" toJunction="J3" end="960" vehsPerHour="267.68739324691626"/>
  <flow id="JF84617" begin="900" fromJunction="J3" toJunction="J0" end="960" vehsPerHour="396.43245075822756"/>
  <flow id="JF84618" begin="900" fromJunction="J0" toJunction="J2" end="960" vehsPerHour="91.32860456164647"/>
  <flow id="JF84619" begin="900" fromJunction="J0" toJunction="J4" end="960" vehsPerHour="107.25161502336822"/>
  <flow id="JF84620" begin="900" fromJunction="J3" toJunction="J2" end="960" vehsPerHour="47.35863141853044"/>
  <flow id="JF84621" begin="900" fromJunction="J3" toJunction="J4" end="960" vehsPerHour="118.0647687939473"/>
  <flow id="JF84622" begin="900" fromJunction="J2" toJunction="J4" end="960" vehsPerHour="90.75362976827579"/>
  <flow id="JF84623" begin="900" fromJunction="J4" toJunction="J2" end="960" vehsPerHour="64.25031036920372"/>
  <flow id="JF84624" begin="900" fromJunction="J2" toJunction="J0" end="960" vehsPerHour="134.99640131881844"/>
  <flow id="JF84625" begin="900" fromJunction="J2" toJunction="J3" end="960" vehsPerHour="50.58437072772746"/>
  <flow id="JF84626" begin="900" fromJunction="J4" toJunction="J0" end="960" vehsPerHour="55.15027642460435"/>
  <flow id="JF84627" begin="900" fromJunction="J4" toJunction="J3" end="960" vehsPerHour="50.26208385097433"/>
  <flow id="JF84628" begin="960" fromJunction="J0" toJunction="J3" end="1020" vehsPerHour="137.70032525500736"/>
  <flow id="JF84629" begin="960" fromJunction="J3" toJunction="J0" end="1020" vehsPerHour="182.4657712590178"/>
  <flow id="JF84630" begin="960" fromJunction="J0" toJunction="J2" end="1020" vehsPerHour="48.76652737204233"/>
  <flow id="JF84631" begin="960" fromJunction="J0" toJunction="J4" end="1020" vehsPerHour="120.25636601847438"/>
  <flow id="JF84632" begin="960" fromJunction="J3" toJunction="J2" end="1020" vehsPerHour="119.45263554996723"/>
  <flow id="JF84633" begin="960" fromJunction="J3" toJunction="J4" end="1020" vehsPerHour="49.89204692087137"/>
  <flow id="JF84634" begin="960" fromJunction="J2" toJunction="J4" end="1020" vehsPerHour="7.314184388744291"/>
  <flow id="JF84635" begin="960" fromJunction="J4" toJunction="J2" end="1020" vehsPerHour="105.41089031302975"/>
  <flow id="JF84636" begin="960" fromJunction="J2" toJunction="J0" end="1020" vehsPerHour="120.84771478846852"/>
  <flow id="JF84637" begin="960" fromJunction="J2" toJunction="J3" end="1020" vehsPerHour="84.03117286222202"/>
  <flow id="JF84638" begin="960" fromJunction="J4" toJunction="J0" end="1020" vehsPerHour="136.3961626990345"/>
  <flow id="JF84639" begin="960" fromJunction="J4" toJunction="J3" end="1020" vehsPerHour="47.88314204285276"/>
  <flow id="JF84640" begin="1020" fromJunction="J0" toJunction="J3" end="1080" vehsPerHour="434.72833566905973"/>
  <flow id="JF84641" begin="1020" fromJunction="J3" toJunction="J0" end="1080" vehsPerHour="69.30347602923825"/>
  <flow id="JF84642" begin="1020" fromJunction="J0" toJunction="J2" end="1080" vehsPerHour="15.045835662916941"/>
  <flow id="JF84643" begin="1020" fromJunction="J0" toJunction="J4" end="1080" vehsPerHour="61.69449572898462"/>
  <flow id="JF84644" begin="1020" fromJunction="J3" toJunction="J2" end="1080" vehsPerHour="40.13268854906065"/>
  <flow id="JF84645" begin="1020" fromJunction="J3" toJunction="J4" end="1080" vehsPerHour="65.72488105243472"/>
  <flow id="JF84646" begin="1020" fromJunction="J2" toJunction="J4" end="1080" vehsPerHour="114.18935695953195"/>
  <flow id="JF84647" begin="1020" fromJunction="J4" toJunction="J2" end="1080" vehsPerHour="134.68000749018788"/>
  <flow id="JF84648" begin="1020" fromJunction="J2" toJunction="J0" end="1080" vehsPerHour="53.34104472708084"/>
  <flow id="JF84649" begin="1020" fromJunction="J2" toJunction="J3" end="1080" vehsPerHour="50.379579656326904"/>
  <flow id="JF84650" begin="1020" fromJunction="J4" toJunction="J0" end="1080" vehsPerHour="38.62536059533004"/>
  <flow id="JF84651" begin="1020" fromJunction="J4" toJunction="J3" end="1080" vehsPerHour="62.356562518592824"/>
  <flow id="JF84652" begin="1080" fromJunction="J0" toJunction="J3" end="1140" vehsPerHour="274.27752267535897"/>
  <flow id="JF84653" begin="1080" fromJunction="J3" toJunction="J0" end="1140" vehsPerHour="339.9295259452091"/>
  <flow id="JF84654" begin="1080" fromJunction="J0" toJunction="J2" end="1140" vehsPerHour="46.5124984795663"/>
  <flow id="JF84655" begin="1080" fromJunction="J0" toJunction="J4" end="1140" vehsPerHour="87.82881789471452"/>
  <flow id="JF84656" begin="1080" fromJunction="J3" toJunction="J2" end="1140" vehsPerHour="104.16736990337138"/>
  <flow id="JF84657" begin="1080" fromJunction="J3" toJunction="J4" end="1140" vehsPerHour="112.40246081920351"/>
  <flow id="JF84658" begin="1080" fromJunction="J2" toJunction="J4" end="1140" vehsPerHour="112.9389881256729"/>
  <flow id="JF84659" begin="1080" fromJunction="J4" toJunction="J2" end="1140" vehsPerHour="9.006911892582588"/>
  <flow id="JF84660" begin="1080" fromJunction="J2" toJunction="J0" end="1140" vehsPerHour="95.31571181656884"/>
  <flow id="JF84661" begin="1080" fromJunction="J2" toJunction="J3" end="1140" vehsPerHour="19.49041481999577"/>
  <flow id="JF84662" begin="1080" fromJunction="J4" toJunction="J0" end="1140" vehsPerHour="8.734796076096751"/>
  <flow id="JF84663" begin="1080" fromJunction="J4" toJunction="J3" end="1140" vehsPerHour="122.77216239612618"/>
  <flow id="JF84664" begin="1140" fromJunction="J0" toJunction="J3" end="1200" vehsPerHour="167.83269789297356"/>
  <flow id="JF84665" begin="1140" fromJunction="J3" toJunction="J0" end="1200" vehsPerHour="13.295596752618218"/>
  <flow id="JF84666" begin="1140" fromJunction="J0" toJunction="J2" end="1200" vehsPerHour="83.51799020853001"/>
  <flow id="JF84667" begin="1140" fromJunction="J0" toJunction="J4" end="1200" vehsPerHour="73.16075053255526"/>
  <flow id="JF84668" begin="1140" fromJunction="J3" toJunction="J2" end="1200" vehsPerHour="73.01782164140704"/>
  <flow id="JF84669" begin="1140" fromJunction="J3" toJunction="J4" end="1200" vehsPerHour="137.05894138463202"/>
  <flow id="JF84670" begin="1200" fromJunction="J0" toJunction="J3" end="1260" vehsPerHour="395.23453821888285"/>
  <flow id="JF84671" begin="1200" fromJunction="J3" toJunction="J0" end="1260" vehsPerHour="132.4872662303938"/>
  <flow id="JF84672" begin="1200" fromJunction="J0" toJunction="J2" end="1260" vehsPerHour="70.55011195545387"/>
  <flow id="JF84673" begin="1200" fromJunction="J0" toJunction="J4" end="1260" vehsPerHour="124.3729296944421"/>
  <flow id="JF84674" begin="1200" fromJunction="J3" toJunction="J2" end="1260" vehsPerHour="70.11119657409647"/>
  <flow id="JF84675" begin="1200" fromJunction="J3" toJunction="J4" end="1260" vehsPerHour="31.104280028204716"/>
  <flow id="JF84676" begin="1200" fromJunction="J2" toJunction="J4" end="1260" vehsPerHour="42.470254524605316"/>
  <flow id="JF84677" begin="1200" fromJunction="J4" toJunction="J2" end="1260" vehsPerHour="85.34681373871102"/>
  <flow id="JF84678" begin="1200" fromJunction="J2" toJunction="J0" end="1260" vehsPerHour="59.69740328979509"/>
  <flow id="JF84679" begin="1200" fromJunction="J2" toJunction="J3" end="1260" vehsPerHour="39.77254305506415"/>
  <flow id="JF84680" begin="1200" fromJunction="J4" toJunction="J0" end="1260" vehsPerHour="26.37202729566251"/>
  <flow id="JF84681" begin="1200" fromJunction="J4" toJunction="J3" end="1260" vehsPerHour="77.60275763286378"/>
  <flow id="JF84682" begin="1260" fromJunction="J0" toJunction="J3" end="1320" vehsPerHour="191.11868421504917"/>
  <flow id="JF84683" begin="1260" fromJunction="J3" toJunction="J0" end="1320" vehsPerHour="457.7292261394396"/>
  <flow id="JF84684" begin="1260" fromJunction="J0" toJunction="J2" end="1320" vehsPerHour="114.23901139784792"/>
  <flow id="JF84685" begin="1260" fromJunction="J0" toJunction="J4" end="1320" vehsPerHour="118.13692916559823"/>
  <flow id="JF84686" begin="1260" fromJunction="J3" toJunction="J2" end="1320" vehsPerHour="57.527627566979085"/>
  <flow id="JF84687" begin="1260" fromJunction="J3" toJunction="J4" end="1320" vehsPerHour="31.41669555747604"/>
  <flow id="JF84688" begin="1260" fromJunction="J2" toJunction="J4" end="1320" vehsPerHour="11.60569392600592"/>
  <flow id="JF84689" begin="1260" fromJunction="J4" toJunction="J2" end="1320" vehsPerHour="70.30593985955382"/>
  <flow id="JF84690" begin="1260" fromJunction="J2" toJunction="J0" end="1320" vehsPerHour="22.55594682717589"/>
  <flow id="JF84691" begin="1260" fromJunction="J2" toJunction="J3" end="1320" vehsPerHour="20.82776149527313"/>
  <flow id="JF84692" begin="1260" fromJunction="J4" toJunction="J0" end="1320" vehsPerHour="5.3498929594523865"/>
  <flow id="JF84693" begin="1260" fromJunction="J4" toJunction="J3" end="1320" vehsPerHour="94.75036658030167"/>
  <flow id="JF84694" begin="1320" fromJunction="J0" toJunction="J3" end="1380" vehsPerHour="125.67017974455416"/>
  <flow id="JF84695" begin="1320" fromJunction="J3" toJunction="J0" end="1380" vehsPerHour="205.37058525376742"/>
  <flow id="JF84696" begin="1320" fromJunction="J0" toJunction="J2" end="1380" vehsPerHour="88.27521556460349"/>
  <flow id="JF84697" begin="1320" fromJunction="J0" toJunction="J4" end="1380" vehsPerHour="91.26072398921758"/>
  <flow id="JF84698" begin="1320" fromJunction="J3" toJunction="J2" end="1380" vehsPerHour="37.09992634471551"/>
  <flow id="JF84699" begin="1320" fromJunction="J3" toJunction="J4" end="1380" vehsPerHour="74.2229611016747"/>
  <flow id="JF84700" begin="1320" fromJunction="J2" toJunction="J4" end="1380" vehsPerHour="71.40862912463547"/>
  <flow id="JF84701" begin="1320" fromJunction="J4" toJunction="J2" end="1380" vehsPerHour="90.06900935347714"/>
  <flow id="JF84702" begin="1320" fromJunction="J2" toJunction="J0" end="1380" vehsPerHour="86.73440712895676"/>
  <flow id="JF84703" begin="1320" fromJunction="J2" toJunction="J3" end="1380" vehsPerHour="18.262463959866018"/>
  <flow id="JF84704" begin="1320" fromJunction="J4" toJunction="J0" end="1380" vehsPerHour="74.17355878592217"/>
  <flow id="JF84705" begin="1320" fromJunction="J4" toJunction="J3" end="1380" vehsPerHour="22.78356551033017"/>
  <flow id="JF84706" begin="1380" fromJunction="J0" toJunction="J3" end="1440" vehsPerHour="307.6723903864265"/>
  <flow id="JF84707" begin="1380" fromJunction="J3" toJunction="J0" end="1440" vehsPerHour="414.30080051619234"/>
  <flow id="JF84708" begin="1380" fromJunction="J0" toJunction="J2" end="1440" vehsPerHour="89.8937045665003"/>
  <flow id="JF84709" begin="1380" fromJunction="J0" toJunction="J4" end="1440" vehsPerHour="57.66981171556274"/>
  <flow id="JF84710" begin="1380" fromJunction="J3" toJunction="J2" end="1440" vehsPerHour="70.42602392168526"/>
  <flow id="JF84711" begin="1380" fromJunction="J3" toJunction="J4" end="1440" vehsPerHour="93.20760321691237"/>
  <flow id="JF84712" begin="1380" fromJunction="J2" toJunction="J4" end="1440" vehsPerHour="66.73292988994189"/>
  <flow id="JF84713" begin="1380" fromJunction="J4" toJunction="J2" end="1440" vehsPerHour="66.21198934225002"/>
  <flow id="JF84714" begin="1380" fromJunction="J2" toJunction="J0" end="1440" vehsPerHour="2.914468315066692"/>
  <flow id="JF84715" begin="1380" fromJunction="J2" toJunction="J3" end="1440" vehsPerHour="115.3952212857211"/>
  <flow id="JF84716" begin="1380" fromJunction="J4" toJunction="J0" end="1440" vehsPerHour="94.66772472980261"/>
  <flow id="JF84717" begin="1380" fromJunction="J4" toJunction="J3" end="1440" vehsPerHour="43.049592649339715"/>
  <flow id="JF84718" begin="1440" fromJunction="J0" toJunction="J3" end="1500" vehsPerHour="303.8920104399168"/>
  <flow id="JF84719" begin="1440" fromJunction="J3" toJunction="J0" end="1500" vehsPerHour="120.4210464681194"/>
  <flow id="JF84720" begin="1440" fromJunction="J0" toJunction="J2" end="1500" vehsPerHour="2.9063057612488437"/>
  <flow id="JF84721" begin="1440" fromJunction="J0" toJunction="J4" end="1500" vehsPerHour="58.243125340318166"/>
  <flow id="JF84722" begin="1440" fromJunction="J3" toJunction="J2" end="1500" vehsPerHour="52.13083921193452"/>
  <flow id="JF84723" begin="1440" fromJunction="J3" toJunction="J4" end="1500" vehsPerHour="66.89832641369048"/>
  <flow id="JF84724" begin="1440" fromJunction="J2" toJunction="J4" end="1500" vehsPerHour="42.01750150721451"/>
  <flow id="JF84725" begin="1440" fromJunction="J4" toJunction="J2" end="1500" vehsPerHour="2.796267557801743"/>
  <flow id="JF84726" begin="1440" fromJunction="J2" toJunction="J0" end="1500" vehsPerHour="55.03112179726929"/>
  <flow id="JF84727" begin="1440" fromJunction="J2" toJunction="J3" end="1500" vehsPerHour="43.31481450737917"/>
  <flow id="JF84728" begin="1440" fromJunction="J4" toJunction="J0" end="1500" vehsPerHour="44.64659486923943"/>
  <flow id="JF84729" begin="1440" fromJunction="J4" toJunction="J3" end="1500" vehsPerHour="48.26372719408218"/>
  <flow id="JF84730" begin="1500" fromJunction="J0" toJunction="J3" end="1560" vehsPerHour="17.051021585328815"/>
  <flow id="JF84731" begin="1500" fromJunction="J3" toJunction="J0" end="1560" vehsPerHour="396.49359613630924"/>