<?xml version="1.0" encoding="UTF-8"?>
<routes xmlns:xsi="http://www.w3.org/2001/XMLSchema-instance" xsi:noNamespaceSchemaLocation="http://sumo.dlr.de/xsd/routes_file.xsd">
  <flow id="JF85336" begin="0" fromJunction="J0" toJunction="J3" end="60" vehsPerHour="179.3353894268297"/>
  <flow id="JF85337" begin="0" fromJunction="J3" toJunction="J0" end="60" vehsPerHour="409.49828873369717"/>
  <flow id="JF85338" begin="0" fromJunction="J0" toJunction="J2" end="60" vehsPerHour="76.45736706610086"/>
  <flow id="JF85339" begin="0" fromJunction="J0" toJunction="J4" end="60" vehsPerHour="126.6555192659643"/>
  <flow id="JF85340" begin="0" fromJunction="J3" toJunction="J2" end="60" vehsPerHour="56.04814827390635"/>
  <flow id="JF85341" begin="0" fromJunction="J3" toJunction="J4" end="60" vehsPerHour="80.40188907564205"/>
  <flow id="JF85342" begin="0" fromJunction="J2" toJunction="J4" end="60" vehsPerHour="35.394340450114605"/>
  <flow id="JF85343" begin="0" fromJunction="J4" toJunction="J2" end="60" vehsPerHour="123.16722042427526"/>
  <flow id="JF85344" begin="0" fromJunction="J2" toJunction="J0" end="60" vehsPerHour="50.5601231979116"/>
  <flow id="JF85345" begin="0" fromJunction="J2" toJunction="J3" end="60" vehsPerHour="25.04670367497719"/>
  <flow id="JF85346" begin="0" fromJunction="J4" toJunction="J0" end="60" vehsPerHour="53.20834607921114"/>
  <flow id="JF85347" begin="0" fromJunction="J4" toJunction="J3" end="60" vehsPerHour="119.36829096416047"/>
  <flow id="JF85348" begin="60" fromJunction="J0" toJunction="J3" end="120" vehsPerHour="324.22013763920677"/>
  <flow id="JF85349" begin="60" fromJunction="J3" toJunction="J0" end="120" vehsPerHour="382.1080791140147"/>
  <flow id="JF85350" begin="60" fromJunction="J0" toJunction="J2" end="120" vehsPerHour="80.55730427712447"/>
  <flow id="JF85351" begin="60" fromJunction="J0" toJunction="J4" end="120" vehsPerHour="115.98866533726776"/>
  <flow id="JF85352" begin="60" fromJunction="J3" toJunction="J2" end="120" vehsPerHour="97.84366761496096"/>
  <flow id="JF85353" begin="60" fromJunction="J3" toJunction="J4" end="120" vehsPerHour="24.857593375726562"/>
  <flow id="JF85354" begin="60" fromJunction="J2" toJunction="J4" end="120" vehsPerHour="25.496932395415996"/>
  <flow id="JF85355" begin="60" fromJunction="J4" toJunction="J2" end="120" vehsPerHour="64.56915226552118"/>
  <flow id="JF85356" begin="60" fromJunction="J2" toJunction="J0" end="120" vehsPerHour="64.43127641210829"/>
  <flow id="JF85357" begin="60" fromJunction="J2" toJunction="J3" end="120" vehsPerHour="6.181461420151638"/>
  <flow id="JF85358" begin="60" fromJunction="J4" toJunction="J0" end="120" vehsPerHour="64.95565432733812"/>
  <flow id="JF85359" begin="60" fromJunction="J4" toJunction="J3" end="120" vehsPerHour="30.166333830757555"/>
  <flow id="JF85360" begin="120" fromJunction="J0" toJunction="J3" end="180" vehsPerHour="302.78826059506207"/>
  <flow id="JF85361" begin="120" fromJunction="J3" toJunction="J0" end="180" vehsPerHour="143.52804048061907"/>
  <flow id="JF85362" begin="120" fromJunction="J0" toJunction="J2" end="180" vehsPerHour="86.64661891363696"/>
  <flow id="JF85363" begin="120" fromJunction="J0" toJunction="J4" end="180" vehsPerHour="30.13955356463467"/>
  <flow id="JF85364" begin="120" fromJunction="J3" toJunction="J2" end="180" vehsPerHour="54.721213145241066"/>
  <flow id="JF85365" begin="120" fromJunction="J3" toJunction="J4" end="180" vehsPerHour="55.71832433466537"/>
  <flow id="JF85366" begin="120" fromJunction="J2" toJunction="J4" end="180" vehsPerHour="104.40735490806708"/>
  <flow id="JF85367" begin="120" fromJunction="J4" toJunction="J2" end="180" vehsPerHour="104.24293631028794"/>
  <flow id="JF85368" begin="120" fromJunction="J2" toJunction="J0" end="180" vehsPerHour="35.050198422436104"/>
  <flow id="JF85369" begin="120" fromJunction="J2" toJunction="J3" end="180" vehsPerHour="113.28540828821068"/>
  <flow id="JF85370" begin="120" fromJunction="J4" toJunction="J0" end="180" vehsPerHour="85.05871626919014"/>
  <flow id="JF85371" begin="120" fromJunction="J4" toJunction="J3" end="180" vehsPerHour="110.26819275839256"/>
  <flow id="JF85372" begin="180" fromJunction="J0" toJunction="J3" end="240" vehsPerHour="324.5020660224105"/>
  <flow id="JF85373" begin="180" fromJunction="J3" toJunction="J0" end="240" vehsPerHour="415.4371420715451"/>
  <flow id="JF85374" begin="180" fromJunction="J0" toJunction="J2" end="240" vehsPerHour="49.02672828025124"/>
  <flow id="JF85375" begin="180" fromJunction="J0" toJunction="J4" end="240" vehsPerHour="52.138848606255465"/>
  <flow id="JF85376" begin="180" fromJunction="J3" toJunction="J2" end="240" vehsPerHour="0.24386181580016916"/>
  <flow id="JF85377" begin="180" fromJunction="J3" toJunction="J4" end="240" vehsPerHour="124.6452747472002"/>
  <flow id="JF85378" begin="180" fromJunction="J2" toJunction="J4" end="240" vehsPerHour="66.46055702970813"/>
  <flow id="JF85379" begin="180" fromJunction="J4" toJunction="J2" end="240" vehsPerHour="91.1520321166258"/>
  <flow id="JF85380" begin="180" fromJunction="J2" toJunction="J0" end="240" vehsPerHour="50.81687553269997"/>
  <flow id="JF85381" begin="180" fromJunction="J2" toJunction="J3" end="240" vehsPerHour="128.04394799231937"/>
  <flow id="JF85382" begin="180" fromJunction="J4" toJunction="J0" end="240" vehsPerHour="99.4293279078687"/>
  <flow id="JF85383" begin="180" fromJunction="J4" toJunction="J3" end="240" vehsPerHour="113.14514444608444"/>
  <flow id="JF85384" begin="240" fromJunction="J0" toJunction="J3" end="300" vehsPerHour="429.0599616503506"/>
  <flow id="JF85385" begin="240" fromJunction="J3" toJunction="J0" end="300" vehsPerHour="49.69804616199707"/>
  <flow id="JF85386" begin="240" fromJunction="J0" toJunction="J2" end="300" vehsPerHour="28.56101565914337"/>
  <flow id="JF85387" begin="240" fromJunction="J0" toJunction="J4" end="300" vehsPerHour="43.75711676261718"/>
  <flow id="JF85388" begin="240" fromJunction="J3" toJunction="J2" end="300" vehsPerHour="6.356579611032231"/>
  <flow id="JF85389" begin="240" fromJunction="J3" toJunction="J4" end="300" vehsPerHour="127.36112607543717"/>
  <flow id="JF85390" begin="240" fromJunction="J2" toJunction="J4" end="300" vehsPerHour="41.02209821715261"/>
  <flow id="JF85391" begin="240" fromJunction="J4" toJunction="J2" end="300" vehsPerHour="85.30072371660822"/>
  <flow id="JF85392" begin="240" fromJunction="J2" toJunction="J0" end="300" vehsPerHour="91.45039665321191"/>
  <flow id="JF85393" begin="240" fromJunction="J2" toJunction="J3" end="300" vehsPerHour="83.98547618957672"/>
  <flow id="JF85394" begin="240" fromJunction="J4" toJunction="J0" end="300" vehsPerHour="92.2802351687208"/>
  <flow id="JF85395" begin="240" fromJunction="J4" toJunction="J3" end="300" vehsPerHour="48.06870440874417"/>
  <flow id="JF85396" begin="300" fromJunction="J0" toJunction="J3" end="360" vehsPerHour="246.4092031512728"/>
  <flow id="JF85397" begin="300" fromJunction="J3" toJunction="J0" end="360" vehsPerHour="538.9731156249305"/>
  <flow id="JF85398" begin="300" fromJunction="J0" toJunction="J2" end="360" vehsPerHour="137.13321456556955"/>
  <flow id="JF85399" begin="300" fromJunction="J0" toJunction="J4" end="360" vehsPerHour="104.08416296384542"/>
  <flow id="JF85400" begin="300" fromJunction="J3" toJunction="J2" end="360" vehsPerHour="32.44536660049306"/>
  <flow id="JF85401" begin="300" fromJunction="J3" toJunction="J4" end="360" vehsPerHour="38.950460354718594"/>
  <flow id="JF85402" begin="300" fromJunction="J2" toJunction="J4" end="360" vehsPerHour="41.00110196698573"/>
  <flow id="JF85403" begin="300" fromJunction="J4" toJunction="J2" end="360" vehsPerHour="53.73890545400447"/>
  <flow id="JF85404" begin="300" fromJunction="J2" toJunction="J0" end="360" vehsPerHour="133.9689650270856"/>
  <flow id="JF85405" begin="300" fromJunction="J2" toJunction="J3" end="360" vehsPerHour="25.43788860587206"/>
  <flow id="JF85406" begin="300" fromJunction="J4" toJunction="J0" end="360" vehsPerHour="36.61725030936633"/>
  <flow id="JF85407" begin="300" fromJunction="J4" toJunction="J3" end="360" vehsPerHour="96.98077211080913"/>
  <flow id="JF85408" begin="360" fromJunction="J0" toJunction="J3" end="420" vehsPerHour="528.7110672853427"/>
  <flow id="JF85409" begin="360" fromJunction="J3" toJunction="J0" end="420" vehsPerHour="219.7511562886071"/>
  <flow id="JF85410" begin="360" fromJunction="J0" toJunction="J2" end="420" vehsPerHour="6.290607124589211"/>
  <flow id="JF85411" begin="360" fromJunction="J0" toJunction="J4" end="420" vehsPerHour="35.00558898255977"/>
  <flow id="JF85412" begin="360" fromJunction="J3" toJunction="J2" end="420" vehsPerHour="120.54270319767674"/>
  <flow id="JF85413" begin="360" fromJunction="J3" toJunction="J4" end="420" vehsPerHour="131.3162423010765"/>
  <flow id="JF85414" begin="360" fromJunction="J2" toJunction="J4" end="420" vehsPerHour="11.536010609505453"/>
  <flow id="JF85415" begin="360" fromJunction="J4" toJunction="J2" end="420" vehsPerHour="8.688441926279989"/>
  <flow id="JF85416" begin="360" fromJunction="J2" toJunction="J0" end="420" vehsPerHour="13.226136186768558"/>
  <flow id="JF85417" begin="360" fromJunction="J2" toJunction="J3" end="420" vehsPerHour="2.967111324792486"/>
  <flow id="JF85418" begin="360" fromJunction="J4" toJunction="J0" end="420" vehsPerHour="54.53452948992094"/>
  <flow id="JF85419" begin="360" fromJunction="J4" toJunction="J3" end="420" vehsPerHour="22.386335730267838"/>
  <flow id="JF85420" begin="420" fromJunction="J0" toJunction="J3" end="480" vehsPerHour="56.527249183767196"/>
  <flow id="JF85421" begin="420" fromJunction="J3" toJunction="J0" end="480" vehsPerHour="43.36774644209852"/>
  <flow id="JF85422" begin="420" fromJunction="J0" toJunction="J2" end="480" vehsPerHour="122.2211436821922"/>
  <flow id="JF85423" begin="420" fromJunction="J0" toJunction="J4" end="480" vehsPerHour="110.86161436069301"/>
  <flow id="JF85424" begin="420" fromJunction="J3" toJunction="J2" end="480" vehsPerHour="56.72326347787016"/>
  <flow id="JF85425" begin="420" fromJunction="J3" toJunction="J4" end="480" vehsPerHour="33.11156965041739"/>
  <flow id="JF85426" begin="420" fromJunction="J2" toJunction="J4" end="480" vehsPerHour="116.34102230285349"/>
  <flow id="JF85427" begin="420" fromJunction="J4" toJunction="J2" end="480" vehsPerHour="41.77294551315557"/>
  <flow id="JF85428" begin="420" fromJunction="J2" toJunction="J0" end="480" vehsPerHour="2.9221570700653663"/>
  <flow id="JF85429" begin="420" fromJunction="J2" toJunction="J3" end="480" vehsPerHour="36.173797688597894"/>
  <flow id="JF85430" begin="420" fromJunction="J4" toJunction="J0" end="480" vehsPerHour="124.88162897385709"/>
  <flow id="JF85431" begin="420" fromJunction="J4" toJunction="J3" end="480" vehsPerHour="28.03910856205376"/>
  <flow id="JF85432" begin="480" fromJunction="J0" toJunction="J3" end="540" vehsPerHour="94.73806886268441"/>
  <flow id="JF85433" begin="480" fromJunction="J3" toJunction="J0" end="540" vehsPerHour="2.251341025143327"/>
  <flow id="JF85434" begin="480" fromJunction="J0" toJunction="J2" end="540" vehsPerHour="74.54160988596867"/>
  <flow id="JF85435" begin="480" fromJunction="J0" toJunction="J4" end="540" vehsPerHour="50.53877225137458"/>
  <flow id="JF85436" begin="480" fromJunction="J3" toJunction="J2" end="540" vehsPerHour="47.681681427580614"/>
  <flow id="JF85437" begin="480" fromJunction="J3" toJunction="J4" end="540" vehsPerHour="41.441734068310566"/>
  <flow id="JF85438" begin="540" fromJunction="J0" toJunction="J3" end="600" vehsPerHour="15.094689964597844"/>
  <flow id="JF85439" begin="540" fromJunction="J3" toJunction="J0" end="600" vehsPerHour="16.26812222982407"/>
  <flow id="JF85440" begin="540" fromJunction="J0" toJunction="J2" end="600" vehsPerHour="47.68322391290834"/>
  <flow id="JF85441" begin="540" fromJunction="J0" toJunction="J4" end="600" vehsPerHour="44.5590594178068"/>
  <flow id="JF85442" begin="540" fromJunction="J3" toJunction="J2" end="600" vehsPerHour="80.51988469375453"/>
  <flow id="JF85443" begin="540" fromJunction="J3" toJunction="J4" end="600" vehsPerHour="17.721672613479566"/>
  <flow id="JF85444" begin="540" fromJunction="J2" toJunction="J4" end="600" vehsPerHour="20.817858368988613"/>
  <flow id="JF85445" begin="540" fromJunction="J4" toJunction="J2" end="600" vehsPerHour="6.9772847607785"/>
  <flow id="JF85446" begin="540" fromJunction="J2" toJunction="J0" end="600" vehsPerHour="1.6893104892816093"/>
  <flow id="JF85447" begin="540" fromJunction="J2" toJunction="J3" end="600" vehsPerHour="107.46447805321817"/>
  <flow id="JF85448" begin="540" fromJunction="J4" toJunction="J0" end="600" vehsPerHour="75.26240628979258"/>
  <flow id="JF85449" begin="540" fromJunction="J4" toJunction="J3" end="600" vehsPerHour="132.23115724428834"/>
  <flow id="JF85450" begin="600" fromJunction="J0" toJunction="J3" end="660" vehsPerHour="116.0739539234854"/>
  <flow id="JF85451" begin="600" fromJunction="J3" toJunction="J0" end="660" vehsPerHour="491.19537959586347"/>
  <flow id="JF85452" begin="600" fromJunction="J0" toJunction="J2" end="660" vehsPerHour="19.405211192375383"/>
  <flow id="JF85453" begin="600" fromJunction="J0" toJunction="J4" end="660" vehsPerHour="58.35353010238219"/>
  <flow id="JF85454" begin="600" fromJunction="J3" toJunction="J2" end="660" vehsPerHour="88.94968970288366"/>
  <flow id="JF85455" begin="600" fromJunction="J3" toJunction="J4" end="660" vehsPerHour="46.451095854301855"/>
  <flow id="JF85456" begin="600" fromJunction="J2" toJunction="J4" end="660" vehsPerHour="103.71992008442436"/>
  <flow id="JF85457" begin="600" fromJunction="J4" toJunction="J2" end="660" vehsPerHour="71.8855697256991"/>
  <flow id="JF85458" begin="600" fromJunction="J2" toJunction="J0" end="660" vehsPerHour="55.679411013981166"/>
  <flow id="JF85459" begin="600" fromJunction="J2" toJunction="J3" end="660" vehsPerHour="66.35485621457474"/>
  <flow id="JF85460" begin="600" fromJunction="J4" toJunction="J0" end="660" vehsPerHour="96.70995867854776"/>
  <flow id="JF85461" begin="600" fromJunction="J4" toJunction="J3" end="660" vehsPerHour="114.63805678767476"/>
  <flow id="JF85462" begin="660" fromJunction="J0" toJunction="J3" end="720" vehsPerHour="163.69136519258686"/>
  <flow id="JF85463" begin="660" fromJunction="J3" toJunction="J0" end="720" vehsPerHour="236.21455717819032"/>
  <flow id="JF85464" begin="660" fromJunction="J0" toJunction="J2" end="720" vehsPerHour="37.88023496469314"/>
  <flow id="JF85465" begin="660" fromJunction="J0" toJunction="J4" end="720" vehsPerHour="58.83496265719384"/>
  <flow id="JF85466" begin="660" fromJunction="J3" toJunction="J2" end="720" vehsPerHour="5.13235705873621"/>
  <flow id="JF85467" begin="660" fromJunction="J3" toJunction="J4" end="720" vehsPerHour="59.78509364064239"/>
  <flow id="JF85468" begin="660" fromJunction="J2" toJunction="J4" end="720" vehsPerHour="133.01778546802706"/>
  <flow id="JF85469" begin="660" fromJunction="J4" toJunction="J2" end="720" vehsPerHour="72.23043233402305"/>
  <flow id="JF85470" begin="660" fromJunction="J2" toJunction="J0" end="720" vehsPerHour="116.45721530825273"/>
  <flow id="JF85471" begin="660" fromJunction="J2" toJunction="J3" end="720" vehsPerHour="130.5107291458251"/>
  <flow id="JF85472" begin="660" fromJunction="J4" toJunction="J0" end="720" vehsPerHour="29.202821525615544"/>
  <flow id="JF85473" begin="660" fromJunction="J4" toJunction="J3" end="720" vehsPerHour="47.60303435987102"/>
  <flow id="JF85474" begin="720" fromJunction="J0" toJunction="J3" end="780" vehsPerHour="137.169349433309"/>
  <flow id="JF85475" begin="720" fromJunction="J3" toJunction="J0" end="780" vehsPerHour="296.43606118498917"/>
  <flow id="JF85476" begin="720" fromJunction="J0" toJunction="J2" end="780" vehsPerHour="107.59042290734618"/>
  <flow id="JF85477" begin="720" fromJunction="J0" toJunction="J4" end="780" vehsPerHour="105.1566454776802"/>
  <flow id="JF85478" begin="720" fromJunction="J3" toJunction="J2" end="780" vehsPerHour="118.42109972676194"/>
  <flow id="JF85479" begin="720" fromJunction="J3" toJunction="J4" end="780" vehsPerHour="104.72940301286572"/>
  <flow id="JF85480" begin="720" fromJunction="J2" toJunction="J4" end="780" vehsPerHour="132.10750641715026"/>
  <flow id="JF85481" begin="720" fromJunction="J4" toJunction="J2" end="780" vehsPerHour="34.485038394835186"/>
  <flow id="JF85482" begin="720" fromJunction="J2" toJunction="J0" end="780" vehsPerHour="118.75533151657865"/>
  <flow id="JF85483" begin="720" fromJunction="J2" toJunction="J3" end="780" vehsPerHour="9.344022495223669"/>
  <flow id="JF85484" begin="720" fromJunction="J4" toJunction="J0" end="780" vehsPerHour="65.28668585580857"/>
  <flow id="JF85485" begin="720" fromJunction="J4" toJunction="J3" end="780" vehsPerHour="20.79171148229735"/>
  <flow id="JF85486" begin="780" fromJunction="J0" toJunction="J3" end="840" vehsPerHour="340.93334536244714"/>
  <flow id="JF85487" begin="780" fromJunction="J3" toJunction="J0" end="840" vehsPerHour="377.9811048072805"/>
  <flow id="JF85488" begin="780" fromJunction="J0" toJunction="J2" end="840" vehsPerHour="34.21832682376017"/>
  <flow id="JF85489" begin="780" fromJunction="J0" toJunction="J4" end="840" vehsPerHour="93.67028730279961"/>
  <flow id="JF85490" begin="780" fromJunction="J3" toJunction="J2" end="840" vehsPerHour="111.57155778376541"/>
  <flow id="JF85491" begin="780" fromJunction="J3" toJunction="J4" end="840" vehsPerHour="40.258941816123475"/>
  <flow id="JF85492" begin="780" fromJunction="J2" toJunction="J4" end="840" vehsPerHour="60.52791112773858"/>
  <flow id="JF85493" begin="780" fromJunction="J4" toJunction="J2" end="840" vehsPerHour="79.34176988208019"/>
  <flow id="JF85494" begin="780" fromJunction="J2" toJunction="J0" end="840" vehsPerHour="88.62315634646176"/>
  <flow id="JF85495" begin="780" fromJunction="J2" toJunction="J3" end="840" vehsPerHour="49.868068482702014"/>
  <flow id="JF85496" begin="780" fromJunction="J4" toJunction="J0" end="840" vehsPerHour="132.62634526291336"/>
  <flow id="JF85497" begin="780" fromJunction="J4" toJunction="J3" end="840" vehsPerHour="10.254037960505858"/>
  <flow id="JF85498" begin="840" fromJunction="J0" toJunction="J3" end="900" vehsPerHour="185.95146258184616"/>
  <flow id="JF85499" begin="840" fromJunction="J3" toJunction="J0" end="900" vehsPerHour="236.29461571460686"/>
  <flow id="JF85500" begin="840" fromJunction="J0" toJunction="J2" end="900" vehsPerHour="10.422403645138147"/>
  <flow id="JF85501" begin="840" fromJunction="J0" toJunction="J4" end="900" vehsPerHour="24.72542948948026"/>
  <flow id="JF85502" begin="840" fromJunction="J3" toJunction="J2" end="900" vehsPerHour="84.94417066292657"/>
  <flow id="JF85503" begin="840" fromJunction="J3" toJunction="J4" end="900" vehsPerHour="48.629705623531706"/>
  <flow id="JF85504" begin="900" fromJunction="J0" toJunction="J3" end="960" vehsPerHour="258.9152270779456"/>
  <flow id="JF85505" begin="900" fromJunction="J3" toJunction="J0" end="960" vehsPerHour="144.83413540779907"/>
  <flow id="JF85506" begin="900" fromJunction="J0" toJunction="J2" end="960" vehsPerHour="70.70168365309657"/>
  <flow id="JF85507" begin="900" fromJunction="J0" toJunction="J4" end="960" vehsPerHour="130.09628234234273"/>
  <flow id="JF85508" begin="900" fromJunction="J3" toJunction="J2" end="960" vehsPerHour="61.189148664037724"/>
  <flow id="JF85509" begin="900" fromJunction="J3" toJunction="J4" end="960" vehsPerHour="110.78137546835757"/>
  <flow id="JF85510" begin="900" fromJunction="J2" toJunction="J4" end="960" vehsPerHour="32.28840345483053"/>
  <flow id="JF85511" begin="900" fromJunction="J4" toJunction="J2" end="960" vehsPerHour="46.54068817942968"/>
  <flow id="JF85512" begin="900" fromJunction="J2" toJunction="J0" end="960" vehsPerHour="97.41644981014704"/>
  <flow id="JF85513" begin="900" fromJunction="J2" toJunction="J3" end="960" vehsPerHour="4.117837700724214"/>
  <flow id="JF85514" begin="900" fromJunction="J4" toJunction="J0" end="960" vehsPerHour="0.29234841479735896"/>
  <flow id="JF85515" begin="900" fromJunction="J4" toJunction="J3" end="960" vehsPerHour="130.8672669648523"/>
  <flow id="JF85516" begin="960" fromJunction="J0" toJunction="J3" end="1020" vehsPerHour="472.3222698462916"/>
  <flow id="JF85517" begin="960" fromJunction="J3" toJunction="J0" end="1020" vehsPerHour="435.44307912723497"/>
  <flow id="JF85518" begin="960" fromJunction="J0" toJunction="J2" end="1020" vehsPerHour="49.646815851373795"/>
  <flow id="JF85519" begin="960" fromJunction="J0" toJunction="J4" end="1020" vehsPerHour="58.66686406751528"/>
  <flow id="JF85520" begin="960" fromJunction="J3" toJunction="J2" end="1020" vehsPerHour="81.33619867904346"/>
  <flow id="JF85521" begin="960" fromJunction="J3" toJunction="J4" end="1020" vehsPerHour="54.27587150686848"/>
  <flow id="JF85522" begin="960" fromJunction="J2" toJunction="J4" end="1020" vehsPerHour="19.937720145000377"/>
  <flow id="JF85523" begin="960" fromJunction="J4" toJunction="J2" end="1020" vehsPerHour="64.95210203509487"/>
  <flow id="JF85524" begin="960" fromJunction="J2" toJunction="J0" end="1020" vehsPerHour="128.45716931256925"/>
  <flow id="JF85525" begin="960" fromJunction="J2" toJunction="J3" end="1020" vehsPerHour="15.843440047999431"/>
  <flow id="JF85526" begin="960" fromJunction="J4" toJunction="J0" end="1020" vehsPerHour="11.490959859385683"/>
  <flow id="JF85527" begin="960" fromJunction="J4" toJunction="J3" end="1020" vehsPerHour="92.72096753010754"/>
  <flow id="JF85528" begin="1020" fromJunction="J0" toJunction="J3" end="1080" vehsPerHour="210.06399044430864"/>
  <flow id="JF85529" begin="1020" fromJunction="J3" toJunction="J0" end="1080" vehsPerHour="463.03745017985625"/>
  <flow id="JF85530" begin="1020" fromJunction="J0" toJunction="J2" end="1080" vehsPerHour="28.253744688075255"/>
  <flow id="JF85531" begin="1020" fromJunction="J0" toJunction="J4" end="1080" vehsPerHour="87.46879739145389"/>
  <flow id="JF85532" begin="1020" fromJunction="J3" toJunction="J2" end="1080" vehsPerHour="132.9478509978822"/>
  <flow id="JF85533" begin="1020" fromJunction="J3" toJunction="J4" end="1080" vehsPerHour="108.56715134172585"/>
  <flow id="JF85534" begin="1020" fromJunction="J2" toJunction="J4" end="1080" vehsPerHour="27.141079377383242"/>
  <flow id="JF85535" begin="1020" fromJunction="J4" toJunction="J2" end="1080" vehsPerHour="41.52070544889754"/>
  <flow id="JF85536" begin="1020" fromJunction="J2" toJunction="J0" end="1080" vehsPerHour="38.311649262190116"/>
  <flow id="JF85537" begin="1020" fromJunction="J2" toJunction="J3" end="1080" vehsPerHour="15.513194666783743"/>
  <flow id="JF85538" begin="1020" fromJunction="J4" toJunction="J0" end="1080" vehsPerHour="18.976094671125345"/>
  <flow id="JF85539" begin="1020" fromJunction="J4" toJunction="J3" end="1080" vehsPerHour="40.28613236844646"/>
  <flow id="JF85540" begin="1080" fromJunction="J0" toJunction="J3" end="1140" vehsPerHour="147.4769707334414"/>
  <flow id="JF85541" begin="1080" fromJunction="J3" toJunction="J0" end="1140" vehsPerHour="134.23065884539656"/>
  <flow id="JF85542" begin="1080" fromJunction="J0" toJunction="J2" end="1140" vehsPerHour="129.01578083290167"/>
  <flow id="JF85543" begin="1080" fromJunction="J0" toJunction="J4" end="1140" vehsPerHour="7.1267205560790075"/>
  <flow id="JF85544" begin="1080" fromJunction="J3" toJunction="J2" end="1140" vehsPerHour="114.50197827977644"/>
  <flow id="JF85545" begin="1080" fromJunction="J3" toJunction="J4" end="1140" vehsPerHour="25.126488427407875"/>
  <flow id="JF85546" begin="1080" fromJunction="J2" toJunction="J4" end="1140" vehsPerHour="103.27252466708678"/>
  <flow id="JF85547" begin="1080" fromJunction="J4" toJunction="J2" end="1140" vehsPerHour="29.309254187130144"/>
  <flow id="JF85548" begin="1080" fromJunction="J2" toJunction="J0" end="1140" vehsPerHour="90.37705346864722"/>
  <flow id="JF85549" begin="1080" fromJunction="J2" toJunction="J3" end="1140" vehsPerHour="71.83330001816543"/>
  <flow id="JF85550" begin="1080" fromJunction="J4" toJunction="J0" end="1140" vehsPerHour="91.12450607369233"/>
  <flow id="JF85551" begin="1080" fromJunction="J4" toJunction="J3" end="1140" vehsPerHour="29.732764581789112"/>
  <flow id="JF85552" begin="1140" fromJunction="J0" toJunction="J3" end="1200" vehsPerHour="188.13929842960354"/>
  <flow id="JF85553" begin="1140" fromJunction="J3" toJunction="J0" end="1200" vehsPerHour="225.73655120816076"/>
  <flow id="JF85554" begin="1140" fromJunction="J0" toJunction="J2" end="1200" vehsPerHour="48.17571941339839"/>
  <flow id="JF85555" begin="1140" fromJunction="J0" toJunction="J4" end="1200" vehsPerHour="93.16068214387833"/>
  <flow id="JF85556" begin="1140" fromJunction="J3" toJunction="J2" end="1200" vehsPerHour="64.30746205355904"/>
  <flow id="JF85557" begin="1140" fromJunction="J3" toJunction="J4" end="1200" vehsPerHour="83.10006530876731"/>
  <flow id="JF85558" begin="1200" fromJunction="J0" toJunction="J3" end="1260" vehsPerHour="169.69288415714468"/>
  <flow id="JF85559" begin="1200" fromJunction="J3" toJunction="J0" end="1260" vehsPerHour="352.0182050827037"/>
  <flow id="JF85560" begin="1200" fromJunction="J0" toJunction="J2" end="1260" vehsPerHour="8.741762958222855"/>
  <flow id="JF85561" begin="1200" fromJunction="J0" toJunction="J4" end="1260" vehsPerHour="32.948712773683816"/>
  <flow id="JF85562" begin="1200" fromJunction="J3" toJunction="J2" end="1260" vehsPerHour="59.97573584431299"/>
  <flow id="JF85563" begin="1200" fromJunction="J3" toJunction="J4" end="1260" vehsPerHour="1.4036235449387695"/>
  <flow id="JF85564" begin="1200" fromJunction="J2" toJunction="J4" end="1260" vehsPerHour="63.480067683859325"/>
  <flow id="JF85565" begin="1200" fromJunction="J4" toJunction="J2" end="1260" vehsPerHour="100.54472329258198"/>
  <flow id="JF85566" begin="1200" fromJunction="J2" toJunction="J0" end="1260" vehsPerHour="37.4748789937218"/>
  <flow id="JF85567" begin="1200" fromJunction="J2" toJunction="J3" end="1260" vehsPerHour="109.26605603202181"/>
  <flow id="JF85568" begin="1200" fromJunction="J4" toJunction="J0" end="1260" vehsPerHour="28.365287651331755"/>
  <flow id="JF85569" begin="1200" fromJunction="J4" toJunction="J3" end="1260" vehsPerHour="67.5520841357965"/>
  <flow id="JF85570" begin="1260" fromJunction="J0" toJunction="J3" end="1320" vehsPerHour="229.4508711022929"/>
  <flow id="JF85571" begin="1260" fromJunction="J3" toJunction="J0" end="1320" vehsPerHour="212.43561360050933"/>
  <flow id="JF85572" begin="1260" fromJunction="J0" toJunction="J2" end="1320" vehsPerHour="3.673259790453841"/>
  <flow id="JF85573" begin="1260" fromJunction="J0" toJunction="J4" end="1320" vehsPerHour="134.5572007082904"/>
  <flow id="JF85574" begin="1260" fromJunction="J3" toJunction="J2" end="1320" vehsPerHour="7.585320696982579"/>
  <flow id="JF85575" begin="1260" fromJunction="J3" toJunction="J4" end="1320" vehsPerHour="126.7704620061163"/>
  <flow id="JF85576" begin="1260" fromJunction="J2" toJunction="J4" end="1320" vehsPerHour="97.60247863522625"/>
  <flow id="JF85577" begin="1260" fromJunction="J4" toJunction="J2" end="1320" vehsPerHour="91.02974164337647"/>
  <flow id="JF85578" begin="1260" fromJunction="J2" toJunction="J0" end="1320" vehsPerHour="49.567061154661445"/>
  <flow id="JF85579" begin="1260" fromJunction="J2" toJunction="J3" end="1320" vehsPerHour="22.70936543175691"/>
  <flow id="JF85580" begin="1260" fromJunction="J4" toJunction="J0" end="1320" vehsPerHour="3.0271769718775574"/>
  <flow id="JF85581" begin="1260" fromJunction="J4" toJunction="J3" end="1320" vehsPerHour="44.687440694651016"/>
  <flow id="JF85582" begin="1320" fromJunction="J0" toJunction="J3" end="1380" vehsPerHour="218.175805645532"/>
  <flow id="JF85583" begin="1320" fromJunction="J3" toJunction="J0" end="1380" vehsPerHour="525.457844134403"/>
  <flow id="JF85584" begin="1320" fromJunction="J0" toJunction="J2" end="1380" vehsPerHour="115.36200255576664"/>
  <flow id="JF85585" begin="1320" fromJunction="J0" toJunction="J4" end="1380" vehsPerHour="91.02129446641797"/>
  <flow id="JF85586" begin="1320" fromJunction="J3" toJunction="J2" end="1380" vehsPerHour="126.79794062339548"/>
  <flow id="JF85587" begin="1320" fromJunction="J3" toJunction="J4" end="1380" vehsPerHour="128.5088384577292"/>
  <flow id="JF85588" begin="1320" fromJunction="J2" toJunction="J4" end="1380" vehsPerHour="86.57035351521218"/>
  <flow id="JF85589" begin="1320" fromJunction="J4" toJunction="J2" end="1380" vehsPerHour="122.68820257416374"/>
  <flow id="JF85590" begin="1320" fromJunction="J2" toJunction="J0" end="1380" vehsPerHour="38.946423500867894"/>
  <flow id="JF85591" begin="1320" fromJunction="J2" toJunction="J3" end="1380" vehsPerHour="100.07958932993392"/>
  <flow id="JF85592" begin="1320" fromJunction="J4" toJunction="J0" end="1380" vehsPerHour="90.37173143704793"/>
  <flow id="JF85593" begin="1320" fromJunction="J4" toJunction="J3" end="1380" vehsPerHour="42.59952702306418"/>
  <flow id="JF85594" begin="1380" fromJunction="J0" toJunction="J3" end="1440" vehsPerHour="360.84746072628843"/>
  <flow id="JF85595" begin="1380" fromJunction="J3" toJunction="J0" end="1440" vehsPerHour="463.3656566814321"/>
  <flow id="JF85596" begin="1380" fromJunction="J0" toJunction="J2" end="1440" vehsPerHour="136.98534474269294"/>
  <flow id="JF85597" begin="1380" fromJunction="J0" toJunction="J4" end="1440" vehsPerHour="107.57573694930637"/>
  <flow id="JF85598" begin="1380" fromJunction="J3" toJunction="J2" end="1440" vehsPerHour="109.50482457175933"/>
  <flow id="JF85599" begin="1380" fromJunction="J3" toJunction="J4" end="1440" vehsPerHour="76.3398030440177"/>
  <flow id="JF85600" begin="1380" fromJunction="J2" toJunction="J4" end="1440" vehsPerHour="19.63478098732695"/>
  <flow id="JF85601" begin="1380" fromJunction="J4" toJunction="J2" end="1440" vehsPerHour="124.23491337246023"/>