<?xml version="1.0" encoding="UTF-8"?>
<routes xmlns:xsi="http://www.w3.org/2001/XMLSchema-instance" xsi:noNamespaceSchemaLocation="http://sumo.dlr.de/xsd/routes_file.xsd">
  <flow id="JF87940" begin="0" fromJunction="J0" toJunction="J3" end="60" vehsPerHour="437.7704946198437"/>
  <flow id="JF87941" begin="0" fromJunction="J3" toJunction="J0" end="60" vehsPerHour="434.67286910138165"/>
  <flow id="JF87942" begin="0" fromJunction="J0" toJunction="J2" end="60" vehsPerHour="110.0334443621382"/>
  <flow id="JF87943" begin="0" fromJunction="J0" toJunction="J4" end="60" vehsPerHour="87.10184207800147"/>
  <flow id="JF87944" begin="0" fromJunction="J3" toJunction="J2" end="60" vehsPerHour="74.39112309911023"/>
  <flow id="JF87945" begin="0" fromJunction="J3" toJunction="J4" end="60" vehsPerHour="57.220623468292615"/>
  <flow id="JF87946" begin="0" fromJunction="J2" toJunction="J4" end="60" vehsPerHour="1.926337445405545"/>
  <flow id="JF87947" begin="0" fromJunction="J4" toJunction="J2" end="60" vehsPerHour="23.485069557755782"/>
  <flow id="JF87948" begin="0" fromJunction="J2" toJunction="J0" end="60" vehsPerHour="24.04627355768181"/>
  <flow id="JF87949" begin="0" fromJunction="J2" toJunction="J3" end="60" vehsPerHour="112.8614616520438"/>
  <flow id="JF87950" begin="0" fromJunction="J4" toJunction="J0" end="60" vehsPerHour="19.85610736568688"/>
  <flow id="JF87951" begin="0" fromJunction="J4" toJunction="J3" end="60" vehsPerHour="121.09298994894802"/>
  <flow id="JF87952" begin="60" fromJunction="J0" toJunction="J3" end="120" vehsPerHour="543.176405880163"/>
  <flow id="JF87953" begin="60" fromJunction="J3" toJunction="J0" end="120" vehsPerHour="341.6017055657554"/>
  <flow id="JF87954" begin="60" fromJunction="J0" toJunction="J2" end="120" vehsPerHour="12.906937399873812"/>
  <flow id="JF87955" begin="60" fromJunction="J0" toJunction="J4" end="120" vehsPerHour="72.86285306571418"/>
  <flow id="JF87956" begin="60" fromJunction="J3" toJunction="J2" end="120" vehsPerHour="21.933668944316917"/>
  <flow id="JF87957" begin="60" fromJunction="J3" toJunction="J4" end="120" vehsPerHour="93.90021747497778"/>
  <flow id="JF87958" begin="60" fromJunction="J2" toJunction="J4" end="120" vehsPerHour="95.24584185933418"/>
  <flow id="JF87959" begin="60" fromJunction="J4" toJunction="J2" end="120" vehsPerHour="78.08701737883332"/>
  <flow id="JF87960" begin="60" fromJunction="J2" toJunction="J0" end="120" vehsPerHour="43.81782048240119"/>
  <flow id="JF87961" begin="60" fromJunction="J2" toJunction="J3" end="120" vehsPerHour="92.61789879679924"/>
  <flow id="JF87962" begin="60" fromJunction="J4" toJunction="J0" end="120" vehsPerHour="56.940005410120804"/>
  <flow id="JF87963" begin="60" fromJunction="J4" toJunction="J3" end="120" vehsPerHour="116.13962096038482"/>
  <flow id="JF87964" begin="120" fromJunction="J0" toJunction="J3" end="180" vehsPerHour="464.5306249633142"/>
  <flow id="JF87965" begin="120" fromJunction="J3" toJunction="J0" end="180" vehsPerHour="260.951264283457"/>
  <flow id="JF87966" begin="120" fromJunction="J0" toJunction="J2" end="180" vehsPerHour="16.670434891509704"/>
  <flow id="JF87967" begin="120" fromJunction="J0" toJunction="J4" end="180" vehsPerHour="108.53539051534614"/>
  <flow id="JF87968" begin="120" fromJunction="J3" toJunction="J2" end="180" vehsPerHour="42.155556057146505"/>
  <flow id="JF87969" begin="120" fromJunction="J3" toJunction="J4" end="180" vehsPerHour="7.014861681417574"/>
  <flow id="JF87970" begin="120" fromJunction="J2" toJunction="J4" end="180" vehsPerHour="22.657282305411957"/>
  <flow id="JF87971" begin="120" fromJunction="J4" toJunction="J2" end="180" vehsPerHour="104.31661676653759"/>
  <flow id="JF87972" begin="120" fromJunction="J2" toJunction="J0" end="180" vehsPerHour="58.5354593327143"/>
  <flow id="JF87973" begin="120" fromJunction="J2" toJunction="J3" end="180" vehsPerHour="18.60966828527698"/>
  <flow id="JF87974" begin="120" fromJunction="J4" toJunction="J0" end="180" vehsPerHour="134.36333819885465"/>
  <flow id="JF87975" begin="120" fromJunction="J4" toJunction="J3" end="180" vehsPerHour="95.51114076305372"/>
  <flow id="JF87976" begin="180" fromJunction="J0" toJunction="J3" end="240" vehsPerHour="375.848486826392"/>
  <flow id="JF87977" begin="180" fromJunction="J3" toJunction="J0" end="240" vehsPerHour="316.60118407269107"/>
  <flow id="JF87978" begin="180" fromJunction="J0" toJunction="J2" end="240" vehsPerHour="22.127169791759645"/>
  <flow id="JF87979" begin="180" fromJunction="J0" toJunction="J4" end="240" vehsPerHour="122.11938810570088"/>
  <flow id="JF87980" begin="180" fromJunction="J3" toJunction="J2" end="240" vehsPerHour="93.91188994878193"/>
  <flow id="JF87981" begin="180" fromJunction="J3" toJunction="J4" end="240" vehsPerHour="108.25463928783952"/>
  <flow id="JF87982" begin="180" fromJunction="J2" toJunction="J4" end="240" vehsPerHour="86.46836471709675"/>
  <flow id="JF87983" begin="180" fromJunction="J4" toJunction="J2" end="240" vehsPerHour="129.34765070686072"/>
  <flow id="JF87984" begin="180" fromJunction="J2" toJunction="J0" end="240" vehsPerHour="40.18929553484601"/>
  <flow id="JF87985" begin="180" fromJunction="J2" toJunction="J3" end="240" vehsPerHour="54.49855501701897"/>
  <flow id="JF87986" begin="180" fromJunction="J4" toJunction="J0" end="240" vehsPerHour="2.828932570470954"/>
  <flow id="JF87987" begin="180" fromJunction="J4" toJunction="J3" end="240" vehsPerHour="25.03009326823616"/>
  <flow id="JF87988" begin="240" fromJunction="J0" toJunction="J3" end="300" vehsPerHour="24.638009328889453"/>
  <flow id="JF87989" begin="240" fromJunction="J3" toJunction="J0" end="300" vehsPerHour="47.42182327873528"/>
  <flow id="JF87990" begin="240" fromJunction="J0" toJunction="J2" end="300" vehsPerHour="80.59859450741763"/>
  <flow id="JF87991" begin="240" fromJunction="J0" toJunction="J4" end="300" vehsPerHour="108.36582158847501"/>
  <flow id="JF87992" begin="240" fromJunction="J3" toJunction="J2" end="300" vehsPerHour="22.169268836230206"/>
  <flow id="JF87993" begin="240" fromJunction="J3" toJunction="J4" end="300" vehsPerHour="89.62303485498452"/>
  <flow id="JF87994" begin="300" fromJunction="J0" toJunction="J3" end="360" vehsPerHour="155.87160488618167"/>
  <flow id="JF87995" begin="300" fromJunction="J3" toJunction="J0" end="360" vehsPerHour="427.50709911415237"/>
  <flow id="JF87996" begin="300" fromJunction="J0" toJunction="J2" end="360" vehsPerHour="60.09835286658874"/>
  <flow id="JF87997" begin="300" fromJunction="J0" toJunction="J4" end="360" vehsPerHour="25.320004642873553"/>
  <flow id="JF87998" begin="300" fromJunction="J3" toJunction="J2" end="360" vehsPerHour="22.83430327940543"/>
  <flow id="JF87999" begin="300" fromJunction="J3" toJunction="J4" end="360" vehsPerHour="25.009153331370694"/>
  <flow id="JF88000" begin="300" fromJunction="J2" toJunction="J4" end="360" vehsPerHour="123.3145365526263"/>
  <flow id="JF88001" begin="300" fromJunction="J4" toJunction="J2" end="360" vehsPerHour="98.62657303216163"/>
  <flow id="JF88002" begin="300" fromJunction="J2" toJunction="J0" end="360" vehsPerHour="24.78169626728913"/>
  <flow id="JF88003" begin="300" fromJunction="J2" toJunction="J3" end="360" vehsPerHour="2.0409176206239494"/>
  <flow id="JF88004" begin="300" fromJunction="J4" toJunction="J0" end="360" vehsPerHour="14.665068549184625"/>
  <flow id="JF88005" begin="300" fromJunction="J4" toJunction="J3" end="360" vehsPerHour="69.08620276332746"/>
  <flow id="JF88006" begin="360" fromJunction="J0" toJunction="J3" end="420" vehsPerHour="500.21662512960194"/>
  <flow id="JF88007" begin="360" fromJunction="J3" toJunction="J0" end="420" vehsPerHour="445.3549798222717"/>
  <flow id="JF88008" begin="360" fromJunction="J0" toJunction="J2" end="420" vehsPerHour="128.2139399927719"/>
  <flow id="JF88009" begin="360" fromJunction="J0" toJunction="J4" end="420" vehsPerHour="80.80910384536179"/>
  <flow id="JF88010" begin="360" fromJunction="J3" toJunction="J2" end="420" vehsPerHour="84.47313626213115"/>
  <flow id="JF88011" begin="360" fromJunction="J3" toJunction="J4" end="420" vehsPerHour="7.284911134430876"/>
  <flow id="JF88012" begin="360" fromJunction="J2" toJunction="J4" end="420" vehsPerHour="30.855609041110746"/>
  <flow id="JF88013" begin="360" fromJunction="J4" toJunction="J2" end="420" vehsPerHour="4.063679223248739"/>
  <flow id="JF88014" begin="360" fromJunction="J2" toJunction="J0" end="420" vehsPerHour="11.44503237752487"/>
  <flow id="JF88015" begin="360" fromJunction="J2" toJunction="J3" end="420" vehsPerHour="69.18950828291331"/>
  <flow id="JF88016" begin="360" fromJunction="J4" toJunction="J0" end="420" vehsPerHour="101.14311868038408"/>
  <flow id="JF88017" begin="360" fromJunction="J4" toJunction="J3" end="420" vehsPerHour="67.6354787161508"/>
  <flow id="JF88018" begin="420" fromJunction="J0" toJunction="J3" end="480" vehsPerHour="300.15508954711083"/>
  <flow id="JF88019" begin="420" fromJunction="J3" toJunction="J0" end="480" vehsPerHour="41.992589973966716"/>
  <flow id="JF88020" begin="420" fromJunction="J0" toJunction="J2" end="480" vehsPerHour="89.89841468419571"/>
  <flow id="JF88021" begin="420" fromJunction="J0" toJunction="J4" end="480" vehsPerHour="28.494663347692285"/>
  <flow id="JF88022" begin="420" fromJunction="J3" toJunction="J2" end="480" vehsPerHour="14.421946324117696"/>
  <flow id="JF88023" begin="420" fromJunction="J3" toJunction="J4" end="480" vehsPerHour="125.91727241982504"/>
  <flow id="JF88024" begin="420" fromJunction="J2" toJunction="J4" end="480" vehsPerHour="92.70190538661082"/>
  <flow id="JF88025" begin="420" fromJunction="J4" toJunction="J2" end="480" vehsPerHour="22.4702257468372"/>
  <flow id="JF88026" begin="420" fromJunction="J2" toJunction="J0" end="480" vehsPerHour="49.70062089753126"/>
  <flow id="JF88027" begin="420" fromJunction="J2" toJunction="J3" end="480" vehsPerHour="131.8956442896183"/>
  <flow id="JF88028" begin="420" fromJunction="J4" toJunction="J0" end="480" vehsPerHour="27.42546330181267"/>
  <flow id="JF88029" begin="420" fromJunction="J4" toJunction="J3" end="480" vehsPerHour="104.0664658491728"/>
  <flow id="JF88030" begin="480" fromJunction="J0" toJunction="J3" end="540" vehsPerHour="133.27035756980607"/>
  <flow id="JF88031" begin="480" fromJunction="J3" toJunction="J0" end="540" vehsPerHour="306.5415129175941"/>
  <flow id="JF88032" begin="480" fromJunction="J0" toJunction="J2" end="540" vehsPerHour="89.14238255406718"/>
  <flow id="JF88033" begin="480" fromJunction="J0" toJunction="J4" end="540" vehsPerHour="48.752671139638565"/>
  <flow id="JF88034" begin="480" fromJunction="J3" toJunction="J2" end="540" vehsPerHour="99.9275077727437"/>
  <flow id="JF88035" begin="480" fromJunction="J3" toJunction="J4" end="540" vehsPerHour="74.55573668674194"/>
  <flow id="JF88036" begin="540" fromJunction="J0" toJunction="J3" end="600" vehsPerHour="262.96583378399873"/>
  <flow id="JF88037" begin="540" fromJunction="J3" toJunction="J0" end="600" vehsPerHour="479.12468521993657"/>
  <flow id="JF88038" begin="540" fromJunction="J0" toJunction="J2" end="600" vehsPerHour="58.29972245668367"/>
  <flow id="JF88039" begin="540" fromJunction="J0" toJunction="J4" end="600" vehsPerHour="47.011776623936846"/>
  <flow id="JF88040" begin="540" fromJunction="J3" toJunction="J2" end="600" vehsPerHour="110.43350552342837"/>
  <flow id="JF88041" begin="540" fromJunction="J3" toJunction="J4" end="600" vehsPerHour="94.01898933652568"/>
  <flow id="JF88042" begin="540" fromJunction="J2" toJunction="J4" end="600" vehsPerHour="58.15617632292577"/>
  <flow id="JF88043" begin="540" fromJunction="J4" toJunction="J2" end="600" vehsPerHour="53.72105609617417"/>
  <flow id="JF88044" begin="540" fromJunction="J2" toJunction="J0" end="600" vehsPerHour="110.9261335413847"/>
  <flow id="JF88045" begin="540" fromJunction="J2" toJunction="J3" end="600" vehsPerHour="96.01371597558068"/>
  <flow id="JF88046" begin="540" fromJunction="J4" toJunction="J0" end="600" vehsPerHour="63.31131673169684"/>
  <flow id="JF88047" begin="540" fromJunction="J4" toJunction="J3" end="600" vehsPerHour="127.3246419539134"/>
  <flow id="JF88048" begin="600" fromJunction="J0" toJunction="J3" end="660" vehsPerHour="437.6755522623401"/>
  <flow id="JF88049" begin="600" fromJunction="J3" toJunction="J0" end="660" vehsPerHour="27.718476768289232"/>
  <flow id="JF88050" begin="600" fromJunction="J0" toJunction="J2" end="660" vehsPerHour="79.25112786452162"/>
  <flow id="JF88051" begin="600" fromJunction="J0" toJunction="J4" end="660" vehsPerHour="78.59774024836332"/>
  <flow id="JF88052" begin="600" fromJunction="J3" toJunction="J2" end="660" vehsPerHour="114.95711039945083"/>
  <flow id="JF88053" begin="600" fromJunction="J3" toJunction="J4" end="660" vehsPerHour="74.63081396512523"/>
  <flow id="JF88054" begin="660" fromJunction="J0" toJunction="J3" end="720" vehsPerHour="50.930271696747084"/>
  <flow id="JF88055" begin="660" fromJunction="J3" toJunction="J0" end="720" vehsPerHour="118.24666010829105"/>
  <flow id="JF88056" begin="660" fromJunction="J0" toJunction="J2" end="720" vehsPerHour="1.605841207127662"/>
  <flow id="JF88057" begin="660" fromJunction="J0" toJunction="J4" end="720" vehsPerHour="123.5992108460553"/>
  <flow id="JF88058" begin="660" fromJunction="J3" toJunction="J2" end="720" vehsPerHour="58.924803079083965"/>
  <flow id="JF88059" begin="660" fromJunction="J3" toJunction="J4" end="720" vehsPerHour="128.1097471280156"/>
  <flow id="JF88060" begin="720" fromJunction="J0" toJunction="J3" end="780" vehsPerHour="398.88228463388003"/>
  <flow id="JF88061" begin="720" fromJunction="J3" toJunction="J0" end="780" vehsPerHour="176.35073377843673"/>
  <flow id="JF88062" begin="720" fromJunction="J0" toJunction="J2" end="780" vehsPerHour="43.09675234000103"/>
  <flow id="JF88063" begin="720" fromJunction="J0" toJunction="J4" end="780" vehsPerHour="78.24024528861666"/>
  <flow id="JF88064" begin="720" fromJunction="J3" toJunction="J2" end="780" vehsPerHour="0.25565211187410014"/>
  <flow id="JF88065" begin="720" fromJunction="J3" toJunction="J4" end="780" vehsPerHour="110.23656705277443"/>
  <flow id="JF88066" begin="720" fromJunction="J2" toJunction="J4" end="780" vehsPerHour="38.56569398071127"/>
  <flow id="JF88067" begin="720" fromJunction="J4" toJunction="J2" end="780" vehsPerHour="20.8466975808846"/>
  <flow id="JF88068" begin="720" fromJunction="J2" toJunction="J0" end="780" vehsPerHour="77.88290204352028"/>
  <flow id="JF88069" begin="720" fromJunction="J2" toJunction="J3" end="780" vehsPerHour="100.77994185250041"/>
  <flow id="JF88070" begin="720" fromJunction="J4" toJunction="J0" end="780" vehsPerHour="93.9006868551677"/>
  <flow id="JF88071" begin="720" fromJunction="J4" toJunction="J3" end="780" vehsPerHour="9.3475854908567"/>
  <flow id="JF88072" begin="780" fromJunction="J0" toJunction="J3" end="840" vehsPerHour="223.04269037075807"/>
  <flow id="JF88073" begin="780" fromJunction="J3" toJunction="J0" end="840" vehsPerHour="389.1204431495883"/>
  <flow id="JF88074" begin="780" fromJunction="J0" toJunction="J2" end="840" vehsPerHour="95.32113589588258"/>
  <flow id="JF88075" begin="780" fromJunction="J0" toJunction="J4" end="840" vehsPerHour="84.1602546800514"/>
  <flow id="JF88076" begin="780" fromJunction="J3" toJunction="J2" end="840" vehsPerHour="13.804068556507302"/>
  <flow id="JF88077" begin="780" fromJunction="J3" toJunction="J4" end="840" vehsPerHour="22.782219580026293"/>
  <flow id="JF88078" begin="780" fromJunction="J2" toJunction="J4" end="840" vehsPerHour="72.20342585906324"/>
  <flow id="JF88079" begin="780" fromJunction="J4" toJunction="J2" end="840" vehsPerHour="71.4928462403151"/>
  <flow id="JF88080" begin="780" fromJunction="J2" toJunction="J0" end="840" vehsPerHour="36.98054201499431"/>
  <flow id="JF88081" begin="780" fromJunction="J2" toJunction="J3" end="840" vehsPerHour="15.976035991004089"/>
  <flow id="JF88082" begin="780" fromJunction="J4" toJunction="J0" end="840" vehsPerHour="85.347187671121"/>
  <flow id="JF88083" begin="780" fromJunction="J4" toJunction="J3" end="840" vehsPerHour="7.239134282173972"/>
  <flow id="JF88084" begin="840" fromJunction="J0" toJunction="J3" end="900" vehsPerHour="300.52824314134136"/>
  <flow id="JF88085" begin="840" fromJunction="J3" toJunction="J0" end="900" vehsPerHour="216.04843832482845"/>
  <flow id="JF88086" begin="840" fromJunction="J0" toJunction="J2" end="900" vehsPerHour="70.98718298430849"/>
  <flow id="JF88087" begin="840" fromJunction="J0" toJunction="J4" end="900" vehsPerHour="47.256848111271246"/>
  <flow id="JF88088" begin="840" fromJunction="J3" toJunction="J2" end="900" vehsPerHour="13.818067118721581"/>
  <flow id="JF88089" begin="840" fromJunction="J3" toJunction="J4" end="900" vehsPerHour="52.14752612196783"/>
  <flow id="JF88090" begin="840" fromJunction="J2" toJunction="J4" end="900" vehsPerHour="38.634830683755055"/>
  <flow id="JF88091" begin="840" fromJunction="J4" toJunction="J2" end="900" vehsPerHour="18.221002261778512"/>
  <flow id="JF88092" begin="840" fromJunction="J2" toJunction="J0" end="900" vehsPerHour="71.21823807507988"/>
  <flow id="JF88093" begin="840" fromJunction="J2" toJunction="J3" end="900" vehsPerHour="100.12476096105289"/>
  <flow id="JF88094" begin="840" fromJunction="J4" toJunction="J0" end="900" vehsPerHour="48.656570432248394"/>
  <flow id="JF88095" begin="840" fromJunction="J4" toJunction="J3" end="900" vehsPerHour="70.95629429558818"/>
  <flow id="JF88096" begin="900" fromJunction="J0" toJunction="J3" end="960" vehsPerHour="422.17719334720005"/>
  <flow id="JF88097" begin="900" fromJunction="J3" toJunction="J0" end="960" vehsPerHour="394.91853541768927"/>
  <flow id="JF88098" begin="900" fromJunction="J0" toJunction="J2" end="960" vehsPerHour="30.04006555893828"/>
  <flow id="JF88099" begin="900" fromJunction="J0" toJunction="J4" end="960" vehsPerHour="111.26040935195734"/>
  <flow id="JF88100" begin="900" fromJunction="J3" toJunction="J2" end="960" vehsPerHour="120.13767267123227"/>
  <flow id="JF88101" begin="900" fromJunction="J3" toJunction="J4" end="960" vehsPerHour="83.94850679715462"/>
  <flow id="JF88102" begin="900" fromJunction="J2" toJunction="J4" end="960" vehsPerHour="136.32496363098699"/>
  <flow id="JF88103" begin="900" fromJunction="J4" toJunction="J2" end="960" vehsPerHour="132.78612465128842"/>
  <flow id="JF88104" begin="900" fromJunction="J2" toJunction="J0" end="960" vehsPerHour="8.20890813906689"/>
  <flow id="JF88105" begin="900" fromJunction="J2" toJunction="J3" end="960" vehsPerHour="128.209778701925"/>
  <flow id="JF88106" begin="900" fromJunction="J4" toJunction="J0" end="960" vehsPerHour="114.19130024196032"/>
  <flow id="JF88107" begin="900" fromJunction="J4" toJunction="J3" end="960" vehsPerHour="75.45556700299026"/>
  <flow id="JF88108" begin="960" fromJunction="J0" toJunction="J3" end="1020" vehsPerHour="255.74993139935813"/>
  <flow id="JF88109" begin="960" fromJunction="J3" toJunction="J0" end="1020" vehsPerHour="467.6950528981826"/>
  <flow id="JF88110" begin="960" fromJunction="J0" toJunction="J2" end="1020" vehsPerHour="132.5777869657769"/>
  <flow id="JF88111" begin="960" fromJunction="J0" toJunction="J4" end="1020" vehsPerHour="70.30815058408184"/>
  <flow id="JF88112" begin="960" fromJunction="J3" toJunction="J2" end="1020" vehsPerHour="63.0508892754645"/>
  <flow id="JF88113" begin="960" fromJunction="J3" toJunction="J4" end="1020" vehsPerHour="11.142397087145431"/>
  <flow id="JF88114" begin="1020" fromJunction="J0" toJunction="J3" end="1080" vehsPerHour="11.726065029287206"/>
  <flow id="JF88115" begin="1020" fromJunction="J3" toJunction="J0" end="1080" vehsPerHour="245.1623520104805"/>
  <flow id="JF88116" begin="1020" fromJunction="J0" toJunction="J2" end="1080" vehsPerHour="126.8291649041922"/>
  <flow id="JF88117" begin="1020" fromJunction="J0" toJunction="J4" end="1080" vehsPerHour="58.074513463440795"/>
  <flow id="JF88118" begin="1020" fromJunction="J3" toJunction="J2" end="1080" vehsPerHour="5.493842774964974"/>
  <flow id="JF88119" begin="1020" fromJunction="J3" toJunction="J4" end="1080" vehsPerHour="62.94413708211061"/>
  <flow id="JF88120" begin="1080" fromJunction="J0" toJunction="J3" end="1140" vehsPerHour="373.0931777525455"/>
  <flow id="JF88121" begin="1080" fromJunction="J3" toJunction="J0" end="1140" vehsPerHour="83.55699704929748"/>
  <flow id="JF88122" begin="1080" fromJunction="J0" toJunction="J2" end="1140" vehsPerHour="69.33683687043296"/>
  <flow id="JF88123" begin="1080" fromJunction="J0" toJunction="J4" end="1140" vehsPerHour="62.55605239937223"/>
  <flow id="JF88124" begin="1080" fromJunction="J3" toJunction="J2" end="1140" vehsPerHour="38.822405118452124"/>
  <flow id="JF88125" begin="1080" fromJunction="J3" toJunction="J4" end="1140" vehsPerHour="29.954454719666575"/>
  <flow id="JF88126" begin="1140" fromJunction="J0" toJunction="J3" end="1200" vehsPerHour="224.2694888147998"/>
  <flow id="JF88127" begin="1140" fromJunction="J3" toJunction="J0" end="1200" vehsPerHour="265.9359557865177"/>
  <flow id="JF88128" begin="1140" fromJunction="J0" toJunction="J2" end="1200" vehsPerHour="86.98592243038293"/>
  <flow id="JF88129" begin="1140" fromJunction="J0" toJunction="J4" end="1200" vehsPerHour="70.07351962655952"/>
  <flow id="JF88130" begin="1140" fromJunction="J3" toJunction="J2" end="1200" vehsPerHour="93.23890162471241"/>
  <flow id="JF88131" begin="1140" fromJunction="J3" toJunction="J4" end="1200" vehsPerHour="133.49460146154394"/>
  <flow id="JF88132" begin="1140" fromJunction="J2" toJunction="J4" end="1200" vehsPerHour="116.54989148228685"/>
  <flow id="JF88133" begin="1140" fromJunction="J4" toJunction="J2" end="1200" vehsPerHour="125.05677685189866"/>
  <flow id="JF88134" begin="1140" fromJunction="J2" toJunction="J0" end="1200" vehsPerHour="22.098665613103087"/>
  <flow id="JF88135" begin="1140" fromJunction="J2" toJunction="J3" end="1200" vehsPerHour="124.4170288522782"/>
  <flow id="JF88136" begin="1140" fromJunction="J4" toJunction="J0" end="1200" vehsPerHour="125.8659786698471"/>
  <flow id="JF88137" begin="1140" fromJunction="J4" toJunction="J3" end="1200" vehsPerHour="20.511969422619412"/>
  <flow id="JF88138" begin="1200" fromJunction="J0" toJunction="J3" end="1260" vehsPerHour="509.9573465364464"/>
  <flow id="JF88139" begin="1200" fromJunction="J3" toJunction="J0" end="1260" vehsPerHour="526.7346450420623"/>
  <flow id="JF88140" begin="1200" fromJunction="J0" toJunction="J2" end="1260" vehsPerHour="33.478668306085474"/>
  <flow id="JF88141" begin="1200" fromJunction="J0" toJunction="J4" end="1260" vehsPerHour="96.10040407830354"/>
  <flow id="JF88142" begin="1200" fromJunction="J3" toJunction="J2" end="1260" vehsPerHour="28.079292082963537"/>
  <flow id="JF88143" begin="1200" fromJunction="J3" toJunction="J4" end="1260" vehsPerHour="104.1148416801548"/>
  <flow id="JF88144" begin="1200" fromJunction="J2" toJunction="J4" end="1260" vehsPerHour="28.342036796331115"/>
  <flow id="JF88145" begin="1200" fromJunction="J4" toJunction="J2" end="1260" vehsPerHour="100.11817234664447"/>
  <flow id="JF88146" begin="1200" fromJunction="J2" toJunction="J0" end="1260" vehsPerHour="82.61468621721365"/>
  <flow id="JF88147" begin="1200" fromJunction="J2" toJunction="J3" end="1260" vehsPerHour="113.98394155008121"/>
  <flow id="JF88148" begin="1200" fromJunction="J4" toJunction="J0" end="1260" vehsPerHour="22.99203469453765"/>
  <flow id="JF88149" begin="1200" fromJunction="J4" toJunction="J3" end="1260" vehsPerHour="114.35084011511807"/>
  <flow id="JF88150" begin="1260" fromJunction="J0" toJunction="J3" end="1320" vehsPerHour="147.27470254125515"/>
  <flow id="JF88151" begin="1260" fromJunction="J3" toJunction="J0" end="1320" vehsPerHour="144.58214606800226"/>
  <flow id="JF88152" begin="1260" fromJunction="J0" toJunction="J2" end="1320" vehsPerHour="121.32503985846688"/>
  <flow id="JF88153" begin="1260" fromJunction="J0" toJunction="J4" end="1320" vehsPerHour="109.78862919087862"/>
  <flow id="JF88154" begin="1260" fromJunction="J3" toJunction="J2" end="1320" vehsPerHour="116.52400568277858"/>
  <flow id="JF88155" begin="1260" fromJunction="J3" toJunction="J4" end="1320" vehsPerHour="19.724759647506"/>
  <flow id="JF88156" begin="1320" fromJunction="J0" toJunction="J3" end="1380" vehsPerHour="138.47191104152137"/>
  <flow id="JF88157" begin="1320" fromJunction="J3" toJunction="J0" end="1380" vehsPerHour="388.25655096614724"/>
  <flow id="JF88158" begin="1320" fromJunction="J0" toJunction="J2" end="1380" vehsPerHour="20.55978690896215"/>
  <flow id="JF88159" begin="1320" fromJunction="J0" toJunction="J4" end="1380" vehsPerHour="68.7493968593113"/>
  <flow id="JF88160" begin="1320" fromJunction="J3" toJunction="J2" end="1380" vehsPerHour="124.85268216693714"/>
  <flow id="JF88161" begin="1320" fromJunction="J3" toJunction="J4" end="1380" vehsPerHour="3.191497552436904"/>
  <flow id="JF88162" begin="1320" fromJunction="J2" toJunction="J4" end="1380" vehsPerHour="26.622014169259725"/>
  <flow id="JF88163" begin="1320" fromJunction="J4" toJunction="J2" end="1380" vehsPerHour="95.88363990394767"/>
  <flow id="JF88164" begin="1320" fromJunction="J2" toJunction="J0" end="1380" vehsPerHour="66.85621278609783"/>
  <flow id="JF88165" begin="1320" fromJunction="J2" toJunction="J3" end="1380" vehsPerHour="53.61719405449415"/>
  <flow id="JF88166" begin="1320" fromJunction="J4" toJunction="J0" end="1380" vehsPerHour="43.08486969923495"/>
  <flow id="JF88167" begin="1320" fromJunction="J4" toJunction="J3" end="1380" vehsPerHour="128.8133861350581"/>
  <flow id="JF88168" begin="1380" fromJunction="J0" toJunction="J3" end="1440" vehsPerHour="371.760162533657"/>
  <flow id="JF88169" begin="1380" fromJunction="J3" toJunction="J0" end="1440" vehsPerHour="288.31523609795755"/>
  <flow id="JF88170" begin="1380" fromJunction="J0" toJunction="J2" end="1440" vehsPerHour="99.49526012153336"/>
  <flow id="JF88171" begin="1380" fromJunction="J0" toJunction="J4" end="1440" vehsPerHour="37.214005100947006"/>
  <flow id="JF88172" begin="1380" fromJunction="J3" toJunction="J2" end="1440" vehsPerHour="106.86764060006712"/>
  <flow id="JF88173" begin="1380" fromJunction="J3" toJunction="J4" end="1440" vehsPerHour="121.57762098850084"/>
  <flow id="JF88174" begin="1440" fromJunction="J0" toJunction="J3" end="1500" vehsPerHour="348.6311623743089"/>
  <flow id="JF88175" begin="1440" fromJunction="J3" toJunction="J0" end="1500" vehsPerHour="277.6815101444478"/>
  <flow id="JF88176" begin="1440" fromJunction="J0" toJunction="J2" end="1500" vehsPerHour="25.444817038372992"/>
  <flow id="JF88177" begin="1440" fromJunction="J0" toJunction="J4" end="1500" vehsPerHour="117.55612992176351"/>
  <flow id="JF88178" begin="1440" fromJunction="J3" toJunction="J2" end="1500" vehsPerHour="93.79085314051858"/>
  <flow id="JF88179" begin="1440" fromJunction="J3" toJunction="J4" end="1500" vehsPerHour="117.72012344400643"/>
  <flow id="JF88180" begin="1440" fromJunction="J2" toJunction="J4" end="1500" vehsPerHour="129.27851702275157"/>
  <flow id="JF88181" begin="1440" fromJunction="J4" toJunction="J2" end="1500" vehsPerHour="62.61745527467996"/>
  <flow id="JF88182" begin="1440" fromJunction="J2" toJunction="J0" end="1500" vehsPerHour="71.54253713166653"/>
  <flow id="JF88183" begin="1440" fromJunction="J2" toJunction="J3" end="1500" vehsPerHour="5.406500718579353"/>
  <flow id="JF88184" begin="1440" fromJunction="J4" toJunction="J0" end="1500" vehsPerHour="70.2238484610538"/>
  <flow id="JF88185" begin="1440" fromJunction="J4" toJunction="J3" end="1500" vehsPerHour="78.65984250403261"/>
  <flow id="JF88186" begin="1500" fromJunction="J0" toJunction="J3" end="1560" vehsPerHour="385.2245378254434"/>
  <flow id="JF88187" begin="1500" fromJunction="J3" toJunction="J0" end="1560" vehsPerHour="346.3930322840971"/>
  <flow id="JF88188" begin="1500" fromJunction="J0" toJunction="J2" end="1560" vehsPerHour="134.3272625700662"/>
  <flow id="JF88189" begin="1500" fromJunction="J0" toJunction="J4" end="1560" vehsPerHour="59.78598717067545"/>
  <flow id="JF88190" begin="1500" fromJunction="J3" toJunction="J2" end="1560" vehsPerHour="129.797320722697"/>
  <flow id="JF88191" begin="1500" fromJunction="J3" toJunction="J4" end="1560" vehsPerHour="5.12091101447061"/>
  <flow id="JF88192" begin="1500" fromJunction="J2" toJunction="J4" end="1560" vehsPerHour="17.857004288967413"/>
  <flow id="JF88193" begin="1500" fromJunction="J4" toJunction="J2" end="1560" vehsPerHour="2.288343340321305"/>
  <flow id="JF88194" begin="1500" fromJunction="J2" toJunction="J0" end="1560" vehsPerHour="134.45097349105106"/>
  <flow id="JF88195" begin="1500" fromJunction="J2" toJunction="J3" end="1560" vehsPerHour="94.08355946626222"/>
  <flow id="JF88196" begin="1500" fromJunction="J4" toJunction="J0" end="1560" vehsPerHour="38.9756235339728"/>
  <flow id="JF88197" begin="1500" fromJunction="J4" toJunction="J3" end="1560" vehsPerHour="14.768052049300714"/>
  <flow id="JF88198" begin="1560" fromJunction="J0" toJunction="J3" end="1620" vehsPerHour="202.84818184378915"/>
  <flow id="JF88199" begin="1560" fromJunction="J3" toJunction="J0" end="1620" vehsPerHour="314.04237061623763"/>
  <flow id="JF88200" begin="1560" fromJunction="J0" toJunction="J2" end="1620" vehsPerHour="67.28969450222942"/>
  <flow id="JF88201" begin="1560" fromJunction="J0" toJunction="J4" end="1620" vehsPerHour="119.77446331888954"/>
  <flow id="JF88202" begin="1560" fromJunction="J3" toJunction="J2" end="1620" vehsPerHour="71.5651735780193"/>
  <flow id="JF88203" begin="1560" fromJunction="J3" toJunction="J4" end="1620" vehsPerHour="127.68123859301649"/>
  <flow id="JF88204" begin="1560" fromJunction="J2" toJunction="J4" end="1620" vehsPerHour="25.960735866238117"/>
  <flow id="JF88205" begin="1560" fromJunction="J4" toJunction="J2" end="1620" vehsPerHour="29.748698225222153"/>