<?xml version="1.0" encoding="UTF-8"?>
<routes xmlns:xsi="http://www.w3.org/2001/XMLSchema-instance" xsi:noNamespaceSchemaLocation="http://sumo.dlr.de/xsd/routes_file.xsd">
  <flow id="JF87070" begin="0" fromJunction="J0" toJunction="J3" end="60" vehsPerHour="195.9028612978542"/>
  <flow id="JF87071" begin="0" fromJunction="J3" toJunction="J0" end="60" vehsPerHour="249.5430498596101"/>
  <flow id="JF87072" begin="0" fromJunction="J0" toJunction="J2" end="60" vehsPerHour="114.22781070752802"/>
  <flow id="JF87073" begin="0" fromJunction="J0" toJunction="J4" end="60" vehsPerHour="129.50801549290483"/>
  <flow id="JF87074" begin="0" fromJunction="J3" toJunction="J2" end="60" vehsPerHour="22.20563550460968"/>
  <flow id="JF87075" begin="0" fromJunction="J3" toJunction="J4" end="60" vehsPerHour="116.70223971739853"/>
  <flow id="JF87076" begin="0" fromJunction="J2" toJunction="J4" end="60" vehsPerHour="126.72002573859744"/>
  <flow id="JF87077" begin="0" fromJunction="J4" toJunction="J2" end="60" vehsPerHour="22.245285664303708"/>
  <flow id="JF87078" begin="0" fromJunction="J2" toJunction="J0" end="60" vehsPerHour="12.095555497484217"/>
  <flow id="JF87079" begin="0" fromJunction="J2" toJunction="J3" end="60" vehsPerHour="0.36339908231352547"/>
  <flow id="JF87080" begin="0" fromJunction="J4" toJunction="J0" end="60" vehsPerHour="92.25655052551288"/>
  <flow id="JF87081" begin="0" fromJunction="J4" toJunction="J3" end="60" vehsPerHour="34.29910418513519"/>
  <flow id="JF87082" begin="60" fromJunction="J0" toJunction="J3" end="120" vehsPerHour="383.85972589971124"/>
  <flow id="JF87083" begin="60" fromJunction="J3" toJunction="J0" end="120" vehsPerHour="70.44876635825446"/>
  <flow id="JF87084" begin="60" fromJunction="J0" toJunction="J2" end="120" vehsPerHour="27.851413566313482"/>
  <flow id="JF87085" begin="60" fromJunction="J0" toJunction="J4" end="120" vehsPerHour="21.680793899530368"/>
  <flow id="JF87086" begin="60" fromJunction="J3" toJunction="J2" end="120" vehsPerHour="83.09210236967164"/>
  <flow id="JF87087" begin="60" fromJunction="J3" toJunction="J4" end="120" vehsPerHour="116.80617611396204"/>
  <flow id="JF87088" begin="60" fromJunction="J2" toJunction="J4" end="120" vehsPerHour="55.47868943404728"/>
  <flow id="JF87089" begin="60" fromJunction="J4" toJunction="J2" end="120" vehsPerHour="36.28782477586566"/>
  <flow id="JF87090" begin="60" fromJunction="J2" toJunction="J0" end="120" vehsPerHour="78.28307466381393"/>
  <flow id="JF87091" begin="60" fromJunction="J2" toJunction="J3" end="120" vehsPerHour="97.85939781480697"/>
  <flow id="JF87092" begin="60" fromJunction="J4" toJunction="J0" end="120" vehsPerHour="123.4472397201795"/>
  <flow id="JF87093" begin="60" fromJunction="J4" toJunction="J3" end="120" vehsPerHour="93.23169279714278"/>
  <flow id="JF87094" begin="120" fromJunction="J0" toJunction="J3" end="180" vehsPerHour="20.54129876569505"/>
  <flow id="JF87095" begin="120" fromJunction="J3" toJunction="J0" end="180" vehsPerHour="62.59002176450345"/>
  <flow id="JF87096" begin="120" fromJunction="J0" toJunction="J2" end="180" vehsPerHour="22.179756633063334"/>
  <flow id="JF87097" begin="120" fromJunction="J0" toJunction="J4" end="180" vehsPerHour="133.69455393611918"/>
  <flow id="JF87098" begin="120" fromJunction="J3" toJunction="J2" end="180" vehsPerHour="39.99093011392417"/>
  <flow id="JF87099" begin="120" fromJunction="J3" toJunction="J4" end="180" vehsPerHour="46.72720983431647"/>
  <flow id="JF87100" begin="120" fromJunction="J2" toJunction="J4" end="180" vehsPerHour="14.09870160811456"/>
  <flow id="JF87101" begin="120" fromJunction="J4" toJunction="J2" end="180" vehsPerHour="113.87460368255044"/>
  <flow id="JF87102" begin="120" fromJunction="J2" toJunction="J0" end="180" vehsPerHour="107.33926221650778"/>
  <flow id="JF87103" begin="120" fromJunction="J2" toJunction="J3" end="180" vehsPerHour="17.316866212678658"/>
  <flow id="JF87104" begin="120" fromJunction="J4" toJunction="J0" end="180" vehsPerHour="45.37379760141188"/>
  <flow id="JF87105" begin="120" fromJunction="J4" toJunction="J3" end="180" vehsPerHour="9.724243475910392"/>
  <flow id="JF87106" begin="180" fromJunction="J0" toJunction="J3" end="240" vehsPerHour="338.4929517712598"/>
  <flow id="JF87107" begin="180" fromJunction="J3" toJunction="J0" end="240" vehsPerHour="86.31750209352248"/>
  <flow id="JF87108" begin="180" fromJunction="J0" toJunction="J2" end="240" vehsPerHour="136.05206238430785"/>
  <flow id="JF87109" begin="180" fromJunction="J0" toJunction="J4" end="240" vehsPerHour="75.50425050139398"/>
  <flow id="JF87110" begin="180" fromJunction="J3" toJunction="J2" end="240" vehsPerHour="6.531858595708782"/>
  <flow id="JF87111" begin="180" fromJunction="J3" toJunction="J4" end="240" vehsPerHour="67.06713490241447"/>
  <flow id="JF87112" begin="180" fromJunction="J2" toJunction="J4" end="240" vehsPerHour="19.896258086903746"/>
  <flow id="JF87113" begin="180" fromJunction="J4" toJunction="J2" end="240" vehsPerHour="53.83211548672979"/>
  <flow id="JF87114" begin="180" fromJunction="J2" toJunction="J0" end="240" vehsPerHour="34.160771600984546"/>
  <flow id="JF87115" begin="180" fromJunction="J2" toJunction="J3" end="240" vehsPerHour="35.368268088615224"/>
  <flow id="JF87116" begin="180" fromJunction="J4" toJunction="J0" end="240" vehsPerHour="84.56024165610054"/>
  <flow id="JF87117" begin="180" fromJunction="J4" toJunction="J3" end="240" vehsPerHour="48.61160123189589"/>
  <flow id="JF87118" begin="240" fromJunction="J0" toJunction="J3" end="300" vehsPerHour="177.95276116939715"/>
  <flow id="JF87119" begin="240" fromJunction="J3" toJunction="J0" end="300" vehsPerHour="501.6939350988477"/>
  <flow id="JF87120" begin="240" fromJunction="J0" toJunction="J2" end="300" vehsPerHour="46.88804755615355"/>
  <flow id="JF87121" begin="240" fromJunction="J0" toJunction="J4" end="300" vehsPerHour="103.44144480297578"/>
  <flow id="JF87122" begin="240" fromJunction="J3" toJunction="J2" end="300" vehsPerHour="121.52260212935835"/>
  <flow id="JF87123" begin="240" fromJunction="J3" toJunction="J4" end="300" vehsPerHour="89.72842258047294"/>
  <flow id="JF87124" begin="240" fromJunction="J2" toJunction="J4" end="300" vehsPerHour="128.9482292284238"/>
  <flow id="JF87125" begin="240" fromJunction="J4" toJunction="J2" end="300" vehsPerHour="134.7374701966963"/>
  <flow id="JF87126" begin="240" fromJunction="J2" toJunction="J0" end="300" vehsPerHour="71.28258114123064"/>
  <flow id="JF87127" begin="240" fromJunction="J2" toJunction="J3" end="300" vehsPerHour="116.36087596860146"/>
  <flow id="JF87128" begin="240" fromJunction="J4" toJunction="J0" end="300" vehsPerHour="35.7390681669594"/>
  <flow id="JF87129" begin="240" fromJunction="J4" toJunction="J3" end="300" vehsPerHour="107.21812080778594"/>
  <flow id="JF87130" begin="300" fromJunction="J0" toJunction="J3" end="360" vehsPerHour="397.9005769302537"/>
  <flow id="JF87131" begin="300" fromJunction="J3" toJunction="J0" end="360" vehsPerHour="62.550004504423924"/>
  <flow id="JF87132" begin="300" fromJunction="J0" toJunction="J2" end="360" vehsPerHour="23.630541869192115"/>
  <flow id="JF87133" begin="300" fromJunction="J0" toJunction="J4" end="360" vehsPerHour="131.31355848421748"/>
  <flow id="JF87134" begin="300" fromJunction="J3" toJunction="J2" end="360" vehsPerHour="64.75400616864555"/>
  <flow id="JF87135" begin="300" fromJunction="J3" toJunction="J4" end="360" vehsPerHour="95.91944683019157"/>
  <flow id="JF87136" begin="300" fromJunction="J2" toJunction="J4" end="360" vehsPerHour="132.48481598211896"/>
  <flow id="JF87137" begin="300" fromJunction="J4" toJunction="J2" end="360" vehsPerHour="30.792879411544675"/>
  <flow id="JF87138" begin="300" fromJunction="J2" toJunction="J0" end="360" vehsPerHour="2.6723763319015874"/>
  <flow id="JF87139" begin="300" fromJunction="J2" toJunction="J3" end="360" vehsPerHour="108.24322740026894"/>
  <flow id="JF87140" begin="300" fromJunction="J4" toJunction="J0" end="360" vehsPerHour="135.71238791383672"/>
  <flow id="JF87141" begin="300" fromJunction="J4" toJunction="J3" end="360" vehsPerHour="104.1476450317588"/>
  <flow id="JF87142" begin="360" fromJunction="J0" toJunction="J3" end="420" vehsPerHour="399.93498232796117"/>
  <flow id="JF87143" begin="360" fromJunction="J3" toJunction="J0" end="420" vehsPerHour="275.86708015910233"/>
  <flow id="JF87144" begin="360" fromJunction="J0" toJunction="J2" end="420" vehsPerHour="61.354633786415484"/>
  <flow id="JF87145" begin="360" fromJunction="J0" toJunction="J4" end="420" vehsPerHour="5.384383384095284"/>
  <flow id="JF87146" begin="360" fromJunction="J3" toJunction="J2" end="420" vehsPerHour="105.52906340910319"/>
  <flow id="JF87147" begin="360" fromJunction="J3" toJunction="J4" end="420" vehsPerHour="124.20042501543548"/>
  <flow id="JF87148" begin="360" fromJunction="J2" toJunction="J4" end="420" vehsPerHour="66.65515984651205"/>
  <flow id="JF87149" begin="360" fromJunction="J4" toJunction="J2" end="420" vehsPerHour="108.71565906602636"/>
  <flow id="JF87150" begin="360" fromJunction="J2" toJunction="J0" end="420" vehsPerHour="121.97418814029962"/>
  <flow id="JF87151" begin="360" fromJunction="J2" toJunction="J3" end="420" vehsPerHour="94.60098162905392"/>
  <flow id="JF87152" begin="360" fromJunction="J4" toJunction="J0" end="420" vehsPerHour="67.54877712201292"/>
  <flow id="JF87153" begin="360" fromJunction="J4" toJunction="J3" end="420" vehsPerHour="36.59712609836608"/>
  <flow id="JF87154" begin="420" fromJunction="J0" toJunction="J3" end="480" vehsPerHour="266.5319725641926"/>
  <flow id="JF87155" begin="420" fromJunction="J3" toJunction="J0" end="480" vehsPerHour="424.6509054517597"/>
  <flow id="JF87156" begin="420" fromJunction="J0" toJunction="J2" end="480" vehsPerHour="67.4395782689846"/>
  <flow id="JF87157" begin="420" fromJunction="J0" toJunction="J4" end="480" vehsPerHour="90.8071851896233"/>
  <flow id="JF87158" begin="420" fromJunction="J3" toJunction="J2" end="480" vehsPerHour="40.3310141979448"/>
  <flow id="JF87159" begin="420" fromJunction="J3" toJunction="J4" end="480" vehsPerHour="121.89795488641568"/>
  <flow id="JF87160" begin="480" fromJunction="J0" toJunction="J3" end="540" vehsPerHour="503.49004567854365"/>
  <flow id="JF87161" begin="480" fromJunction="J3" toJunction="J0" end="540" vehsPerHour="425.6536972056004"/>
  <flow id="JF87162" begin="480" fromJunction="J0" toJunction="J2" end="540" vehsPerHour="61.70625023928471"/>
  <flow id="JF87163" begin="480" fromJunction="J0" toJunction="J4" end="540" vehsPerHour="43.51758084705044"/>
  <flow id="JF87164" begin="480" fromJunction="J3" toJunction="J2" end="540" vehsPerHour="127.11591292248347"/>
  <flow id="JF87165" begin="480" fromJunction="J3" toJunction="J4" end="540" vehsPerHour="102.7977402060195"/>
  <flow id="JF87166" begin="480" fromJunction="J2" toJunction="J4" end="540" vehsPerHour="68.10849461052612"/>
  <flow id="JF87167" begin="480" fromJunction="J4" toJunction="J2" end="540" vehsPerHour="61.68734388508932"/>
  <flow id="JF87168" begin="480" fromJunction="J2" toJunction="J0" end="540" vehsPerHour="137.3961079394952"/>
  <flow id="JF87169" begin="480" fromJunction="J2" toJunction="J3" end="540" vehsPerHour="126.17218760524727"/>
  <flow id="JF87170" begin="480" fromJunction="J4" toJunction="J0" end="540" vehsPerHour="133.9178246449758"/>
  <flow id="JF87171" begin="480" fromJunction="J4" toJunction="J3" end="540" vehsPerHour="101.47201236577284"/>
  <flow id="JF87172" begin="540" fromJunction="J0" toJunction="J3" end="600" vehsPerHour="200.84308098464987"/>
  <flow id="JF87173" begin="540" fromJunction="J3" toJunction="J0" end="600" vehsPerHour="366.35138171822996"/>
  <flow id="JF87174" begin="540" fromJunction="J0" toJunction="J2" end="600" vehsPerHour="114.69104323561487"/>
  <flow id="JF87175" begin="540" fromJunction="J0" toJunction="J4" end="600" vehsPerHour="39.94804639863983"/>
  <flow id="JF87176" begin="540" fromJunction="J3" toJunction="J2" end="600" vehsPerHour="36.39300763042256"/>
  <flow id="JF87177" begin="540" fromJunction="J3" toJunction="J4" end="600" vehsPerHour="49.06601949679069"/>
  <flow id="JF87178" begin="540" fromJunction="J2" toJunction="J4" end="600" vehsPerHour="57.8785317923836"/>
  <flow id="JF87179" begin="540" fromJunction="J4" toJunction="J2" end="600" vehsPerHour="51.051462004192565"/>
  <flow id="JF87180" begin="540" fromJunction="J2" toJunction="J0" end="600" vehsPerHour="134.26088311801024"/>
  <flow id="JF87181" begin="540" fromJunction="J2" toJunction="J3" end="600" vehsPerHour="37.71542604369508"/>
  <flow id="JF87182" begin="540" fromJunction="J4" toJunction="J0" end="600" vehsPerHour="56.168941225219626"/>
  <flow id="JF87183" begin="540" fromJunction="J4" toJunction="J3" end="600" vehsPerHour="117.80803531001196"/>
  <flow id="JF87184" begin="600" fromJunction="J0" toJunction="J3" end="660" vehsPerHour="399.30275233113207"/>
  <flow id="JF87185" begin="600" fromJunction="J3" toJunction="J0" end="660" vehsPerHour="13.731970676963952"/>
  <flow id="JF87186" begin="600" fromJunction="J0" toJunction="J2" end="660" vehsPerHour="35.776746382457496"/>
  <flow id="JF87187" begin="600" fromJunction="J0" toJunction="J4" end="660" vehsPerHour="95.73612009528442"/>
  <flow id="JF87188" begin="600" fromJunction="J3" toJunction="J2" end="660" vehsPerHour="85.31746651874941"/>
  <flow id="JF87189" begin="600" fromJunction="J3" toJunction="J4" end="660" vehsPerHour="85.84816462795509"/>
  <flow id="JF87190" begin="600" fromJunction="J2" toJunction="J4" end="660" vehsPerHour="132.02881406864464"/>
  <flow id="JF87191" begin="600" fromJunction="J4" toJunction="J2" end="660" vehsPerHour="82.10274411543665"/>
  <flow id="JF87192" begin="600" fromJunction="J2" toJunction="J0" end="660" vehsPerHour="14.895392020636217"/>
  <flow id="JF87193" begin="600" fromJunction="J2" toJunction="J3" end="660" vehsPerHour="97.51702282933083"/>
  <flow id="JF87194" begin="600" fromJunction="J4" toJunction="J0" end="660" vehsPerHour="108.42762363985244"/>
  <flow id="JF87195" begin="600" fromJunction="J4" toJunction="J3" end="660" vehsPerHour="135.93610760587458"/>
  <flow id="JF87196" begin="660" fromJunction="J0" toJunction="J3" end="720" vehsPerHour="462.9193810006859"/>
  <flow id="JF87197" begin="660" fromJunction="J3" toJunction="J0" end="720" vehsPerHour="188.1899420676178"/>
  <flow id="JF87198" begin="660" fromJunction="J0" toJunction="J2" end="720" vehsPerHour="78.3671593889658"/>
  <flow id="JF87199" begin="660" fromJunction="J0" toJunction="J4" end="720" vehsPerHour="38.05342126616276"/>
  <flow id="JF87200" begin="660" fromJunction="J3" toJunction="J2" end="720" vehsPerHour="38.54666126386422"/>
  <flow id="JF87201" begin="660" fromJunction="J3" toJunction="J4" end="720" vehsPerHour="8.92346086450712"/>
  <flow id="JF87202" begin="720" fromJunction="J0" toJunction="J3" end="780" vehsPerHour="204.8062816221594"/>
  <flow id="JF87203" begin="720" fromJunction="J3" toJunction="J0" end="780" vehsPerHour="308.11266884588605"/>
  <flow id="JF87204" begin="720" fromJunction="J0" toJunction="J2" end="780" vehsPerHour="53.90322229092474"/>
  <flow id="JF87205" begin="720" fromJunction="J0" toJunction="J4" end="780" vehsPerHour="1.232801608850336"/>
  <flow id="JF87206" begin="720" fromJunction="J3" toJunction="J2" end="780" vehsPerHour="87.51921944103574"/>
  <flow id="JF87207" begin="720" fromJunction="J3" toJunction="J4" end="780" vehsPerHour="76.72581150429465"/>
  <flow id="JF87208" begin="720" fromJunction="J2" toJunction="J4" end="780" vehsPerHour="106.99303764178177"/>
  <flow id="JF87209" begin="720" fromJunction="J4" toJunction="J2" end="780" vehsPerHour="63.3522348910855"/>
  <flow id="JF87210" begin="720" fromJunction="J2" toJunction="J0" end="780" vehsPerHour="23.105301873066015"/>
  <flow id="JF87211" begin="720" fromJunction="J2" toJunction="J3" end="780" vehsPerHour="3.3874829053639566"/>
  <flow id="JF87212" begin="720" fromJunction="J4" toJunction="J0" end="780" vehsPerHour="103.3439622818054"/>
  <flow id="JF87213" begin="720" fromJunction="J4" toJunction="J3" end="780" vehsPerHour="91.94847603044593"/>
  <flow id="JF87214" begin="780" fromJunction="J0" toJunction="J3" end="840" vehsPerHour="292.65655078909856"/>
  <flow id="JF87215" begin="780" fromJunction="J3" toJunction="J0" end="840" vehsPerHour="209.18989076745038"/>
  <flow id="JF87216" begin="780" fromJunction="J0" toJunction="J2" end="840" vehsPerHour="59.05816860027002"/>
  <flow id="JF87217" begin="780" fromJunction="J0" toJunction="J4" end="840" vehsPerHour="111.50863863869996"/>
  <flow id="JF87218" begin="780" fromJunction="J3" toJunction="J2" end="840" vehsPerHour="108.83839570523602"/>
  <flow id="JF87219" begin="780" fromJunction="J3" toJunction="J4" end="840" vehsPerHour="82.64606176070087"/>
  <flow id="JF87220" begin="840" fromJunction="J0" toJunction="J3" end="900" vehsPerHour="378.8129697552271"/>
  <flow id="JF87221" begin="840" fromJunction="J3" toJunction="J0" end="900" vehsPerHour="531.4958804725635"/>
  <flow id="JF87222" begin="840" fromJunction="J0" toJunction="J2" end="900" vehsPerHour="52.70215950190158"/>
  <flow id="JF87223" begin="840" fromJunction="J0" toJunction="J4" end="900" vehsPerHour="31.447061079345286"/>
  <flow id="JF87224" begin="840" fromJunction="J3" toJunction="J2" end="900" vehsPerHour="128.0274875301262"/>
  <flow id="JF87225" begin="840" fromJunction="J3" toJunction="J4" end="900" vehsPerHour="73.05016425039665"/>
  <flow id="JF87226" begin="900" fromJunction="J0" toJunction="J3" end="960" vehsPerHour="487.409567877026"/>
  <flow id="JF87227" begin="900" fromJunction="J3" toJunction="J0" end="960" vehsPerHour="48.78149422584965"/>
  <flow id="JF87228" begin="900" fromJunction="J0" toJunction="J2" end="960" vehsPerHour="127.63444891681135"/>
  <flow id="JF87229" begin="900" fromJunction="J0" toJunction="J4" end="960" vehsPerHour="104.14784665934232"/>
  <flow id="JF87230" begin="900" fromJunction="J3" toJunction="J2" end="960" vehsPerHour="94.7637882350266"/>
  <flow id="JF87231" begin="900" fromJunction="J3" toJunction="J4" end="960" vehsPerHour="124.05133878462178"/>
  <flow id="JF87232" begin="900" fromJunction="J2" toJunction="J4" end="960" vehsPerHour="135.89978613796546"/>
  <flow id="JF87233" begin="900" fromJunction="J4" toJunction="J2" end="960" vehsPerHour="55.94383924535713"/>
  <flow id="JF87234" begin="900" fromJunction="J2" toJunction="J0" end="960" vehsPerHour="105.32682829609513"/>
  <flow id="JF87235" begin="900" fromJunction="J2" toJunction="J3" end="960" vehsPerHour="121.08479926416429"/>
  <flow id="JF87236" begin="900" fromJunction="J4" toJunction="J0" end="960" vehsPerHour="35.22150084374377"/>
  <flow id="JF87237" begin="900" fromJunction="J4" toJunction="J3" end="960" vehsPerHour="29.00558694687474"/>
  <flow id="JF87238" begin="960" fromJunction="J0" toJunction="J3" end="1020" vehsPerHour="354.32636970229163"/>
  <flow id="JF87239" begin="960" fromJunction="J3" toJunction="J0" end="1020" vehsPerHour="477.4474063957342"/>
  <flow id="JF87240" begin="960" fromJunction="J0" toJunction="J2" end="1020" vehsPerHour="115.8757774904191"/>
  <flow id="JF87241" begin="960" fromJunction="J0" toJunction="J4" end="1020" vehsPerHour="42.2318798495389"/>
  <flow id="JF87242" begin="960" fromJunction="J3" toJunction="J2" end="1020" vehsPerHour="104.29027688859779"/>
  <flow id="JF87243" begin="960" fromJunction="J3" toJunction="J4" end="1020" vehsPerHour="73.40083686507288"/>
  <flow id="JF87244" begin="960" fromJunction="J2" toJunction="J4" end="1020" vehsPerHour="16.52128989567503"/>
  <flow id="JF87245" begin="960" fromJunction="J4" toJunction="J2" end="1020" vehsPerHour="100.39146884877772"/>
  <flow id="JF87246" begin="960" fromJunction="J2" toJunction="J0" end="1020" vehsPerHour="40.47590393103642"/>
  <flow id="JF87247" begin="960" fromJunction="J2" toJunction="J3" end="1020" vehsPerHour="104.5825495052947"/>
  <flow id="JF87248" begin="960" fromJunction="J4" toJunction="J0" end="1020" vehsPerHour="45.15354920564806"/>
  <flow id="JF87249" begin="960" fromJunction="J4" toJunction="J3" end="1020" vehsPerHour="81.70674118761987"/>
  <flow id="JF87250" begin="1020" fromJunction="J0" toJunction="J3" end="1080" vehsPerHour="14.373972431560636"/>
  <flow id="JF87251" begin="1020" fromJunction="J3" toJunction="J0" end="1080" vehsPerHour="390.74013841087105"/>
  <flow id="JF87252" begin="1020" fromJunction="J0" toJunction="J2" end="1080" vehsPerHour="43.44997852435805"/>
  <flow id="JF87253" begin="1020" fromJunction="J0" toJunction="J4" end="1080" vehsPerHour="61.78257531775679"/>
  <flow id="JF87254" begin="1020" fromJunction="J3" toJunction="J2" end="1080" vehsPerHour="27.8404982456855"/>
  <flow id="JF87255" begin="1020" fromJunction="J3" toJunction="J4" end="1080" vehsPerHour="122.06558727605419"/>
  <flow id="JF87256" begin="1080" fromJunction="J0" toJunction="J3" end="1140" vehsPerHour="340.4157217164056"/>
  <flow id="JF87257" begin="1080" fromJunction="J3" toJunction="J0" end="1140" vehsPerHour="79.37572421888618"/>
  <flow id="JF87258" begin="1080" fromJunction="J0" toJunction="J2" end="1140" vehsPerHour="136.33591439685688"/>
  <flow id="JF87259" begin="1080" fromJunction="J0" toJunction="J4" end="1140" vehsPerHour="36.429200993478716"/>
  <flow id="JF87260" begin="1080" fromJunction="J3" toJunction="J2" end="1140" vehsPerHour="77.75490937819248"/>
  <flow id="JF87261" begin="1080" fromJunction="J3" toJunction="J4" end="1140" vehsPerHour="132.082615122628"/>
  <flow id="JF87262" begin="1080" fromJunction="J2" toJunction="J4" end="1140" vehsPerHour="49.81284626475014"/>
  <flow id="JF87263" begin="1080" fromJunction="J4" toJunction="J2" end="1140" vehsPerHour="21.01397745474886"/>
  <flow id="JF87264" begin="1080" fromJunction="J2" toJunction="J0" end="1140" vehsPerHour="26.399612135032974"/>
  <flow id="JF87265" begin="1080" fromJunction="J2" toJunction="J3" end="1140" vehsPerHour="54.096790279174684"/>
  <flow id="JF87266" begin="1080" fromJunction="J4" toJunction="J0" end="1140" vehsPerHour="52.03057894360421"/>
  <flow id="JF87267" begin="1080" fromJunction="J4" toJunction="J3" end="1140" vehsPerHour="3.4475896997591193"/>
  <flow id="JF87268" begin="1140" fromJunction="J0" toJunction="J3" end="1200" vehsPerHour="473.6220031286182"/>
  <flow id="JF87269" begin="1140" fromJunction="J3" toJunction="J0" end="1200" vehsPerHour="218.55235273252376"/>
  <flow id="JF87270" begin="1140" fromJunction="J0" toJunction="J2" end="1200" vehsPerHour="66.1640845874016"/>
  <flow id="JF87271" begin="1140" fromJunction="J0" toJunction="J4" end="1200" vehsPerHour="96.32451151456671"/>
  <flow id="JF87272" begin="1140" fromJunction="J3" toJunction="J2" end="1200" vehsPerHour="28.38921186198469"/>
  <flow id="JF87273" begin="1140" fromJunction="J3" toJunction="J4" end="1200" vehsPerHour="67.35872949435074"/>
  <flow id="JF87274" begin="1140" fromJunction="J2" toJunction="J4" end="1200" vehsPerHour="25.64027347944015"/>
  <flow id="JF87275" begin="1140" fromJunction="J4" toJunction="J2" end="1200" vehsPerHour="19.4195127571065"/>
  <flow id="JF87276" begin="1140" fromJunction="J2" toJunction="J0" end="1200" vehsPerHour="106.34462379904416"/>
  <flow id="JF87277" begin="1140" fromJunction="J2" toJunction="J3" end="1200" vehsPerHour="86.37131822254662"/>
  <flow id="JF87278" begin="1140" fromJunction="J4" toJunction="J0" end="1200" vehsPerHour="121.32752994434954"/>
  <flow id="JF87279" begin="1140" fromJunction="J4" toJunction="J3" end="1200" vehsPerHour="135.63406302293004"/>
  <flow id="JF87280" begin="1200" fromJunction="J0" toJunction="J3" end="1260" vehsPerHour="45.45298940516019"/>
  <flow id="JF87281" begin="1200" fromJunction="J3" toJunction="J0" end="1260" vehsPerHour="380.8247534198716"/>
  <flow id="JF87282" begin="1200" fromJunction="J0" toJunction="J2" end="1260" vehsPerHour="112.13545470202573"/>
  <flow id="JF87283" begin="1200" fromJunction="J0" toJunction="J4" end="1260" vehsPerHour="38.69164618384153"/>
  <flow id="JF87284" begin="1200" fromJunction="J3" toJunction="J2" end="1260" vehsPerHour="69.81563890685263"/>
  <flow id="JF87285" begin="1200" fromJunction="J3" toJunction="J4" end="1260" vehsPerHour="125.77691824736054"/>
  <flow id="JF87286" begin="1200" fromJunction="J2" toJunction="J4" end="1260" vehsPerHour="106.22030336542034"/>
  <flow id="JF87287" begin="1200" fromJunction="J4" toJunction="J2" end="1260" vehsPerHour="18.347638993452627"/>
  <flow id="JF87288" begin="1200" fromJunction="J2" toJunction="J0" end="1260" vehsPerHour="22.541764668399605"/>
  <flow id="JF87289" begin="1200" fromJunction="J2" toJunction="J3" end="1260" vehsPerHour="47.29496189394523"/>
  <flow id="JF87290" begin="1200" fromJunction="J4" toJunction="J0" end="1260" vehsPerHour="98.80630743643283"/>
  <flow id="JF87291" begin="1200" fromJunction="J4" toJunction="J3" end="1260" vehsPerHour="131.27519356436196"/>
  <flow id="JF87292" begin="1260" fromJunction="J0" toJunction="J3" end="1320" vehsPerHour="471.0475503187224"/>
  <flow id="JF87293" begin="1260" fromJunction="J3" toJunction="J0" end="1320" vehsPerHour="133.63900908636074"/>
  <flow id="JF87294" begin="1260" fromJunction="J0" toJunction="J2" end="1320" vehsPerHour="118.28083623040915"/>
  <flow id="JF87295" begin="1260" fromJunction="J0" toJunction="J4" end="1320" vehsPerHour="44.89022603971004"/>
  <flow id="JF87296" begin="1260" fromJunction="J3" toJunction="J2" end="1320" vehsPerHour="45.22471988840369"/>
  <flow id="JF87297" begin="1260" fromJunction="J3" toJunction="J4" end="1320" vehsPerHour="42.59815919339693"/>
  <flow id="JF87298" begin="1320" fromJunction="J0" toJunction="J3" end="1380" vehsPerHour="202.6486579726719"/>
  <flow id="JF87299" begin="1320" fromJunction="J3" toJunction="J0" end="1380" vehsPerHour="492.74437742772244"/>
  <flow id="JF87300" begin="1320" fromJunction="J0" toJunction="J2" end="1380" vehsPerHour="135.96892283178423"/>
  <flow id="JF87301" begin="1320" fromJunction="J0" toJunction="J4" end="1380" vehsPerHour="87.21605343165822"/>
  <flow id="JF87302" begin="1320" fromJunction="J3" toJunction="J2" end="1380" vehsPerHour="117.94786817652137"/>
  <flow id="JF87303" begin="1320" fromJunction="J3" toJunction="J4" end="1380" vehsPerHour="16.071152061340605"/>
  <flow id="JF87304" begin="1320" fromJunction="J2" toJunction="J4" end="1380" vehsPerHour="40.80473944194048"/>
  <flow id="JF87305" begin="1320" fromJunction="J4" toJunction="J2" end="1380" vehsPerHour="10.076459812512596"/>
  <flow id="JF87306" begin="1320" fromJunction="J2" toJunction="J0" end="1380" vehsPerHour="109.96577393279708"/>
  <flow id="JF87307" begin="1320" fromJunction="J2" toJunction="J3" end="1380" vehsPerHour="50.074626866729844"/>
  <flow id="JF87308" begin="1320" fromJunction="J4" toJunction="J0" end="1380" vehsPerHour="116.99106205849141"/>
  <flow id="JF87309" begin="1320" fromJunction="J4" toJunction="J3" end="1380" vehsPerHour="91.37395590958052"/>
  <flow id="JF87310" begin="1380" fromJunction="J0" toJunction="J3" end="1440" vehsPerHour="525.0778831823585"/>
  <flow id="JF87311" begin="1380" fromJunction="J3" toJunction="J0" end="1440" vehsPerHour="137.4435145017677"/>
  <flow id="JF87312" begin="1380" fromJunction="J0" toJunction="J2" end="1440" vehsPerHour="135.8840826655912"/>
  <flow id="JF87313" begin="1380" fromJunction="J0" toJunction="J4" end="1440" vehsPerHour="22.944186997175194"/>
  <flow id="JF87314" begin="1380" fromJunction="J3" toJunction="J2" end="1440" vehsPerHour="111.10557031474214"/>
  <flow id="JF87315" begin="1380" fromJunction="J3" toJunction="J4" end="1440" vehsPerHour="4.4050103167045185"/>
  <flow id="JF87316" begin="1380" fromJunction="J2" toJunction="J4" end="1440" vehsPerHour="76.64630324998207"/>
  <flow id="JF87317" begin="1380" fromJunction="J4" toJunction="J2" end="1440" vehsPerHour="75.60431275362617"/>
  <flow id="JF87318" begin="1380" fromJunction="J2" toJunction="J0" end="1440" vehsPerHour="119.7342783280635"/>
  <flow id="JF87319" begin="1380" fromJunction="J2" toJunction="J3" end="1440" vehsPerHour="66.160884628706"/>
  <flow id="JF87320" begin="1380" fromJunction="J4" toJunction="J0" end="1440" vehsPerHour="117.1121401518703"/>
  <flow id="JF87321" begin="1380" fromJunction="J4" toJunction="J3" end="1440" vehsPerHour="48.05762269081096"/>
  <flow id="JF87322" begin="1440" fromJunction="J0" toJunction="J3" end="1500" vehsPerHour="376.0018256584028"/>
  <flow id="JF87323" begin="1440" fromJunction="J3" toJunction="J0" end="1500" vehsPerHour="241.77786044087273"/>
  <flow id="JF87324" begin="1440" fromJunction="J0" toJunction="J2" end="1500" vehsPerHour="67.13468497970861"/>
  <flow id="JF87325" begin="1440" fromJunction="J0" toJunction="J4" end="1500" vehsPerHour="57.25187470975482"/>
  <flow id="JF87326" begin="1440" fromJunction="J3" toJunction="J2" end="1500" vehsPerHour="52.349799826674165"/>
  <flow id="JF87327" begin="1440" fromJunction="J3" toJunction="J4" end="1500" vehsPerHour="68.4881831307269"/>
  <flow id="JF87328" begin="1440" fromJunction="J2" toJunction="J4" end="1500" vehsPerHour="99.09260298552371"/>
  <flow id="JF87329" begin="1440" fromJunction="J4" toJunction="J2" end="1500" vehsPerHour="58.90090714900616"/>
  <flow id="JF87330" begin="1440" fromJunction="J2" toJunction="J0" end="1500" vehsPerHour="56.61586199881597"/>
  <flow id="JF87331" begin="1440" fromJunction="J2" toJunction="J3" end="1500" vehsPerHour="115.59527799671076"/>
  <flow id="JF87332" begin="1440" fromJunction="J4" toJunction="J0" end="1500" vehsPerHour="11.72364070428411"/>
  <flow id="JF87333" begin="1440" fromJunction="J4" toJunction="J3" end="1500" vehsPerHour="91.70270785607967"/>
  <flow id="JF87334" begin="1500" fromJunction="J0" toJunction="J3" end="1560" vehsPerHour="366.59473647432065"/>
  <flow id="JF87335" begin="1500" fromJunction="J3" toJunction="J0" end="1560" vehsPerHour="90.15676536610108"/>