<?xml version="1.0" encoding="UTF-8"?>
<routes xmlns:xsi="http://www.w3.org/2001/XMLSchema-instance" xsi:noNamespaceSchemaLocation="http://sumo.dlr.de/xsd/routes_file.xsd">
  <flow id="JF92242" begin="0" fromJunction="J0" toJunction="J3" end="60" vehsPerHour="482.89017434520235"/>
  <flow id="JF92243" begin="0" fromJunction="J3" toJunction="J0" end="60" vehsPerHour="173.99910740070817"/>
  <flow id="JF92244" begin="0" fromJunction="J0" toJunction="J2" end="60" vehsPerHour="130.50313282999906"/>
  <flow id="JF92245" begin="0" fromJunction="J0" toJunction="J4" end="60" vehsPerHour="125.71207649193256"/>
  <flow id="JF92246" begin="0" fromJunction="J3" toJunction="J2" end="60" vehsPerHour="47.49229979437282"/>
  <flow id="JF92247" begin="0" fromJunction="J3" toJunction="J4" end="60" vehsPerHour="48.55697881386656"/>
  <flow id="JF92248" begin="60" fromJunction="J0" toJunction="J3" end="120" vehsPerHour="95.06537819635827"/>
  <flow id="JF92249" begin="60" fromJunction="J3" toJunction="J0" end="120" vehsPerHour="117.75972189841092"/>
  <flow id="JF92250" begin="60" fromJunction="J0" toJunction="J2" end="120" vehsPerHour="107.96001474674786"/>
  <flow id="JF92251" begin="60" fromJunction="J0" toJunction="J4" end="120" vehsPerHour="76.9790660891478"/>
  <flow id="JF92252" begin="60" fromJunction="J3" toJunction="J2" end="120" vehsPerHour="127.81238959426236"/>
  <flow id="JF92253" begin="60" fromJunction="J3" toJunction="J4" end="120" vehsPerHour="25.124262921536392"/>
  <flow id="JF92254" begin="60" fromJunction="J2" toJunction="J4" end="120" vehsPerHour="110.59134868353408"/>
  <flow id="JF92255" begin="60" fromJunction="J4" toJunction="J2" end="120" vehsPerHour="125.95391146323597"/>
  <flow id="JF92256" begin="60" fromJunction="J2" toJunction="J0" end="120" vehsPerHour="2.993945452553287"/>
  <flow id="JF92257" begin="60" fromJunction="J2" toJunction="J3" end="120" vehsPerHour="87.64407664905778"/>
  <flow id="JF92258" begin="60" fromJunction="J4" toJunction="J0" end="120" vehsPerHour="23.966396895875413"/>
  <flow id="JF92259" begin="60" fromJunction="J4" toJunction="J3" end="120" vehsPerHour="41.03542253335495"/>
  <flow id="JF92260" begin="120" fromJunction="J0" toJunction="J3" end="180" vehsPerHour="115.94053481536316"/>
  <flow id="JF92261" begin="120" fromJunction="J3" toJunction="J0" end="180" vehsPerHour="46.676582412431685"/>
  <flow id="JF92262" begin="120" fromJunction="J0" toJunction="J2" end="180" vehsPerHour="88.58507195202046"/>
  <flow id="JF92263" begin="120" fromJunction="J0" toJunction="J4" end="180" vehsPerHour="19.38918276883202"/>
  <flow id="JF92264" begin="120" fromJunction="J3" toJunction="J2" end="180" vehsPerHour="86.63186114502584"/>
  <flow id="JF92265" begin="120" fromJunction="J3" toJunction="J4" end="180" vehsPerHour="58.49027541402467"/>
  <flow id="JF92266" begin="120" fromJunction="J2" toJunction="J4" end="180" vehsPerHour="26.512182782908255"/>
  <flow id="JF92267" begin="120" fromJunction="J4" toJunction="J2" end="180" vehsPerHour="105.07006007047939"/>
  <flow id="JF92268" begin="120" fromJunction="J2" toJunction="J0" end="180" vehsPerHour="88.45124429854364"/>
  <flow id="JF92269" begin="120" fromJunction="J2" toJunction="J3" end="180" vehsPerHour="18.63085593534478"/>
  <flow id="JF92270" begin="120" fromJunction="J4" toJunction="J0" end="180" vehsPerHour="90.32020936625287"/>
  <flow id="JF92271" begin="120" fromJunction="J4" toJunction="J3" end="180" vehsPerHour="130.56048999562162"/>
  <flow id="JF92272" begin="180" fromJunction="J0" toJunction="J3" end="240" vehsPerHour="125.09750985813672"/>
  <flow id="JF92273" begin="180" fromJunction="J3" toJunction="J0" end="240" vehsPerHour="25.001615370618158"/>
  <flow id="JF92274" begin="180" fromJunction="J0" toJunction="J2" end="240" vehsPerHour="3.097463369140978"/>
  <flow id="JF92275" begin="180" fromJunction="J0" toJunction="J4" end="240" vehsPerHour="106.06264045647623"/>
  <flow id="JF92276" begin="180" fromJunction="J3" toJunction="J2" end="240" vehsPerHour="26.18122754354944"/>
  <flow id="JF92277" begin="180" fromJunction="J3" toJunction="J4" end="240" vehsPerHour="82.35815806282491"/>
  <flow id="JF92278" begin="240" fromJunction="J0" toJunction="J3" end="300" vehsPerHour="99.73177193048362"/>
  <flow id="JF92279" begin="240" fromJunction="J3" toJunction="J0" end="300" vehsPerHour="11.41283444921754"/>
  <flow id="JF92280" begin="240" fromJunction="J0" toJunction="J2" end="300" vehsPerHour="48.74746564387184"/>
  <flow id="JF92281" begin="240" fromJunction="J0" toJunction="J4" end="300" vehsPerHour="55.69441767576822"/>
  <flow id="JF92282" begin="240" fromJunction="J3" toJunction="J2" end="300" vehsPerHour="73.23917420189126"/>
  <flow id="JF92283" begin="240" fromJunction="J3" toJunction="J4" end="300" vehsPerHour="8.861305366548093"/>
  <flow id="JF92284" begin="240" fromJunction="J2" toJunction="J4" end="300" vehsPerHour="35.362063208321906"/>
  <flow id="JF92285" begin="240" fromJunction="J4" toJunction="J2" end="300" vehsPerHour="35.18057193641632"/>
  <flow id="JF92286" begin="240" fromJunction="J2" toJunction="J0" end="300" vehsPerHour="26.558958251300034"/>
  <flow id="JF92287" begin="240" fromJunction="J2" toJunction="J3" end="300" vehsPerHour="54.69805065210477"/>
  <flow id="JF92288" begin="240" fromJunction="J4" toJunction="J0" end="300" vehsPerHour="50.74770109614646"/>
  <flow id="JF92289" begin="240" fromJunction="J4" toJunction="J3" end="300" vehsPerHour="15.158404969502792"/>
  <flow id="JF92290" begin="300" fromJunction="J0" toJunction="J3" end="360" vehsPerHour="175.4465161119049"/>
  <flow id="JF92291" begin="300" fromJunction="J3" toJunction="J0" end="360" vehsPerHour="39.712031526013895"/>
  <flow id="JF92292" begin="300" fromJunction="J0" toJunction="J2" end="360" vehsPerHour="134.62129050982404"/>
  <flow id="JF92293" begin="300" fromJunction="J0" toJunction="J4" end="360" vehsPerHour="69.31055454870366"/>
  <flow id="JF92294" begin="300" fromJunction="J3" toJunction="J2" end="360" vehsPerHour="10.666066595921807"/>
  <flow id="JF92295" begin="300" fromJunction="J3" toJunction="J4" end="360" vehsPerHour="101.1740254631294"/>
  <flow id="JF92296" begin="300" fromJunction="J2" toJunction="J4" end="360" vehsPerHour="40.24931506467868"/>
  <flow id="JF92297" begin="300" fromJunction="J4" toJunction="J2" end="360" vehsPerHour="18.665858751744544"/>
  <flow id="JF92298" begin="300" fromJunction="J2" toJunction="J0" end="360" vehsPerHour="59.22991151958861"/>
  <flow id="JF92299" begin="300" fromJunction="J2" toJunction="J3" end="360" vehsPerHour="120.9386058764546"/>
  <flow id="JF92300" begin="300" fromJunction="J4" toJunction="J0" end="360" vehsPerHour="117.38626767456157"/>
  <flow id="JF92301" begin="300" fromJunction="J4" toJunction="J3" end="360" vehsPerHour="29.22699923130934"/>
  <flow id="JF92302" begin="360" fromJunction="J0" toJunction="J3" end="420" vehsPerHour="304.10895531250833"/>
  <flow id="JF92303" begin="360" fromJunction="J3" toJunction="J0" end="420" vehsPerHour="221.9338509808695"/>
  <flow id="JF92304" begin="360" fromJunction="J0" toJunction="J2" end="420" vehsPerHour="53.89426279564074"/>
  <flow id="JF92305" begin="360" fromJunction="J0" toJunction="J4" end="420" vehsPerHour="1.9771146565869202"/>
  <flow id="JF92306" begin="360" fromJunction="J3" toJunction="J2" end="420" vehsPerHour="119.09302038280049"/>
  <flow id="JF92307" begin="360" fromJunction="J3" toJunction="J4" end="420" vehsPerHour="96.76059619903424"/>
  <flow id="JF92308" begin="360" fromJunction="J2" toJunction="J4" end="420" vehsPerHour="100.0472459881304"/>
  <flow id="JF92309" begin="360" fromJunction="J4" toJunction="J2" end="420" vehsPerHour="97.42256887568014"/>
  <flow id="JF92310" begin="360" fromJunction="J2" toJunction="J0" end="420" vehsPerHour="118.63485370776249"/>
  <flow id="JF92311" begin="360" fromJunction="J2" toJunction="J3" end="420" vehsPerHour="120.93566323276026"/>
  <flow id="JF92312" begin="360" fromJunction="J4" toJunction="J0" end="420" vehsPerHour="55.30923876759175"/>
  <flow id="JF92313" begin="360" fromJunction="J4" toJunction="J3" end="420" vehsPerHour="94.17122713538207"/>
  <flow id="JF92314" begin="420" fromJunction="J0" toJunction="J3" end="480" vehsPerHour="530.5320374155518"/>
  <flow id="JF92315" begin="420" fromJunction="J3" toJunction="J0" end="480" vehsPerHour="284.7468569995675"/>
  <flow id="JF92316" begin="420" fromJunction="J0" toJunction="J2" end="480" vehsPerHour="122.94395917734687"/>
  <flow id="JF92317" begin="420" fromJunction="J0" toJunction="J4" end="480" vehsPerHour="20.608129284621395"/>
  <flow id="JF92318" begin="420" fromJunction="J3" toJunction="J2" end="480" vehsPerHour="109.5990859945642"/>
  <flow id="JF92319" begin="420" fromJunction="J3" toJunction="J4" end="480" vehsPerHour="130.81326720840175"/>
  <flow id="JF92320" begin="480" fromJunction="J0" toJunction="J3" end="540" vehsPerHour="182.79910936560046"/>
  <flow id="JF92321" begin="480" fromJunction="J3" toJunction="J0" end="540" vehsPerHour="295.01742848258124"/>
  <flow id="JF92322" begin="480" fromJunction="J0" toJunction="J2" end="540" vehsPerHour="29.737623205664995"/>
  <flow id="JF92323" begin="480" fromJunction="J0" toJunction="J4" end="540" vehsPerHour="103.43874723747483"/>
  <flow id="JF92324" begin="480" fromJunction="J3" toJunction="J2" end="540" vehsPerHour="45.05255876863111"/>
  <flow id="JF92325" begin="480" fromJunction="J3" toJunction="J4" end="540" vehsPerHour="79.69691838976554"/>
  <flow id="JF92326" begin="480" fromJunction="J2" toJunction="J4" end="540" vehsPerHour="83.74345037030214"/>
  <flow id="JF92327" begin="480" fromJunction="J4" toJunction="J2" end="540" vehsPerHour="36.11280547952915"/>
  <flow id="JF92328" begin="480" fromJunction="J2" toJunction="J0" end="540" vehsPerHour="46.14403436172034"/>
  <flow id="JF92329" begin="480" fromJunction="J2" toJunction="J3" end="540" vehsPerHour="44.47570476841148"/>
  <flow id="JF92330" begin="480" fromJunction="J4" toJunction="J0" end="540" vehsPerHour="136.555006848612"/>
  <flow id="JF92331" begin="480" fromJunction="J4" toJunction="J3" end="540" vehsPerHour="41.050430489813266"/>
  <flow id="JF92332" begin="540" fromJunction="J0" toJunction="J3" end="600" vehsPerHour="125.97353262162943"/>
  <flow id="JF92333" begin="540" fromJunction="J3" toJunction="J0" end="600" vehsPerHour="225.7468244203044"/>
  <flow id="JF92334" begin="540" fromJunction="J0" toJunction="J2" end="600" vehsPerHour="10.198948896910995"/>
  <flow id="JF92335" begin="540" fromJunction="J0" toJunction="J4" end="600" vehsPerHour="74.96432348756416"/>
  <flow id="JF92336" begin="540" fromJunction="J3" toJunction="J2" end="600" vehsPerHour="80.18396133098784"/>
  <flow id="JF92337" begin="540" fromJunction="J3" toJunction="J4" end="600" vehsPerHour="18.758794244702496"/>
  <flow id="JF92338" begin="600" fromJunction="J0" toJunction="J3" end="660" vehsPerHour="530.4761489665806"/>
  <flow id="JF92339" begin="600" fromJunction="J3" toJunction="J0" end="660" vehsPerHour="81.73978836153732"/>
  <flow id="JF92340" begin="600" fromJunction="J0" toJunction="J2" end="660" vehsPerHour="109.37220966833753"/>
  <flow id="JF92341" begin="600" fromJunction="J0" toJunction="J4" end="660" vehsPerHour="35.14989236792812"/>
  <flow id="JF92342" begin="600" fromJunction="J3" toJunction="J2" end="660" vehsPerHour="51.784201690127546"/>
  <flow id="JF92343" begin="600" fromJunction="J3" toJunction="J4" end="660" vehsPerHour="82.74987416421963"/>
  <flow id="JF92344" begin="660" fromJunction="J0" toJunction="J3" end="720" vehsPerHour="37.47596378374596"/>
  <flow id="JF92345" begin="660" fromJunction="J3" toJunction="J0" end="720" vehsPerHour="446.0888692761211"/>
  <flow id="JF92346" begin="660" fromJunction="J0" toJunction="J2" end="720" vehsPerHour="53.5821368112291"/>
  <flow id="JF92347" begin="660" fromJunction="J0" toJunction="J4" end="720" vehsPerHour="12.751299213788908"/>
  <flow id="JF92348" begin="660" fromJunction="J3" toJunction="J2" end="720" vehsPerHour="57.30355107420025"/>
  <flow id="JF92349" begin="660" fromJunction="J3" toJunction="J4" end="720" vehsPerHour="37.382088731669185"/>
  <flow id="JF92350" begin="660" fromJunction="J2" toJunction="J4" end="720" vehsPerHour="75.51157103338205"/>
  <flow id="JF92351" begin="660" fromJunction="J4" toJunction="J2" end="720" vehsPerHour="130.5284240716079"/>
  <flow id="JF92352" begin="660" fromJunction="J2" toJunction="J0" end="720" vehsPerHour="119.75751202772561"/>
  <flow id="JF92353" begin="660" fromJunction="J2" toJunction="J3" end="720" vehsPerHour="12.485781336887493"/>
  <flow id="JF92354" begin="660" fromJunction="J4" toJunction="J0" end="720" vehsPerHour="82.46009838402794"/>
  <flow id="JF92355" begin="660" fromJunction="J4" toJunction="J3" end="720" vehsPerHour="70.93988487484219"/>
  <flow id="JF92356" begin="720" fromJunction="J0" toJunction="J3" end="780" vehsPerHour="86.13852496028721"/>
  <flow id="JF92357" begin="720" fromJunction="J3" toJunction="J0" end="780" vehsPerHour="319.0068664194501"/>
  <flow id="JF92358" begin="720" fromJunction="J0" toJunction="J2" end="780" vehsPerHour="121.36167942881892"/>
  <flow id="JF92359" begin="720" fromJunction="J0" toJunction="J4" end="780" vehsPerHour="108.13748571095357"/>
  <flow id="JF92360" begin="720" fromJunction="J3" toJunction="J2" end="780" vehsPerHour="129.9006344994585"/>
  <flow id="JF92361" begin="720" fromJunction="J3" toJunction="J4" end="780" vehsPerHour="99.73499118891279"/>
  <flow id="JF92362" begin="720" fromJunction="J2" toJunction="J4" end="780" vehsPerHour="126.49035805259227"/>
  <flow id="JF92363" begin="720" fromJunction="J4" toJunction="J2" end="780" vehsPerHour="49.49331993413755"/>
  <flow id="JF92364" begin="720" fromJunction="J2" toJunction="J0" end="780" vehsPerHour="37.129036062922395"/>
  <flow id="JF92365" begin="720" fromJunction="J2" toJunction="J3" end="780" vehsPerHour="136.22836337241435"/>
  <flow id="JF92366" begin="720" fromJunction="J4" toJunction="J0" end="780" vehsPerHour="60.29222094276005"/>
  <flow id="JF92367" begin="720" fromJunction="J4" toJunction="J3" end="780" vehsPerHour="94.46086101779102"/>
  <flow id="JF92368" begin="780" fromJunction="J0" toJunction="J3" end="840" vehsPerHour="102.53808317215729"/>
  <flow id="JF92369" begin="780" fromJunction="J3" toJunction="J0" end="840" vehsPerHour="18.424298713616633"/>
  <flow id="JF92370" begin="780" fromJunction="J0" toJunction="J2" end="840" vehsPerHour="106.43695221947834"/>
  <flow id="JF92371" begin="780" fromJunction="J0" toJunction="J4" end="840" vehsPerHour="94.18206458743758"/>
  <flow id="JF92372" begin="780" fromJunction="J3" toJunction="J2" end="840" vehsPerHour="109.11516744917904"/>
  <flow id="JF92373" begin="780" fromJunction="J3" toJunction="J4" end="840" vehsPerHour="124.64414595732335"/>
  <flow id="JF92374" begin="780" fromJunction="J2" toJunction="J4" end="840" vehsPerHour="58.80563880523564"/>
  <flow id="JF92375" begin="780" fromJunction="J4" toJunction="J2" end="840" vehsPerHour="77.4476788935616"/>
  <flow id="JF92376" begin="780" fromJunction="J2" toJunction="J0" end="840" vehsPerHour="22.713512441431728"/>
  <flow id="JF92377" begin="780" fromJunction="J2" toJunction="J3" end="840" vehsPerHour="83.82735670223235"/>
  <flow id="JF92378" begin="780" fromJunction="J4" toJunction="J0" end="840" vehsPerHour="96.70627655953163"/>
  <flow id="JF92379" begin="780" fromJunction="J4" toJunction="J3" end="840" vehsPerHour="15.18494585744925"/>
  <flow id="JF92380" begin="840" fromJunction="J0" toJunction="J3" end="900" vehsPerHour="215.32628469867188"/>
  <flow id="JF92381" begin="840" fromJunction="J3" toJunction="J0" end="900" vehsPerHour="475.3858918755292"/>
  <flow id="JF92382" begin="840" fromJunction="J0" toJunction="J2" end="900" vehsPerHour="124.7751726049143"/>
  <flow id="JF92383" begin="840" fromJunction="J0" toJunction="J4" end="900" vehsPerHour="42.20722947348587"/>
  <flow id="JF92384" begin="840" fromJunction="J3" toJunction="J2" end="900" vehsPerHour="6.256219275158599"/>
  <flow id="JF92385" begin="840" fromJunction="J3" toJunction="J4" end="900" vehsPerHour="60.3376025495455"/>
  <flow id="JF92386" begin="840" fromJunction="J2" toJunction="J4" end="900" vehsPerHour="41.53672635939795"/>
  <flow id="JF92387" begin="840" fromJunction="J4" toJunction="J2" end="900" vehsPerHour="66.24238939719358"/>
  <flow id="JF92388" begin="840" fromJunction="J2" toJunction="J0" end="900" vehsPerHour="77.03632746665424"/>
  <flow id="JF92389" begin="840" fromJunction="J2" toJunction="J3" end="900" vehsPerHour="113.09932530646911"/>
  <flow id="JF92390" begin="840" fromJunction="J4" toJunction="J0" end="900" vehsPerHour="109.12229581721064"/>
  <flow id="JF92391" begin="840" fromJunction="J4" toJunction="J3" end="900" vehsPerHour="1.0354073508006045"/>
  <flow id="JF92392" begin="900" fromJunction="J0" toJunction="J3" end="960" vehsPerHour="231.17807107453817"/>
  <flow id="JF92393" begin="900" fromJunction="J3" toJunction="J0" end="960" vehsPerHour="161.78629604229258"/>
  <flow id="JF92394" begin="900" fromJunction="J0" toJunction="J2" end="960" vehsPerHour="62.017712006794"/>
  <flow id="JF92395" begin="900" fromJunction="J0" toJunction="J4" end="960" vehsPerHour="34.29894646401604"/>
  <flow id="JF92396" begin="900" fromJunction="J3" toJunction="J2" end="960" vehsPerHour="133.3206695327561"/>
  <flow id="JF92397" begin="900" fromJunction="J3" toJunction="J4" end="960" vehsPerHour="30.37981127228782"/>
  <flow id="JF92398" begin="960" fromJunction="J0" toJunction="J3" end="1020" vehsPerHour="264.19688177701755"/>
  <flow id="JF92399" begin="960" fromJunction="J3" toJunction="J0" end="1020" vehsPerHour="225.29000672537757"/>
  <flow id="JF92400" begin="960" fromJunction="J0" toJunction="J2" end="1020" vehsPerHour="98.51146451609847"/>
  <flow id="JF92401" begin="960" fromJunction="J0" toJunction="J4" end="1020" vehsPerHour="21.691934538612305"/>
  <flow id="JF92402" begin="960" fromJunction="J3" toJunction="J2" end="1020" vehsPerHour="82.01010357977671"/>
  <flow id="JF92403" begin="960" fromJunction="J3" toJunction="J4" end="1020" vehsPerHour="78.49731249180732"/>
  <flow id="JF92404" begin="1020" fromJunction="J0" toJunction="J3" end="1080" vehsPerHour="534.7123371986111"/>
  <flow id="JF92405" begin="1020" fromJunction="J3" toJunction="J0" end="1080" vehsPerHour="322.292561398469"/>
  <flow id="JF92406" begin="1020" fromJunction="J0" toJunction="J2" end="1080" vehsPerHour="98.81459323061392"/>
  <flow id="JF92407" begin="1020" fromJunction="J0" toJunction="J4" end="1080" vehsPerHour="51.91447489114358"/>
  <flow id="JF92408" begin="1020" fromJunction="J3" toJunction="J2" end="1080" vehsPerHour="107.89234172421408"/>
  <flow id="JF92409" begin="1020" fromJunction="J3" toJunction="J4" end="1080" vehsPerHour="124.3238192045322"/>
  <flow id="JF92410" begin="1020" fromJunction="J2" toJunction="J4" end="1080" vehsPerHour="15.039641579757157"/>
  <flow id="JF92411" begin="1020" fromJunction="J4" toJunction="J2" end="1080" vehsPerHour="96.64882818693289"/>
  <flow id="JF92412" begin="1020" fromJunction="J2" toJunction="J0" end="1080" vehsPerHour="34.24780051173397"/>
  <flow id="JF92413" begin="1020" fromJunction="J2" toJunction="J3" end="1080" vehsPerHour="87.00110511487297"/>
  <flow id="JF92414" begin="1020" fromJunction="J4" toJunction="J0" end="1080" vehsPerHour="136.06133883419128"/>
  <flow id="JF92415" begin="1020" fromJunction="J4" toJunction="J3" end="1080" vehsPerHour="55.00568458184706"/>
  <flow id="JF92416" begin="1080" fromJunction="J0" toJunction="J3" end="1140" vehsPerHour="540.7934869020412"/>
  <flow id="JF92417" begin="1080" fromJunction="J3" toJunction="J0" end="1140" vehsPerHour="294.31156976531577"/>
  <flow id="JF92418" begin="1080" fromJunction="J0" toJunction="J2" end="1140" vehsPerHour="128.1332111903859"/>
  <flow id="JF92419" begin="1080" fromJunction="J0" toJunction="J4" end="1140" vehsPerHour="6.872166039430911"/>
  <flow id="JF92420" begin="1080" fromJunction="J3" toJunction="J2" end="1140" vehsPerHour="102.77738359848269"/>
  <flow id="JF92421" begin="1080" fromJunction="J3" toJunction="J4" end="1140" vehsPerHour="67.61851054110475"/>
  <flow id="JF92422" begin="1080" fromJunction="J2" toJunction="J4" end="1140" vehsPerHour="92.33516927745333"/>
  <flow id="JF92423" begin="1080" fromJunction="J4" toJunction="J2" end="1140" vehsPerHour="96.2820415426709"/>
  <flow id="JF92424" begin="1080" fromJunction="J2" toJunction="J0" end="1140" vehsPerHour="72.07890883578581"/>
  <flow id="JF92425" begin="1080" fromJunction="J2" toJunction="J3" end="1140" vehsPerHour="119.38506592449733"/>
  <flow id="JF92426" begin="1080" fromJunction="J4" toJunction="J0" end="1140" vehsPerHour="114.97276940636654"/>
  <flow id="JF92427" begin="1080" fromJunction="J4" toJunction="J3" end="1140" vehsPerHour="89.08393325921297"/>
  <flow id="JF92428" begin="1140" fromJunction="J0" toJunction="J3" end="1200" vehsPerHour="394.64277557206964"/>
  <flow id="JF92429" begin="1140" fromJunction="J3" toJunction="J0" end="1200" vehsPerHour="409.4787455377008"/>
  <flow id="JF92430" begin="1140" fromJunction="J0" toJunction="J2" end="1200" vehsPerHour="13.52763113735166"/>
  <flow id="JF92431" begin="1140" fromJunction="J0" toJunction="J4" end="1200" vehsPerHour="22.55437174856564"/>
  <flow id="JF92432" begin="1140" fromJunction="J3" toJunction="J2" end="1200" vehsPerHour="40.41087112079645"/>
  <flow id="JF92433" begin="1140" fromJunction="J3" toJunction="J4" end="1200" vehsPerHour="90.58514555248102"/>
  <flow id="JF92434" begin="1140" fromJunction="J2" toJunction="J4" end="1200" vehsPerHour="58.232787906515966"/>
  <flow id="JF92435" begin="1140" fromJunction="J4" toJunction="J2" end="1200" vehsPerHour="129.00630216048756"/>
  <flow id="JF92436" begin="1140" fromJunction="J2" toJunction="J0" end="1200" vehsPerHour="30.10562960003697"/>
  <flow id="JF92437" begin="1140" fromJunction="J2" toJunction="J3" end="1200" vehsPerHour="54.87929620998101"/>
  <flow id="JF92438" begin="1140" fromJunction="J4" toJunction="J0" end="1200" vehsPerHour="129.38001381156892"/>
  <flow id="JF92439" begin="1140" fromJunction="J4" toJunction="J3" end="1200" vehsPerHour="40.70321677432862"/>
  <flow id="JF92440" begin="1200" fromJunction="J0" toJunction="J3" end="1260" vehsPerHour="247.84688983086878"/>
  <flow id="JF92441" begin="1200" fromJunction="J3" toJunction="J0" end="1260" vehsPerHour="491.63438503632847"/>
  <flow id="JF92442" begin="1200" fromJunction="J0" toJunction="J2" end="1260" vehsPerHour="22.70572421248121"/>
  <flow id="JF92443" begin="1200" fromJunction="J0" toJunction="J4" end="1260" vehsPerHour="72.39663222145099"/>
  <flow id="JF92444" begin="1200" fromJunction="J3" toJunction="J2" end="1260" vehsPerHour="135.37615336046477"/>
  <flow id="JF92445" begin="1200" fromJunction="J3" toJunction="J4" end="1260" vehsPerHour="101.02313363352866"/>
  <flow id="JF92446" begin="1200" fromJunction="J2" toJunction="J4" end="1260" vehsPerHour="108.61373398818863"/>
  <flow id="JF92447" begin="1200" fromJunction="J4" toJunction="J2" end="1260" vehsPerHour="131.66916888708806"/>
  <flow id="JF92448" begin="1200" fromJunction="J2" toJunction="J0" end="1260" vehsPerHour="116.29902887283549"/>
  <flow id="JF92449" begin="1200" fromJunction="J2" toJunction="J3" end="1260" vehsPerHour="74.36217262672268"/>
  <flow id="JF92450" begin="1200" fromJunction="J4" toJunction="J0" end="1260" vehsPerHour="111.5629277994276"/>
  <flow id="JF92451" begin="1200" fromJunction="J4" toJunction="J3" end="1260" vehsPerHour="98.5447325768689"/>
  <flow id="JF92452" begin="1260" fromJunction="J0" toJunction="J3" end="1320" vehsPerHour="1.7995232591374088"/>
  <flow id="JF92453" begin="1260" fromJunction="J3" toJunction="J0" end="1320" vehsPerHour="135.67270598032763"/>
  <flow id="JF92454" begin="1260" fromJunction="J0" toJunction="J2" end="1320" vehsPerHour="100.70004010207106"/>
  <flow id="JF92455" begin="1260" fromJunction="J0" toJunction="J4" end="1320" vehsPerHour="86.18894594673611"/>
  <flow id="JF92456" begin="1260" fromJunction="J3" toJunction="J2" end="1320" vehsPerHour="75.19612282542752"/>
  <flow id="JF92457" begin="1260" fromJunction="J3" toJunction="J4" end="1320" vehsPerHour="63.89899283868133"/>
  <flow id="JF92458" begin="1260" fromJunction="J2" toJunction="J4" end="1320" vehsPerHour="36.867685922830645"/>
  <flow id="JF92459" begin="1260" fromJunction="J4" toJunction="J2" end="1320" vehsPerHour="110.63505193835562"/>
  <flow id="JF92460" begin="1260" fromJunction="J2" toJunction="J0" end="1320" vehsPerHour="44.6958280608901"/>
  <flow id="JF92461" begin="1260" fromJunction="J2" toJunction="J3" end="1320" vehsPerHour="40.01228206204042"/>
  <flow id="JF92462" begin="1260" fromJunction="J4" toJunction="J0" end="1320" vehsPerHour="56.955851718902096"/>
  <flow id="JF92463" begin="1260" fromJunction="J4" toJunction="J3" end="1320" vehsPerHour="51.89732529687595"/>
  <flow id="JF92464" begin="1320" fromJunction="J0" toJunction="J3" end="1380" vehsPerHour="269.7508910887134"/>
  <flow id="JF92465" begin="1320" fromJunction="J3" toJunction="J0" end="1380" vehsPerHour="344.63070934723316"/>
  <flow id="JF92466" begin="1320" fromJunction="J0" toJunction="J2" end="1380" vehsPerHour="55.19790317722792"/>
  <flow id="JF92467" begin="1320" fromJunction="J0" toJunction="J4" end="1380" vehsPerHour="33.21899225791836"/>
  <flow id="JF92468" begin="1320" fromJunction="J3" toJunction="J2" end="1380" vehsPerHour="37.918058086585525"/>
  <flow id="JF92469" begin="1320" fromJunction="J3" toJunction="J4" end="1380" vehsPerHour="3.5195895379066497"/>
  <flow id="JF92470" begin="1380" fromJunction="J0" toJunction="J3" end="1440" vehsPerHour="347.9120055872044"/>
  <flow id="JF92471" begin="1380" fromJunction="J3" toJunction="J0" end="1440" vehsPerHour="393.31937345685355"/>
  <flow id="JF92472" begin="1380" fromJunction="J0" toJunction="J2" end="1440" vehsPerHour="136.6082003825619"/>
  <flow id="JF92473" begin="1380" fromJunction="J0" toJunction="J4" end="1440" vehsPerHour="90.92938174998375"/>
  <flow id="JF92474" begin="1380" fromJunction="J3" toJunction="J2" end="1440" vehsPerHour="23.23743530712624"/>
  <flow id="JF92475" begin="1380" fromJunction="J3" toJunction="J4" end="1440" vehsPerHour="134.32435761571176"/>
  <flow id="JF92476" begin="1380" fromJunction="J2" toJunction="J4" end="1440" vehsPerHour="115.91670057792105"/>
  <flow id="JF92477" begin="1380" fromJunction="J4" toJunction="J2" end="1440" vehsPerHour="39.4224067014217"/>
  <flow id="JF92478" begin="1380" fromJunction="J2" toJunction="J0" end="1440" vehsPerHour="74.85632053951188"/>
  <flow id="JF92479" begin="1380" fromJunction="J2" toJunction="J3" end="1440" vehsPerHour="75.99791660870552"/>
  <flow id="JF92480" begin="1380" fromJunction="J4" toJunction="J0" end="1440" vehsPerHour="39.69554310861555"/>
  <flow id="JF92481" begin="1380" fromJunction="J4" toJunction="J3" end="1440" vehsPerHour="81.9239932177519"/>
  <flow id="JF92482" begin="1440" fromJunction="J0" toJunction="J3" end="1500" vehsPerHour="393.6217419601512"/>
  <flow id="JF92483" begin="1440" fromJunction="J3" toJunction="J0" end="1500" vehsPerHour="192.5210367308547"/>
  <flow id="JF92484" begin="1440" fromJunction="J0" toJunction="J2" end="1500" vehsPerHour="40.60346762386783"/>
  <flow id="JF92485" begin="1440" fromJunction="J0" toJunction="J4" end="1500" vehsPerHour="33.089249495133174"/>
  <flow id="JF92486" begin="1440" fromJunction="J3" toJunction="J2" end="1500" vehsPerHour="23.974983560702928"/>
  <flow id="JF92487" begin="1440" fromJunction="J3" toJunction="J4" end="1500" vehsPerHour="119.68505841844772"/>
  <flow id="JF92488" begin="1500" fromJunction="J0" toJunction="J3" end="1560" vehsPerHour="145.99870453137797"/>
  <flow id="JF92489" begin="1500" fromJunction="J3" toJunction="J0" end="1560" vehsPerHour="229.20774757424385"/>
  <flow id="JF92490" begin="1500" fromJunction="J0" toJunction="J2" end="1560" vehsPerHour="104.38384648702724"/>
  <flow id="JF92491" begin="1500" fromJunction="J0" toJunction="J4" end="1560" vehsPerHour="97.44744614297552"/>
  <flow id="JF92492" begin="1500" fromJunction="J3" toJunction="J2" end="1560" vehsPerHour="129.27065266024948"/>
  <flow id="JF92493" begin="1500" fromJunction="J3" toJunction="J4" end="1560" vehsPerHour="10.05624216587086"/>
  <flow id="JF92494" begin="1500" fromJunction="J2" toJunction="J4" end="1560" vehsPerHour="80.99346557389651"/>
  <flow id="JF92495" begin="1500" fromJunction="J4" toJunction="J2" end="1560" vehsPerHour="102.18228475018998"/>
  <flow id="JF92496" begin="1500" fromJunction="J2" toJunction="J0" end="1560" vehsPerHour="95.04525809153702"/>
  <flow id="JF92497" begin="1500" fromJunction="J2" toJunction="J3" end="1560" vehsPerHour="108.70307225887994"/>
  <flow id="JF92498" begin="1500" fromJunction="J4" toJunction="J0" end="1560" vehsPerHour="38.413683475597836"/>
  <flow id="JF92499" begin="1500" fromJunction="J4" toJunction="J3" end="1560" vehsPerHour="18.740155862513394"/>
  <flow id="JF92500" begin="1560" fromJunction="J0" toJunction="J3" end="1620" vehsPerHour="358.291930847927"/>
  <flow id="JF92501" begin="1560" fromJunction="J3" toJunction="J0" end="1620" vehsPerHour="521.4422059388745"/>
  <flow id="JF92502" begin="1560" fromJunction="J0" toJunction="J2" end="1620" vehsPerHour="123.54334979967614"/>
  <flow id="JF92503" begin="1560" fromJunction="J0" toJunction="J4" end="1620" vehsPerHour="43.69796738763308"/>
  <flow id="JF92504" begin="1560" fromJunction="J3" toJunction="J2" end="1620" vehsPerHour="16.56562750831273"/>
  <flow id="JF92505" begin="1560" fromJunction="J3" toJunction="J4" end="1620" vehsPerHour="116.50135764158374"/>
  <flow id="JF92506" begin="1620" fromJunction="J0" toJunction="J3" end="1680" vehsPerHour="378.6651725343015"/>
  <flow id="JF92507" begin="1620" fromJunction="J3" toJunction="J0" end="1680" vehsPerHour="518.2156068927087"/>