<?xml version="1.0" encoding="UTF-8"?>
<routes xmlns:xsi="http://www.w3.org/2001/XMLSchema-instance" xsi:noNamespaceSchemaLocation="http://sumo.dlr.de/xsd/routes_file.xsd">
  <flow id="JF90526" begin="0" fromJunction="J0" toJunction="J3" end="60" vehsPerHour="182.91744489013223"/>
  <flow id="JF90527" begin="0" fromJunction="J3" toJunction="J0" end="60" vehsPerHour="419.922393463151"/>
  <flow id="JF90528" begin="0" fromJunction="J0" toJunction="J2" end="60" vehsPerHour="75.76545029739087"/>
  <flow id="JF90529" begin="0" fromJunction="J0" toJunction="J4" end="60" vehsPerHour="15.760191935386345"/>
  <flow id="JF90530" begin="0" fromJunction="J3" toJunction="J2" end="60" vehsPerHour="61.922486048633466"/>
  <flow id="JF90531" begin="0" fromJunction="J3" toJunction="J4" end="60" vehsPerHour="128.61831302827267"/>
  <flow id="JF90532" begin="0" fromJunction="J2" toJunction="J4" end="60" vehsPerHour="123.2793207438222"/>
  <flow id="JF90533" begin="0" fromJunction="J4" toJunction="J2" end="60" vehsPerHour="44.46622723447548"/>
  <flow id="JF90534" begin="0" fromJunction="J2" toJunction="J0" end="60" vehsPerHour="37.92611889572255"/>
  <flow id="JF90535" begin="0" fromJunction="J2" toJunction="J3" end="60" vehsPerHour="38.10390443529676"/>
  <flow id="JF90536" begin="0" fromJunction="J4" toJunction="J0" end="60" vehsPerHour="87.13107648107908"/>
  <flow id="JF90537" begin="0" fromJunction="J4" toJunction="J3" end="60" vehsPerHour="116.20185201900226"/>
  <flow id="JF90538" begin="60" fromJunction="J0" toJunction="J3" end="120" vehsPerHour="295.23349164385087"/>
  <flow id="JF90539" begin="60" fromJunction="J3" toJunction="J0" end="120" vehsPerHour="457.1609951545214"/>
  <flow id="JF90540" begin="60" fromJunction="J0" toJunction="J2" end="120" vehsPerHour="46.51161090915189"/>
  <flow id="JF90541" begin="60" fromJunction="J0" toJunction="J4" end="120" vehsPerHour="98.14930673448625"/>
  <flow id="JF90542" begin="60" fromJunction="J3" toJunction="J2" end="120" vehsPerHour="36.70734670655096"/>
  <flow id="JF90543" begin="60" fromJunction="J3" toJunction="J4" end="120" vehsPerHour="42.727001930783466"/>
  <flow id="JF90544" begin="120" fromJunction="J0" toJunction="J3" end="180" vehsPerHour="156.2069334231274"/>
  <flow id="JF90545" begin="120" fromJunction="J3" toJunction="J0" end="180" vehsPerHour="11.18736238019515"/>
  <flow id="JF90546" begin="120" fromJunction="J0" toJunction="J2" end="180" vehsPerHour="81.35694182497599"/>
  <flow id="JF90547" begin="120" fromJunction="J0" toJunction="J4" end="180" vehsPerHour="131.42414726133345"/>
  <flow id="JF90548" begin="120" fromJunction="J3" toJunction="J2" end="180" vehsPerHour="18.538377660794495"/>
  <flow id="JF90549" begin="120" fromJunction="J3" toJunction="J4" end="180" vehsPerHour="50.49958134920792"/>
  <flow id="JF90550" begin="180" fromJunction="J0" toJunction="J3" end="240" vehsPerHour="34.111227377328504"/>
  <flow id="JF90551" begin="180" fromJunction="J3" toJunction="J0" end="240" vehsPerHour="171.9540967451587"/>
  <flow id="JF90552" begin="180" fromJunction="J0" toJunction="J2" end="240" vehsPerHour="6.894642462832235"/>
  <flow id="JF90553" begin="180" fromJunction="J0" toJunction="J4" end="240" vehsPerHour="133.52424645530803"/>
  <flow id="JF90554" begin="180" fromJunction="J3" toJunction="J2" end="240" vehsPerHour="121.68614805460092"/>
  <flow id="JF90555" begin="180" fromJunction="J3" toJunction="J4" end="240" vehsPerHour="18.75815199660857"/>
  <flow id="JF90556" begin="180" fromJunction="J2" toJunction="J4" end="240" vehsPerHour="90.46701786770439"/>
  <flow id="JF90557" begin="180" fromJunction="J4" toJunction="J2" end="240" vehsPerHour="86.61461770376773"/>
  <flow id="JF90558" begin="180" fromJunction="J2" toJunction="J0" end="240" vehsPerHour="80.59101503169143"/>
  <flow id="JF90559" begin="180" fromJunction="J2" toJunction="J3" end="240" vehsPerHour="92.26767276935911"/>
  <flow id="JF90560" begin="180" fromJunction="J4" toJunction="J0" end="240" vehsPerHour="55.95535907085106"/>
  <flow id="JF90561" begin="180" fromJunction="J4" toJunction="J3" end="240" vehsPerHour="65.49405249959617"/>
  <flow id="JF90562" begin="240" fromJunction="J0" toJunction="J3" end="300" vehsPerHour="8.375534857993278"/>
  <flow id="JF90563" begin="240" fromJunction="J3" toJunction="J0" end="300" vehsPerHour="139.59057805723296"/>
  <flow id="JF90564" begin="240" fromJunction="J0" toJunction="J2" end="300" vehsPerHour="65.28937051439041"/>
  <flow id="JF90565" begin="240" fromJunction="J0" toJunction="J4" end="300" vehsPerHour="108.36629461209336"/>
  <flow id="JF90566" begin="240" fromJunction="J3" toJunction="J2" end="300" vehsPerHour="119.10574377162419"/>
  <flow id="JF90567" begin="240" fromJunction="J3" toJunction="J4" end="300" vehsPerHour="17.614935614338282"/>
  <flow id="JF90568" begin="240" fromJunction="J2" toJunction="J4" end="300" vehsPerHour="73.66556860811524"/>
  <flow id="JF90569" begin="240" fromJunction="J4" toJunction="J2" end="300" vehsPerHour="34.82629159379363"/>
  <flow id="JF90570" begin="240" fromJunction="J2" toJunction="J0" end="300" vehsPerHour="103.37052233751827"/>
  <flow id="JF90571" begin="240" fromJunction="J2" toJunction="J3" end="300" vehsPerHour="17.18347812302082"/>
  <flow id="JF90572" begin="240" fromJunction="J4" toJunction="J0" end="300" vehsPerHour="55.59373273670474"/>
  <flow id="JF90573" begin="240" fromJunction="J4" toJunction="J3" end="300" vehsPerHour="34.37133798248728"/>
  <flow id="JF90574" begin="300" fromJunction="J0" toJunction="J3" end="360" vehsPerHour="73.48451181924743"/>
  <flow id="JF90575" begin="300" fromJunction="J3" toJunction="J0" end="360" vehsPerHour="107.44593172192157"/>
  <flow id="JF90576" begin="300" fromJunction="J0" toJunction="J2" end="360" vehsPerHour="80.50678908242575"/>
  <flow id="JF90577" begin="300" fromJunction="J0" toJunction="J4" end="360" vehsPerHour="39.05557867951015"/>
  <flow id="JF90578" begin="300" fromJunction="J3" toJunction="J2" end="360" vehsPerHour="122.34524590733717"/>
  <flow id="JF90579" begin="300" fromJunction="J3" toJunction="J4" end="360" vehsPerHour="123.66780429821719"/>
  <flow id="JF90580" begin="300" fromJunction="J2" toJunction="J4" end="360" vehsPerHour="72.48711974860653"/>
  <flow id="JF90581" begin="300" fromJunction="J4" toJunction="J2" end="360" vehsPerHour="89.31457705568111"/>
  <flow id="JF90582" begin="300" fromJunction="J2" toJunction="J0" end="360" vehsPerHour="79.8327356349343"/>
  <flow id="JF90583" begin="300" fromJunction="J2" toJunction="J3" end="360" vehsPerHour="125.12811473052683"/>
  <flow id="JF90584" begin="300" fromJunction="J4" toJunction="J0" end="360" vehsPerHour="45.05655956245221"/>
  <flow id="JF90585" begin="300" fromJunction="J4" toJunction="J3" end="360" vehsPerHour="89.14950847384738"/>
  <flow id="JF90586" begin="360" fromJunction="J0" toJunction="J3" end="420" vehsPerHour="475.5825875692587"/>
  <flow id="JF90587" begin="360" fromJunction="J3" toJunction="J0" end="420" vehsPerHour="106.72051152821908"/>
  <flow id="JF90588" begin="360" fromJunction="J0" toJunction="J2" end="420" vehsPerHour="75.52718053448048"/>
  <flow id="JF90589" begin="360" fromJunction="J0" toJunction="J4" end="420" vehsPerHour="47.85923979012816"/>
  <flow id="JF90590" begin="360" fromJunction="J3" toJunction="J2" end="420" vehsPerHour="3.031532693163563"/>
  <flow id="JF90591" begin="360" fromJunction="J3" toJunction="J4" end="420" vehsPerHour="62.86810434050206"/>
  <flow id="JF90592" begin="360" fromJunction="J2" toJunction="J4" end="420" vehsPerHour="46.559361727689264"/>
  <flow id="JF90593" begin="360" fromJunction="J4" toJunction="J2" end="420" vehsPerHour="94.1109238887808"/>
  <flow id="JF90594" begin="360" fromJunction="J2" toJunction="J0" end="420" vehsPerHour="23.945768582582343"/>
  <flow id="JF90595" begin="360" fromJunction="J2" toJunction="J3" end="420" vehsPerHour="107.40816875008333"/>
  <flow id="JF90596" begin="360" fromJunction="J4" toJunction="J0" end="420" vehsPerHour="33.09114121120884"/>
  <flow id="JF90597" begin="360" fromJunction="J4" toJunction="J3" end="420" vehsPerHour="9.201417681203452"/>
  <flow id="JF90598" begin="420" fromJunction="J0" toJunction="J3" end="480" vehsPerHour="481.5443883832834"/>
  <flow id="JF90599" begin="420" fromJunction="J3" toJunction="J0" end="480" vehsPerHour="477.7127817015877"/>
  <flow id="JF90600" begin="420" fromJunction="J0" toJunction="J2" end="480" vehsPerHour="52.942377278192474"/>
  <flow id="JF90601" begin="420" fromJunction="J0" toJunction="J4" end="480" vehsPerHour="102.95311779468815"/>
  <flow id="JF90602" begin="420" fromJunction="J3" toJunction="J2" end="480" vehsPerHour="87.47414612845297"/>
  <flow id="JF90603" begin="420" fromJunction="J3" toJunction="J4" end="480" vehsPerHour="0.8602019570209821"/>
  <flow id="JF90604" begin="480" fromJunction="J0" toJunction="J3" end="540" vehsPerHour="292.3157870067348"/>
  <flow id="JF90605" begin="480" fromJunction="J3" toJunction="J0" end="540" vehsPerHour="423.305196137958"/>
  <flow id="JF90606" begin="480" fromJunction="J0" toJunction="J2" end="540" vehsPerHour="99.26283420799096"/>
  <flow id="JF90607" begin="480" fromJunction="J0" toJunction="J4" end="540" vehsPerHour="65.14332806847582"/>
  <flow id="JF90608" begin="480" fromJunction="J3" toJunction="J2" end="540" vehsPerHour="48.62821429164407"/>
  <flow id="JF90609" begin="480" fromJunction="J3" toJunction="J4" end="540" vehsPerHour="34.23958322804029"/>
  <flow id="JF90610" begin="480" fromJunction="J2" toJunction="J4" end="540" vehsPerHour="129.59488165835623"/>
  <flow id="JF90611" begin="480" fromJunction="J4" toJunction="J2" end="540" vehsPerHour="105.15112336492732"/>
  <flow id="JF90612" begin="480" fromJunction="J2" toJunction="J0" end="540" vehsPerHour="112.81208680967089"/>
  <flow id="JF90613" begin="480" fromJunction="J2" toJunction="J3" end="540" vehsPerHour="44.59314261001148"/>
  <flow id="JF90614" begin="480" fromJunction="J4" toJunction="J0" end="540" vehsPerHour="93.00523381199748"/>
  <flow id="JF90615" begin="480" fromJunction="J4" toJunction="J3" end="540" vehsPerHour="79.04547397277764"/>
  <flow id="JF90616" begin="540" fromJunction="J0" toJunction="J3" end="600" vehsPerHour="447.4951848383277"/>
  <flow id="JF90617" begin="540" fromJunction="J3" toJunction="J0" end="600" vehsPerHour="526.9900330742937"/>
  <flow id="JF90618" begin="540" fromJunction="J0" toJunction="J2" end="600" vehsPerHour="121.80137216223122"/>
  <flow id="JF90619" begin="540" fromJunction="J0" toJunction="J4" end="600" vehsPerHour="45.29300275649267"/>
  <flow id="JF90620" begin="540" fromJunction="J3" toJunction="J2" end="600" vehsPerHour="35.20866949166647"/>
  <flow id="JF90621" begin="540" fromJunction="J3" toJunction="J4" end="600" vehsPerHour="4.532432373393239"/>
  <flow id="JF90622" begin="540" fromJunction="J2" toJunction="J4" end="600" vehsPerHour="29.38501954398035"/>
  <flow id="JF90623" begin="540" fromJunction="J4" toJunction="J2" end="600" vehsPerHour="46.29110905057504"/>
  <flow id="JF90624" begin="540" fromJunction="J2" toJunction="J0" end="600" vehsPerHour="44.30657771215778"/>
  <flow id="JF90625" begin="540" fromJunction="J2" toJunction="J3" end="600" vehsPerHour="126.33222568873992"/>
  <flow id="JF90626" begin="540" fromJunction="J4" toJunction="J0" end="600" vehsPerHour="30.404896409661358"/>
  <flow id="JF90627" begin="540" fromJunction="J4" toJunction="J3" end="600" vehsPerHour="133.61712809784402"/>
  <flow id="JF90628" begin="600" fromJunction="J0" toJunction="J3" end="660" vehsPerHour="138.33057488479906"/>
  <flow id="JF90629" begin="600" fromJunction="J3" toJunction="J0" end="660" vehsPerHour="450.0277805433571"/>
  <flow id="JF90630" begin="600" fromJunction="J0" toJunction="J2" end="660" vehsPerHour="28.579957495599043"/>
  <flow id="JF90631" begin="600" fromJunction="J0" toJunction="J4" end="660" vehsPerHour="136.00463774903395"/>
  <flow id="JF90632" begin="600" fromJunction="J3" toJunction="J2" end="660" vehsPerHour="7.5269143196323745"/>
  <flow id="JF90633" begin="600" fromJunction="J3" toJunction="J4" end="660" vehsPerHour="92.74835490934652"/>
  <flow id="JF90634" begin="600" fromJunction="J2" toJunction="J4" end="660" vehsPerHour="70.54902533457263"/>
  <flow id="JF90635" begin="600" fromJunction="J4" toJunction="J2" end="660" vehsPerHour="86.74913131834951"/>
  <flow id="JF90636" begin="600" fromJunction="J2" toJunction="J0" end="660" vehsPerHour="96.42984354058127"/>
  <flow id="JF90637" begin="600" fromJunction="J2" toJunction="J3" end="660" vehsPerHour="101.26180191535026"/>
  <flow id="JF90638" begin="600" fromJunction="J4" toJunction="J0" end="660" vehsPerHour="15.021191332917896"/>
  <flow id="JF90639" begin="600" fromJunction="J4" toJunction="J3" end="660" vehsPerHour="28.338608667174913"/>
  <flow id="JF90640" begin="660" fromJunction="J0" toJunction="J3" end="720" vehsPerHour="80.19949060165746"/>
  <flow id="JF90641" begin="660" fromJunction="J3" toJunction="J0" end="720" vehsPerHour="426.9701524279355"/>
  <flow id="JF90642" begin="660" fromJunction="J0" toJunction="J2" end="720" vehsPerHour="119.52664880591624"/>
  <flow id="JF90643" begin="660" fromJunction="J0" toJunction="J4" end="720" vehsPerHour="126.27979681209459"/>
  <flow id="JF90644" begin="660" fromJunction="J3" toJunction="J2" end="720" vehsPerHour="132.45485529382896"/>
  <flow id="JF90645" begin="660" fromJunction="J3" toJunction="J4" end="720" vehsPerHour="8.09226800522551"/>
  <flow id="JF90646" begin="660" fromJunction="J2" toJunction="J4" end="720" vehsPerHour="99.9728888579697"/>
  <flow id="JF90647" begin="660" fromJunction="J4" toJunction="J2" end="720" vehsPerHour="57.27580449871329"/>
  <flow id="JF90648" begin="660" fromJunction="J2" toJunction="J0" end="720" vehsPerHour="1.1525403261138194"/>
  <flow id="JF90649" begin="660" fromJunction="J2" toJunction="J3" end="720" vehsPerHour="91.6856021742612"/>
  <flow id="JF90650" begin="660" fromJunction="J4" toJunction="J0" end="720" vehsPerHour="121.65129195227169"/>
  <flow id="JF90651" begin="660" fromJunction="J4" toJunction="J3" end="720" vehsPerHour="93.87133717452386"/>
  <flow id="JF90652" begin="720" fromJunction="J0" toJunction="J3" end="780" vehsPerHour="532.5231373951083"/>
  <flow id="JF90653" begin="720" fromJunction="J3" toJunction="J0" end="780" vehsPerHour="389.85712584966257"/>
  <flow id="JF90654" begin="720" fromJunction="J0" toJunction="J2" end="780" vehsPerHour="124.68616635749906"/>
  <flow id="JF90655" begin="720" fromJunction="J0" toJunction="J4" end="780" vehsPerHour="4.047443332531572"/>
  <flow id="JF90656" begin="720" fromJunction="J3" toJunction="J2" end="780" vehsPerHour="81.41875078142012"/>
  <flow id="JF90657" begin="720" fromJunction="J3" toJunction="J4" end="780" vehsPerHour="72.96309330779121"/>
  <flow id="JF90658" begin="720" fromJunction="J2" toJunction="J4" end="780" vehsPerHour="28.514782445620053"/>
  <flow id="JF90659" begin="720" fromJunction="J4" toJunction="J2" end="780" vehsPerHour="85.96100618358682"/>
  <flow id="JF90660" begin="720" fromJunction="J2" toJunction="J0" end="780" vehsPerHour="104.64594737148565"/>
  <flow id="JF90661" begin="720" fromJunction="J2" toJunction="J3" end="780" vehsPerHour="99.64179378336016"/>
  <flow id="JF90662" begin="720" fromJunction="J4" toJunction="J0" end="780" vehsPerHour="21.802819273118466"/>
  <flow id="JF90663" begin="720" fromJunction="J4" toJunction="J3" end="780" vehsPerHour="50.37228219627133"/>
  <flow id="JF90664" begin="780" fromJunction="J0" toJunction="J3" end="840" vehsPerHour="18.519275977582677"/>
  <flow id="JF90665" begin="780" fromJunction="J3" toJunction="J0" end="840" vehsPerHour="354.2175073885402"/>
  <flow id="JF90666" begin="780" fromJunction="J0" toJunction="J2" end="840" vehsPerHour="88.00212947235853"/>
  <flow id="JF90667" begin="780" fromJunction="J0" toJunction="J4" end="840" vehsPerHour="42.88679983634571"/>
  <flow id="JF90668" begin="780" fromJunction="J3" toJunction="J2" end="840" vehsPerHour="86.74796392152759"/>
  <flow id="JF90669" begin="780" fromJunction="J3" toJunction="J4" end="840" vehsPerHour="91.71216435624268"/>
  <flow id="JF90670" begin="780" fromJunction="J2" toJunction="J4" end="840" vehsPerHour="25.75814879357917"/>
  <flow id="JF90671" begin="780" fromJunction="J4" toJunction="J2" end="840" vehsPerHour="39.938055594285"/>
  <flow id="JF90672" begin="780" fromJunction="J2" toJunction="J0" end="840" vehsPerHour="88.36317961976586"/>
  <flow id="JF90673" begin="780" fromJunction="J2" toJunction="J3" end="840" vehsPerHour="88.19930854749529"/>
  <flow id="JF90674" begin="780" fromJunction="J4" toJunction="J0" end="840" vehsPerHour="14.480819408697153"/>
  <flow id="JF90675" begin="780" fromJunction="J4" toJunction="J3" end="840" vehsPerHour="9.931067355260634"/>
  <flow id="JF90676" begin="840" fromJunction="J0" toJunction="J3" end="900" vehsPerHour="475.8182545327469"/>
  <flow id="JF90677" begin="840" fromJunction="J3" toJunction="J0" end="900" vehsPerHour="32.94525610982697"/>
  <flow id="JF90678" begin="840" fromJunction="J0" toJunction="J2" end="900" vehsPerHour="7.6550575298642425"/>
  <flow id="JF90679" begin="840" fromJunction="J0" toJunction="J4" end="900" vehsPerHour="58.48753667323159"/>
  <flow id="JF90680" begin="840" fromJunction="J3" toJunction="J2" end="900" vehsPerHour="136.17433006788343"/>
  <flow id="JF90681" begin="840" fromJunction="J3" toJunction="J4" end="900" vehsPerHour="0.04827311356194042"/>
  <flow id="JF90682" begin="900" fromJunction="J0" toJunction="J3" end="960" vehsPerHour="298.5009673101149"/>
  <flow id="JF90683" begin="900" fromJunction="J3" toJunction="J0" end="960" vehsPerHour="315.8647911177786"/>
  <flow id="JF90684" begin="900" fromJunction="J0" toJunction="J2" end="960" vehsPerHour="33.99439325792174"/>
  <flow id="JF90685" begin="900" fromJunction="J0" toJunction="J4" end="960" vehsPerHour="21.158162544814513"/>
  <flow id="JF90686" begin="900" fromJunction="J3" toJunction="J2" end="960" vehsPerHour="123.16080382148525"/>
  <flow id="JF90687" begin="900" fromJunction="J3" toJunction="J4" end="960" vehsPerHour="78.32238468374246"/>
  <flow id="JF90688" begin="900" fromJunction="J2" toJunction="J4" end="960" vehsPerHour="108.00087614483442"/>
  <flow id="JF90689" begin="900" fromJunction="J4" toJunction="J2" end="960" vehsPerHour="123.05996235576215"/>
  <flow id="JF90690" begin="900" fromJunction="J2" toJunction="J0" end="960" vehsPerHour="93.76089650474132"/>
  <flow id="JF90691" begin="900" fromJunction="J2" toJunction="J3" end="960" vehsPerHour="106.4969336785471"/>
  <flow id="JF90692" begin="900" fromJunction="J4" toJunction="J0" end="960" vehsPerHour="71.65110822764494"/>
  <flow id="JF90693" begin="900" fromJunction="J4" toJunction="J3" end="960" vehsPerHour="97.58871516220869"/>
  <flow id="JF90694" begin="960" fromJunction="J0" toJunction="J3" end="1020" vehsPerHour="485.49753030617325"/>
  <flow id="JF90695" begin="960" fromJunction="J3" toJunction="J0" end="1020" vehsPerHour="318.54448590650736"/>
  <flow id="JF90696" begin="960" fromJunction="J0" toJunction="J2" end="1020" vehsPerHour="25.73424171059397"/>
  <flow id="JF90697" begin="960" fromJunction="J0" toJunction="J4" end="1020" vehsPerHour="4.992780383840082"/>
  <flow id="JF90698" begin="960" fromJunction="J3" toJunction="J2" end="1020" vehsPerHour="20.834974313755087"/>
  <flow id="JF90699" begin="960" fromJunction="J3" toJunction="J4" end="1020" vehsPerHour="36.61496084483949"/>
  <flow id="JF90700" begin="960" fromJunction="J2" toJunction="J4" end="1020" vehsPerHour="105.59956695428215"/>
  <flow id="JF90701" begin="960" fromJunction="J4" toJunction="J2" end="1020" vehsPerHour="32.60427738969658"/>
  <flow id="JF90702" begin="960" fromJunction="J2" toJunction="J0" end="1020" vehsPerHour="71.34284947986016"/>
  <flow id="JF90703" begin="960" fromJunction="J2" toJunction="J3" end="1020" vehsPerHour="10.148925457406982"/>
  <flow id="JF90704" begin="960" fromJunction="J4" toJunction="J0" end="1020" vehsPerHour="3.777636452704915"/>
  <flow id="JF90705" begin="960" fromJunction="J4" toJunction="J3" end="1020" vehsPerHour="89.76881103353269"/>
  <flow id="JF90706" begin="1020" fromJunction="J0" toJunction="J3" end="1080" vehsPerHour="54.13866548790496"/>
  <flow id="JF90707" begin="1020" fromJunction="J3" toJunction="J0" end="1080" vehsPerHour="28.15247981630335"/>
  <flow id="JF90708" begin="1020" fromJunction="J0" toJunction="J2" end="1080" vehsPerHour="9.569569893713464"/>
  <flow id="JF90709" begin="1020" fromJunction="J0" toJunction="J4" end="1080" vehsPerHour="44.374961046701195"/>
  <flow id="JF90710" begin="1020" fromJunction="J3" toJunction="J2" end="1080" vehsPerHour="61.00263319244619"/>
  <flow id="JF90711" begin="1020" fromJunction="J3" toJunction="J4" end="1080" vehsPerHour="76.56728535491587"/>
  <flow id="JF90712" begin="1020" fromJunction="J2" toJunction="J4" end="1080" vehsPerHour="106.73836958566015"/>
  <flow id="JF90713" begin="1020" fromJunction="J4" toJunction="J2" end="1080" vehsPerHour="54.414974976375"/>
  <flow id="JF90714" begin="1020" fromJunction="J2" toJunction="J0" end="1080" vehsPerHour="3.2008784017375906"/>
  <flow id="JF90715" begin="1020" fromJunction="J2" toJunction="J3" end="1080" vehsPerHour="56.52706657642246"/>
  <flow id="JF90716" begin="1020" fromJunction="J4" toJunction="J0" end="1080" vehsPerHour="80.39518555948626"/>
  <flow id="JF90717" begin="1020" fromJunction="J4" toJunction="J3" end="1080" vehsPerHour="22.797306085653208"/>
  <flow id="JF90718" begin="1080" fromJunction="J0" toJunction="J3" end="1140" vehsPerHour="511.2857485832601"/>
  <flow id="JF90719" begin="1080" fromJunction="J3" toJunction="J0" end="1140" vehsPerHour="375.9347255808669"/>
  <flow id="JF90720" begin="1080" fromJunction="J0" toJunction="J2" end="1140" vehsPerHour="93.62994881404053"/>
  <flow id="JF90721" begin="1080" fromJunction="J0" toJunction="J4" end="1140" vehsPerHour="44.42418474047937"/>
  <flow id="JF90722" begin="1080" fromJunction="J3" toJunction="J2" end="1140" vehsPerHour="72.14125183528307"/>
  <flow id="JF90723" begin="1080" fromJunction="J3" toJunction="J4" end="1140" vehsPerHour="25.211887797112567"/>
  <flow id="JF90724" begin="1080" fromJunction="J2" toJunction="J4" end="1140" vehsPerHour="114.08586601031907"/>
  <flow id="JF90725" begin="1080" fromJunction="J4" toJunction="J2" end="1140" vehsPerHour="131.86572731549938"/>
  <flow id="JF90726" begin="1080" fromJunction="J2" toJunction="J0" end="1140" vehsPerHour="15.552185239036637"/>
  <flow id="JF90727" begin="1080" fromJunction="J2" toJunction="J3" end="1140" vehsPerHour="112.92511464372684"/>
  <flow id="JF90728" begin="1080" fromJunction="J4" toJunction="J0" end="1140" vehsPerHour="25.054783958417435"/>
  <flow id="JF90729" begin="1080" fromJunction="J4" toJunction="J3" end="1140" vehsPerHour="69.69354726035922"/>
  <flow id="JF90730" begin="1140" fromJunction="J0" toJunction="J3" end="1200" vehsPerHour="240.7760658175859"/>
  <flow id="JF90731" begin="1140" fromJunction="J3" toJunction="J0" end="1200" vehsPerHour="397.9162676696113"/>
  <flow id="JF90732" begin="1140" fromJunction="J0" toJunction="J2" end="1200" vehsPerHour="97.38498775166545"/>
  <flow id="JF90733" begin="1140" fromJunction="J0" toJunction="J4" end="1200" vehsPerHour="98.49205104971263"/>
  <flow id="JF90734" begin="1140" fromJunction="J3" toJunction="J2" end="1200" vehsPerHour="3.349103390637183"/>
  <flow id="JF90735" begin="1140" fromJunction="J3" toJunction="J4" end="1200" vehsPerHour="67.30010524824304"/>
  <flow id="JF90736" begin="1140" fromJunction="J2" toJunction="J4" end="1200" vehsPerHour="53.29407005236539"/>
  <flow id="JF90737" begin="1140" fromJunction="J4" toJunction="J2" end="1200" vehsPerHour="11.01100604933583"/>
  <flow id="JF90738" begin="1140" fromJunction="J2" toJunction="J0" end="1200" vehsPerHour="28.167028654729013"/>
  <flow id="JF90739" begin="1140" fromJunction="J2" toJunction="J3" end="1200" vehsPerHour="56.696621499250334"/>
  <flow id="JF90740" begin="1140" fromJunction="J4" toJunction="J0" end="1200" vehsPerHour="53.01315998948464"/>
  <flow id="JF90741" begin="1140" fromJunction="J4" toJunction="J3" end="1200" vehsPerHour="109.14168658522667"/>
  <flow id="JF90742" begin="1200" fromJunction="J0" toJunction="J3" end="1260" vehsPerHour="353.6839331952793"/>
  <flow id="JF90743" begin="1200" fromJunction="J3" toJunction="J0" end="1260" vehsPerHour="189.92554240975724"/>
  <flow id="JF90744" begin="1200" fromJunction="J0" toJunction="J2" end="1260" vehsPerHour="10.06803343783827"/>
  <flow id="JF90745" begin="1200" fromJunction="J0" toJunction="J4" end="1260" vehsPerHour="107.00788196422008"/>
  <flow id="JF90746" begin="1200" fromJunction="J3" toJunction="J2" end="1260" vehsPerHour="54.888984618581524"/>
  <flow id="JF90747" begin="1200" fromJunction="J3" toJunction="J4" end="1260" vehsPerHour="79.49946924727278"/>
  <flow id="JF90748" begin="1260" fromJunction="J0" toJunction="J3" end="1320" vehsPerHour="90.62039072037963"/>
  <flow id="JF90749" begin="1260" fromJunction="J3" toJunction="J0" end="1320" vehsPerHour="460.64330449427814"/>
  <flow id="JF90750" begin="1260" fromJunction="J0" toJunction="J2" end="1320" vehsPerHour="125.5678609524351"/>
  <flow id="JF90751" begin="1260" fromJunction="J0" toJunction="J4" end="1320" vehsPerHour="89.96017668614662"/>
  <flow id="JF90752" begin="1260" fromJunction="J3" toJunction="J2" end="1320" vehsPerHour="118.86521528012493"/>
  <flow id="JF90753" begin="1260" fromJunction="J3" toJunction="J4" end="1320" vehsPerHour="101.25316477465618"/>
  <flow id="JF90754" begin="1260" fromJunction="J2" toJunction="J4" end="1320" vehsPerHour="120.7149848681402"/>
  <flow id="JF90755" begin="1260" fromJunction="J4" toJunction="J2" end="1320" vehsPerHour="56.36272506216069"/>
  <flow id="JF90756" begin="1260" fromJunction="J2" toJunction="J0" end="1320" vehsPerHour="125.4114091074006"/>
  <flow id="JF90757" begin="1260" fromJunction="J2" toJunction="J3" end="1320" vehsPerHour="73.14980163953851"/>
  <flow id="JF90758" begin="1260" fromJunction="J4" toJunction="J0" end="1320" vehsPerHour="74.12517939599472"/>
  <flow id="JF90759" begin="1260" fromJunction="J4" toJunction="J3" end="1320" vehsPerHour="29.88534815623722"/>
  <flow id="JF90760" begin="1320" fromJunction="J0" toJunction="J3" end="1380" vehsPerHour="101.74306996702775"/>
  <flow id="JF90761" begin="1320" fromJunction="J3" toJunction="J0" end="1380" vehsPerHour="126.55438223866949"/>
  <flow id="JF90762" begin="1320" fromJunction="J0" toJunction="J2" end="1380" vehsPerHour="92.19744537711564"/>
  <flow id="JF90763" begin="1320" fromJunction="J0" toJunction="J4" end="1380" vehsPerHour="42.166653073239694"/>
  <flow id="JF90764" begin="1320" fromJunction="J3" toJunction="J2" end="1380" vehsPerHour="80.16089980934525"/>
  <flow id="JF90765" begin="1320" fromJunction="J3" toJunction="J4" end="1380" vehsPerHour="58.61781796521763"/>
  <flow id="JF90766" begin="1320" fromJunction="J2" toJunction="J4" end="1380" vehsPerHour="64.2846542245582"/>
  <flow id="JF90767" begin="1320" fromJunction="J4" toJunction="J2" end="1380" vehsPerHour="133.73693292677572"/>
  <flow id="JF90768" begin="1320" fromJunction="J2" toJunction="J0" end="1380" vehsPerHour="66.34995749887885"/>
  <flow id="JF90769" begin="1320" fromJunction="J2" toJunction="J3" end="1380" vehsPerHour="48.351971362891"/>
  <flow id="JF90770" begin="1320" fromJunction="J4" toJunction="J0" end="1380" vehsPerHour="44.69002869703265"/>
  <flow id="JF90771" begin="1320" fromJunction="J4" toJunction="J3" end="1380" vehsPerHour="13.351003911873343"/>
  <flow id="JF90772" begin="1380" fromJunction="J0" toJunction="J3" end="1440" vehsPerHour="307.41518207872076"/>
  <flow id="JF90773" begin="1380" fromJunction="J3" toJunction="J0" end="1440" vehsPerHour="406.9839933156447"/>
  <flow id="JF90774" begin="1380" fromJunction="J0" toJunction="J2" end="1440" vehsPerHour="83.9343795173746"/>
  <flow id="JF90775" begin="1380" fromJunction="J0" toJunction="J4" end="1440" vehsPerHour="58.62480592119523"/>
  <flow id="JF90776" begin="1380" fromJunction="J3" toJunction="J2" end="1440" vehsPerHour="111.59182427365944"/>
  <flow id="JF90777" begin="1380" fromJunction="J3" toJunction="J4" end="1440" vehsPerHour="72.42046009431316"/>
  <flow id="JF90778" begin="1440" fromJunction="J0" toJunction="J3" end="1500" vehsPerHour="241.79121742597826"/>
  <flow id="JF90779" begin="1440" fromJunction="J3" toJunction="J0" end="1500" vehsPerHour="506.82541795402153"/>
  <flow id="JF90780" begin="1440" fromJunction="J0" toJunction="J2" end="1500" vehsPerHour="120.10326032982553"/>
  <flow id="JF90781" begin="1440" fromJunction="J0" toJunction="J4" end="1500" vehsPerHour="124.22775018328609"/>
  <flow id="JF90782" begin="1440" fromJunction="J3" toJunction="J2" end="1500" vehsPerHour="101.96959007148119"/>
  <flow id="JF90783" begin="1440" fromJunction="J3" toJunction="J4" end="1500" vehsPerHour="122.81805525110067"/>
  <flow id="JF90784" begin="1440" fromJunction="J2" toJunction="J4" end="1500" vehsPerHour="16.547031900228173"/>
  <flow id="JF90785" begin="1440" fromJunction="J4" toJunction="J2" end="1500" vehsPerHour="4.426581873299948"/>
  <flow id="JF90786" begin="1440" fromJunction="J2" toJunction="J0" end="1500" vehsPerHour="61.39718235490798"/>
  <flow id="JF90787" begin="1440" fromJunction="J2" toJunction="J3" end="1500" vehsPerHour="21.763450765967725"/>
  <flow id="JF90788" begin="1440" fromJunction="J4" toJunction="J0" end="1500" vehsPerHour="62.7014164818632"/>
  <flow id="JF90789" begin="1440" fromJunction="J4" toJunction="J3" end="1500" vehsPerHour="97.56900474215261"/>
  <flow id="JF90790" begin="1500" fromJunction="J0" toJunction="J3" end="1560" vehsPerHour="355.8088494023551"/>
  <flow id="JF90791" begin="1500" fromJunction="J3" toJunction="J0" end="1560" vehsPerHour="158.93652223617838"/>