<?xml version="1.0" encoding="UTF-8"?>
<routes xmlns:xsi="http://www.w3.org/2001/XMLSchema-instance" xsi:noNamespaceSchemaLocation="http://sumo.dlr.de/xsd/routes_file.xsd">
  <flow id="JF448382" begin="0" fromJunction="J3" toJunction="J0" end="5000" vehsPerHour="641.3271263454748" departLane="free"/>
  <flow id="JF448383" begin="0" fromJunction="J0" toJunction="J3" end="5000" vehsPerHour="1215.5858898466292" departLane="free"/>
  <flow id="JF448384" begin="0" fromJunction="J3" toJunction="J6" end="5000" vehsPerHour="456.9116960068465" departLane="free"/>
  <flow id="JF448385" begin="0" fromJunction="J3" toJunction="J7" end="5000" vehsPerHour="321.4400497291766" departLane="free"/>
  <flow id="JF448386" begin="0" fromJunction="J3" toJunction="J4" end="5000" vehsPerHour="532.4248281659882" departLane="free"/>
  <flow id="JF448387" begin="0" fromJunction="J3" toJunction="J5" end="5000" vehsPerHour="481.81310088562395" departLane="free"/>
  <flow id="JF448388" begin="0" fromJunction="J0" toJunction="J6" end="5000" vehsPerHour="485.51629945524485" departLane="free"/>
  <flow id="JF448389" begin="0" fromJunction="J0" toJunction="J7" end="5000" vehsPerHour="538.6386817557222" departLane="free"/>
  <flow id="JF448390" begin="0" fromJunction="J0" toJunction="J4" end="5000" vehsPerHour="135.8301491468598" departLane="free"/>
  <flow id="JF448391" begin="0" fromJunction="J0" toJunction="J5" end="5000" vehsPerHour="486.3326099228598" departLane="free"/>
  <flow id="JF448392" begin="0" fromJunction="J6" toJunction="J7" end="5000" vehsPerHour="227.3144698587448" departLane="free"/>
  <flow id="JF448393" begin="0" fromJunction="J6" toJunction="J4" end="5000" vehsPerHour="89.08927774637165" departLane="free"/>
  <flow id="JF448394" begin="0" fromJunction="J6" toJunction="J5" end="5000" vehsPerHour="93.80386895495378" departLane="free"/>
  <flow id="JF448395" begin="0" fromJunction="J7" toJunction="J6" end="5000" vehsPerHour="41.15510815490728" departLane="free"/>
  <flow id="JF448396" begin="0" fromJunction="J7" toJunction="J4" end="5000" vehsPerHour="76.91850497975396" departLane="free"/>
  <flow id="JF448397" begin="0" fromJunction="J7" toJunction="J5" end="5000" vehsPerHour="14.765692244628791" departLane="free"/>
  <flow id="JF448398" begin="0" fromJunction="J4" toJunction="J6" end="5000" vehsPerHour="65.9267881350819" departLane="free"/>
  <flow id="JF448399" begin="0" fromJunction="J4" toJunction="J7" end="5000" vehsPerHour="141.64078096589253" departLane="free"/>
  <flow id="JF448400" begin="0" fromJunction="J4" toJunction="J5" end="5000" vehsPerHour="251.49008042686168" departLane="free"/>
  <flow id="JF448401" begin="0" fromJunction="J5" toJunction="J6" end="5000" vehsPerHour="107.07105837209443" departLane="free"/>
  <flow id="JF448402" begin="0" fromJunction="J5" toJunction="J7" end="5000" vehsPerHour="94.21091010308693" departLane="free"/>
  <flow id="JF448403" begin="0" fromJunction="J5" toJunction="J4" end="5000" vehsPerHour="86.6255512950412" departLane="free"/>
  <flow id="JF448404" begin="0" fromJunction="J6" toJunction="J3" end="5000" vehsPerHour="121.69482159158254" departLane="free"/>
  <flow id="JF448405" begin="0" fromJunction="J6" toJunction="J0" end="5000" vehsPerHour="62.09455864025468" departLane="free"/>
  <flow id="JF448406" begin="0" fromJunction="J7" toJunction="J3" end="5000" vehsPerHour="205.7956833479925" departLane="free"/>
  <flow id="JF448407" begin="0" fromJunction="J7" toJunction="J0" end="5000" vehsPerHour="137.59301616532824" departLane="free"/>
  <flow id="JF448408" begin="0" fromJunction="J4" toJunction="J3" end="5000" vehsPerHour="20.98306007235892" departLane="free"/>
  <flow id="JF448409" begin="0" fromJunction="J4" toJunction="J0" end="5000" vehsPerHour="243.4619467963332" departLane="free"/>
  <flow id="JF448410" begin="0" fromJunction="J5" toJunction="J3" end="5000" vehsPerHour="167.9366971741518" departLane="free"/>
  <flow id="JF448411" begin="0" fromJunction="J5" toJunction="J0" end="5000" vehsPerHour="39.79693701656943" departLane="free"/>
  <flow id="JF448412" begin="5000" fromJunction="J0" toJunction="J3" end="5060" vehsPerHour="45.820790997808714" departLane="free"/>
  <flow id="JF448413" begin="5000" fromJunction="J0" toJunction="J5" end="5060" vehsPerHour="42.22714381434871" departLane="free"/>
  <flow id="JF448414" begin="5000" fromJunction="J0" toJunction="J6" end="5060" vehsPerHour="218.50770008211643" departLane="free"/>
  <flow id="JF448415" begin="5000" fromJunction="J0" toJunction="J7" end="5060" vehsPerHour="151.67027496688715" departLane="free"/>
  <flow id="JF448416" begin="5000" fromJunction="J3" toJunction="J0" end="5060" vehsPerHour="433.60574920996055" departLane="free"/>
  <flow id="JF448417" begin="5000" fromJunction="J3" toJunction="J4" end="5060" vehsPerHour="324.8889757651912" departLane="free"/>
  <flow id="JF448418" begin="5000" fromJunction="J3" toJunction="J5" end="5060" vehsPerHour="199.27032937702518" departLane="free"/>
  <flow id="JF448419" begin="5000" fromJunction="J3" toJunction="J6" end="5060" vehsPerHour="38.436599972910436" departLane="free"/>
  <flow id="JF448420" begin="5000" fromJunction="J3" toJunction="J7" end="5060" vehsPerHour="387.49338324907825" departLane="free"/>
  <flow id="JF448421" begin="5000" fromJunction="J4" toJunction="J0" end="5060" vehsPerHour="188.6761131728605" departLane="free"/>
  <flow id="JF448422" begin="5000" fromJunction="J4" toJunction="J3" end="5060" vehsPerHour="56.9772657026621" departLane="free"/>
  <flow id="JF448423" begin="5000" fromJunction="J4" toJunction="J5" end="5060" vehsPerHour="270.89061954378064" departLane="free"/>
  <flow id="JF448424" begin="5000" fromJunction="J4" toJunction="J7" end="5060" vehsPerHour="213.2962391820706" departLane="free"/>
  <flow id="JF448425" begin="5000" fromJunction="J5" toJunction="J0" end="5060" vehsPerHour="79.8591031738465" departLane="free"/>
  <flow id="JF448426" begin="5000" fromJunction="J5" toJunction="J3" end="5060" vehsPerHour="173.1624289129654" departLane="free"/>
  <flow id="JF448427" begin="5000" fromJunction="J5" toJunction="J4" end="5060" vehsPerHour="253.1794405396692" departLane="free"/>
  <flow id="JF448428" begin="5000" fromJunction="J6" toJunction="J0" end="5060" vehsPerHour="54.927242692464944" departLane="free"/>
  <flow id="JF448429" begin="5000" fromJunction="J6" toJunction="J5" end="5060" vehsPerHour="85.64383083924768" departLane="free"/>
  <flow id="JF448430" begin="5000" fromJunction="J7" toJunction="J0" end="5060" vehsPerHour="182.4512702737805" departLane="free"/>
  <flow id="JF448431" begin="5000" fromJunction="J7" toJunction="J3" end="5060" vehsPerHour="20.577384430464306" departLane="free"/>
  <flow id="JF448432" begin="5060" fromJunction="J0" toJunction="J3" end="5120" vehsPerHour="358.75686915206677" departLane="free"/>
  <flow id="JF448433" begin="5060" fromJunction="J0" toJunction="J4" end="5120" vehsPerHour="481.923249286812" departLane="free"/>
  <flow id="JF448434" begin="5060" fromJunction="J0" toJunction="J7" end="5120" vehsPerHour="486.85787808103686" departLane="free"/>
  <flow id="JF448435" begin="5060" fromJunction="J3" toJunction="J0" end="5120" vehsPerHour="477.18392581000455" departLane="free"/>
  <flow id="JF448436" begin="5060" fromJunction="J3" toJunction="J4" end="5120" vehsPerHour="346.2828267237698" departLane="free"/>
  <flow id="JF448437" begin="5060" fromJunction="J3" toJunction="J5" end="5120" vehsPerHour="428.6956517924044" departLane="free"/>
  <flow id="JF448438" begin="5060" fromJunction="J3" toJunction="J6" end="5120" vehsPerHour="201.18596803808347" departLane="free"/>
  <flow id="JF448439" begin="5060" fromJunction="J3" toJunction="J7" end="5120" vehsPerHour="460.7720694897456" departLane="free"/>
  <flow id="JF448440" begin="5060" fromJunction="J4" toJunction="J0" end="5120" vehsPerHour="11.295192652180274" departLane="free"/>
  <flow id="JF448441" begin="5060" fromJunction="J4" toJunction="J3" end="5120" vehsPerHour="107.12031610180712" departLane="free"/>
  <flow id="JF448442" begin="5060" fromJunction="J4" toJunction="J5" end="5120" vehsPerHour="259.10595487846535" departLane="free"/>
  <flow id="JF448443" begin="5060" fromJunction="J4" toJunction="J6" end="5120" vehsPerHour="131.57349498100075" departLane="free"/>
  <flow id="JF448444" begin="5060" fromJunction="J4" toJunction="J7" end="5120" vehsPerHour="17.973706453598037" departLane="free"/>
  <flow id="JF448445" begin="5060" fromJunction="J5" toJunction="J0" end="5120" vehsPerHour="171.92888010921806" departLane="free"/>
  <flow id="JF448446" begin="5060" fromJunction="J5" toJunction="J4" end="5120" vehsPerHour="253.3687404417572" departLane="free"/>
  <flow id="JF448447" begin="5060" fromJunction="J6" toJunction="J0" end="5120" vehsPerHour="273.5358014905294" departLane="free"/>
  <flow id="JF448448" begin="5060" fromJunction="J6" toJunction="J3" end="5120" vehsPerHour="117.32689708718888" departLane="free"/>
  <flow id="JF448449" begin="5060" fromJunction="J6" toJunction="J4" end="5120" vehsPerHour="190.48116740368766" departLane="free"/>
  <flow id="JF448450" begin="5060" fromJunction="J6" toJunction="J5" end="5120" vehsPerHour="8.924265743860541" departLane="free"/>
  <flow id="JF448451" begin="5060" fromJunction="J6" toJunction="J7" end="5120" vehsPerHour="171.23546626781666" departLane="free"/>
  <flow id="JF448452" begin="5060" fromJunction="J7" toJunction="J0" end="5120" vehsPerHour="213.85289129982925" departLane="free"/>
  <flow id="JF448453" begin="5060" fromJunction="J7" toJunction="J3" end="5120" vehsPerHour="186.26097167251473" departLane="free"/>
  <flow id="JF448454" begin="5060" fromJunction="J7" toJunction="J4" end="5120" vehsPerHour="83.04209627293996" departLane="free"/>
  <flow id="JF448455" begin="5060" fromJunction="J7" toJunction="J6" end="5120" vehsPerHour="38.27569423039601" departLane="free"/>
  <flow id="JF448456" begin="5120" fromJunction="J0" toJunction="J3" end="5180" vehsPerHour="223.15605813959144" departLane="free"/>
  <flow id="JF448457" begin="5120" fromJunction="J0" toJunction="J5" end="5180" vehsPerHour="549.4321457199006" departLane="free"/>
  <flow id="JF448458" begin="5120" fromJunction="J0" toJunction="J6" end="5180" vehsPerHour="125.19372652401756" departLane="free"/>
  <flow id="JF448459" begin="5120" fromJunction="J0" toJunction="J7" end="5180" vehsPerHour="492.39590730880207" departLane="free"/>
  <flow id="JF448460" begin="5120" fromJunction="J3" toJunction="J0" end="5180" vehsPerHour="6.3439044797807895" departLane="free"/>
  <flow id="JF448461" begin="5120" fromJunction="J3" toJunction="J5" end="5180" vehsPerHour="237.0581242814155" departLane="free"/>
  <flow id="JF448462" begin="5120" fromJunction="J3" toJunction="J6" end="5180" vehsPerHour="105.23931008888806" departLane="free"/>
  <flow id="JF448463" begin="5120" fromJunction="J3" toJunction="J7" end="5180" vehsPerHour="432.7525840803127" departLane="free"/>
  <flow id="JF448464" begin="5120" fromJunction="J4" toJunction="J3" end="5180" vehsPerHour="185.21070645066035" departLane="free"/>
  <flow id="JF448465" begin="5120" fromJunction="J4" toJunction="J5" end="5180" vehsPerHour="171.22647755093743" departLane="free"/>
  <flow id="JF448466" begin="5120" fromJunction="J4" toJunction="J6" end="5180" vehsPerHour="117.52766865943222" departLane="free"/>
  <flow id="JF448467" begin="5120" fromJunction="J5" toJunction="J0" end="5180" vehsPerHour="46.77167664863603" departLane="free"/>
  <flow id="JF448468" begin="5120" fromJunction="J5" toJunction="J3" end="5180" vehsPerHour="158.73112572394416" departLane="free"/>
  <flow id="JF448469" begin="5120" fromJunction="J6" toJunction="J0" end="5180" vehsPerHour="265.7020494191032" departLane="free"/>
  <flow id="JF448470" begin="5120" fromJunction="J6" toJunction="J3" end="5180" vehsPerHour="79.57611864667322" departLane="free"/>
  <flow id="JF448471" begin="5120" fromJunction="J6" toJunction="J4" end="5180" vehsPerHour="100.28319072200699" departLane="free"/>
  <flow id="JF448472" begin="5120" fromJunction="J6" toJunction="J7" end="5180" vehsPerHour="25.951644293672274" departLane="free"/>
  <flow id="JF448473" begin="5120" fromJunction="J7" toJunction="J0" end="5180" vehsPerHour="238.0271709914178" departLane="free"/>
  <flow id="JF448474" begin="5120" fromJunction="J7" toJunction="J3" end="5180" vehsPerHour="130.90019332211952" departLane="free"/>
  <flow id="JF448475" begin="5180" fromJunction="J0" toJunction="J4" end="5240" vehsPerHour="474.20673830090647" departLane="free"/>
  <flow id="JF448476" begin="5180" fromJunction="J0" toJunction="J5" end="5240" vehsPerHour="251.67369271804" departLane="free"/>
  <flow id="JF448477" begin="5180" fromJunction="J3" toJunction="J0" end="5240" vehsPerHour="421.07982625934505" departLane="free"/>
  <flow id="JF448478" begin="5180" fromJunction="J3" toJunction="J4" end="5240" vehsPerHour="346.4594843198852" departLane="free"/>
  <flow id="JF448479" begin="5180" fromJunction="J3" toJunction="J5" end="5240" vehsPerHour="400.0038796308143" departLane="free"/>
  <flow id="JF448480" begin="5180" fromJunction="J4" toJunction="J0" end="5240" vehsPerHour="223.16556167884494" departLane="free"/>
  <flow id="JF448481" begin="5180" fromJunction="J4" toJunction="J3" end="5240" vehsPerHour="202.9474109276804" departLane="free"/>
  <flow id="JF448482" begin="5180" fromJunction="J4" toJunction="J5" end="5240" vehsPerHour="176.69015490421262" departLane="free"/>
  <flow id="JF448483" begin="5180" fromJunction="J4" toJunction="J6" end="5240" vehsPerHour="106.34187951489473" departLane="free"/>
  <flow id="JF448484" begin="5180" fromJunction="J5" toJunction="J0" end="5240" vehsPerHour="161.5494417901962" departLane="free"/>
  <flow id="JF448485" begin="5180" fromJunction="J5" toJunction="J3" end="5240" vehsPerHour="118.8312791483408" departLane="free"/>
  <flow id="JF448486" begin="5180" fromJunction="J5" toJunction="J6" end="5240" vehsPerHour="222.10054326495674" departLane="free"/>
  <flow id="JF448487" begin="5180" fromJunction="J6" toJunction="J0" end="5240" vehsPerHour="89.54100908181928" departLane="free"/>
  <flow id="JF448488" begin="5180" fromJunction="J6" toJunction="J3" end="5240" vehsPerHour="207.02700992539727" departLane="free"/>
  <flow id="JF448489" begin="5180" fromJunction="J7" toJunction="J0" end="5240" vehsPerHour="1.9307894947806195" departLane="free"/>
  <flow id="JF448490" begin="5180" fromJunction="J7" toJunction="J4" end="5240" vehsPerHour="235.17523600774416" departLane="free"/>
  <flow id="JF448491" begin="5180" fromJunction="J7" toJunction="J5" end="5240" vehsPerHour="217.2283190067212" departLane="free"/>
  <flow id="JF448492" begin="5180" fromJunction="J7" toJunction="J6" end="5240" vehsPerHour="57.09281668752477" departLane="free"/>
  <flow id="JF448493" begin="5240" fromJunction="J0" toJunction="J3" end="5300" vehsPerHour="443.9221507207634" departLane="free"/>
  <flow id="JF448494" begin="5240" fromJunction="J0" toJunction="J4" end="5300" vehsPerHour="355.8038718995617" departLane="free"/>
  <flow id="JF448495" begin="5240" fromJunction="J0" toJunction="J6" end="5300" vehsPerHour="30.659241475096056" departLane="free"/>
  <flow id="JF448496" begin="5240" fromJunction="J3" toJunction="J5" end="5300" vehsPerHour="289.86369480847844" departLane="free"/>
  <flow id="JF448497" begin="5240" fromJunction="J3" toJunction="J6" end="5300" vehsPerHour="532.5219691562937" departLane="free"/>
  <flow id="JF448498" begin="5240" fromJunction="J3" toJunction="J7" end="5300" vehsPerHour="88.88347132130559" departLane="free"/>
  <flow id="JF448499" begin="5240" fromJunction="J4" toJunction="J0" end="5300" vehsPerHour="206.1409903946553" departLane="free"/>
  <flow id="JF448500" begin="5240" fromJunction="J4" toJunction="J3" end="5300" vehsPerHour="21.432283148272802" departLane="free"/>
  <flow id="JF448501" begin="5240" fromJunction="J4" toJunction="J5" end="5300" vehsPerHour="95.60569145572177" departLane="free"/>
  <flow id="JF448502" begin="5240" fromJunction="J4" toJunction="J6" end="5300" vehsPerHour="84.07208440466019" departLane="free"/>
  <flow id="JF448503" begin="5240" fromJunction="J4" toJunction="J7" end="5300" vehsPerHour="210.8805418823935" departLane="free"/>
  <flow id="JF448504" begin="5240" fromJunction="J5" toJunction="J0" end="5300" vehsPerHour="245.12960104800982" departLane="free"/>
  <flow id="JF448505" begin="5240" fromJunction="J5" toJunction="J3" end="5300" vehsPerHour="143.73783174590756" departLane="free"/>
  <flow id="JF448506" begin="5240" fromJunction="J5" toJunction="J4" end="5300" vehsPerHour="13.778703596397417" departLane="free"/>
  <flow id="JF448507" begin="5240" fromJunction="J5" toJunction="J7" end="5300" vehsPerHour="96.17159186022718" departLane="free"/>
  <flow id="JF448508" begin="5240" fromJunction="J6" toJunction="J0" end="5300" vehsPerHour="197.81062795506014" departLane="free"/>
  <flow id="JF448509" begin="5240" fromJunction="J6" toJunction="J4" end="5300" vehsPerHour="183.63147024678358" departLane="free"/>
  <flow id="JF448510" begin="5240" fromJunction="J6" toJunction="J5" end="5300" vehsPerHour="240.76763112879115" departLane="free"/>
  <flow id="JF448511" begin="5240" fromJunction="J6" toJunction="J7" end="5300" vehsPerHour="36.811179657751396" departLane="free"/>
  <flow id="JF448512" begin="5240" fromJunction="J7" toJunction="J0" end="5300" vehsPerHour="211.32951002599012" departLane="free"/>
  <flow id="JF448513" begin="5240" fromJunction="J7" toJunction="J3" end="5300" vehsPerHour="191.9896835884596" departLane="free"/>
  <flow id="JF448514" begin="5240" fromJunction="J7" toJunction="J4" end="5300" vehsPerHour="107.88294341064463" departLane="free"/>
  <flow id="JF448515" begin="5240" fromJunction="J7" toJunction="J5" end="5300" vehsPerHour="36.781073617086264" departLane="free"/>
  <flow id="JF448516" begin="5240" fromJunction="J7" toJunction="J6" end="5300" vehsPerHour="59.17510599427633" departLane="free"/>
  <flow id="JF448517" begin="5300" fromJunction="J0" toJunction="J3" end="5360" vehsPerHour="120.68276320258076" departLane="free"/>
  <flow id="JF448518" begin="5300" fromJunction="J0" toJunction="J5" end="5360" vehsPerHour="11.279245418544448" departLane="free"/>
  <flow id="JF448519" begin="5300" fromJunction="J0" toJunction="J6" end="5360" vehsPerHour="537.3277575289325" departLane="free"/>
  <flow id="JF448520" begin="5300" fromJunction="J0" toJunction="J7" end="5360" vehsPerHour="541.6094622012837" departLane="free"/>
  <flow id="JF448521" begin="5300" fromJunction="J3" toJunction="J0" end="5360" vehsPerHour="426.9212640562908" departLane="free"/>
  <flow id="JF448522" begin="5300" fromJunction="J3" toJunction="J4" end="5360" vehsPerHour="351.520507811229" departLane="free"/>
  <flow id="JF448523" begin="5300" fromJunction="J4" toJunction="J0" end="5360" vehsPerHour="210.36225785325502" departLane="free"/>
  <flow id="JF448524" begin="5300" fromJunction="J4" toJunction="J3" end="5360" vehsPerHour="214.813940064299" departLane="free"/>
  <flow id="JF448525" begin="5300" fromJunction="J4" toJunction="J5" end="5360" vehsPerHour="27.183237576737188" departLane="free"/>
  <flow id="JF448526" begin="5300" fromJunction="J4" toJunction="J7" end="5360" vehsPerHour="96.13196577472402" departLane="free"/>
  <flow id="JF448527" begin="5300" fromJunction="J5" toJunction="J0" end="5360" vehsPerHour="202.07978699165452" departLane="free"/>
  <flow id="JF448528" begin="5300" fromJunction="J5" toJunction="J3" end="5360" vehsPerHour="28.279911377089885" departLane="free"/>
  <flow id="JF448529" begin="5300" fromJunction="J5" toJunction="J4" end="5360" vehsPerHour="70.7604814513875" departLane="free"/>
  <flow id="JF448530" begin="5300" fromJunction="J5" toJunction="J6" end="5360" vehsPerHour="126.78884296648364" departLane="free"/>
  <flow id="JF448531" begin="5300" fromJunction="J5" toJunction="J7" end="5360" vehsPerHour="79.603639781123" departLane="free"/>
  <flow id="JF448532" begin="5300" fromJunction="J6" toJunction="J4" end="5360" vehsPerHour="167.9975528858057" departLane="free"/>
  <flow id="JF448533" begin="5300" fromJunction="J6" toJunction="J5" end="5360" vehsPerHour="55.23205083143722" departLane="free"/>
  <flow id="JF448534" begin="5300" fromJunction="J6" toJunction="J7" end="5360" vehsPerHour="40.15315975352135" departLane="free"/>
  <flow id="JF448535" begin="5300" fromJunction="J7" toJunction="J0" end="5360" vehsPerHour="252.52575824263283" departLane="free"/>
  <flow id="JF448536" begin="5300" fromJunction="J7" toJunction="J3" end="5360" vehsPerHour="41.27347797685151" departLane="free"/>
  <flow id="JF448537" begin="5300" fromJunction="J7" toJunction="J4" end="5360" vehsPerHour="145.9857974543515" departLane="free"/>
  <flow id="JF448538" begin="5300" fromJunction="J7" toJunction="J5" end="5360" vehsPerHour="44.657933109666345" departLane="free"/>
  <flow id="JF448539" begin="5300" fromJunction="J7" toJunction="J6" end="5360" vehsPerHour="29.1115322679193" departLane="free"/>
  <flow id="JF448540" begin="5360" fromJunction="J0" toJunction="J3" end="5420" vehsPerHour="112.82493251048159" departLane="free"/>
  <flow id="JF448541" begin="5360" fromJunction="J0" toJunction="J4" end="5420" vehsPerHour="339.1607228226031" departLane="free"/>
  <flow id="JF448542" begin="5360" fromJunction="J0" toJunction="J5" end="5420" vehsPerHour="394.9740591781599" departLane="free"/>
  <flow id="JF448543" begin="5360" fromJunction="J3" toJunction="J5" end="5420" vehsPerHour="466.6953092078643" departLane="free"/>
  <flow id="JF448544" begin="5360" fromJunction="J3" toJunction="J6" end="5420" vehsPerHour="198.70263930449713" departLane="free"/>
  <flow id="JF448545" begin="5360" fromJunction="J3" toJunction="J7" end="5420" vehsPerHour="23.838509637393575" departLane="free"/>
  <flow id="JF448546" begin="5360" fromJunction="J4" toJunction="J0" end="5420" vehsPerHour="156.1682842730359" departLane="free"/>
  <flow id="JF448547" begin="5360" fromJunction="J4" toJunction="J3" end="5420" vehsPerHour="164.31864983637107" departLane="free"/>
  <flow id="JF448548" begin="5360" fromJunction="J4" toJunction="J5" end="5420" vehsPerHour="44.8075705017072" departLane="free"/>
  <flow id="JF448549" begin="5360" fromJunction="J4" toJunction="J6" end="5420" vehsPerHour="139.4067396083494" departLane="free"/>
  <flow id="JF448550" begin="5360" fromJunction="J4" toJunction="J7" end="5420" vehsPerHour="110.32402090601605" departLane="free"/>
  <flow id="JF448551" begin="5360" fromJunction="J5" toJunction="J0" end="5420" vehsPerHour="264.37772887496726" departLane="free"/>
  <flow id="JF448552" begin="5360" fromJunction="J5" toJunction="J3" end="5420" vehsPerHour="53.67292564429297" departLane="free"/>
  <flow id="JF448553" begin="5360" fromJunction="J5" toJunction="J4" end="5420" vehsPerHour="158.0266617830113" departLane="free"/>
  <flow id="JF448554" begin="5360" fromJunction="J6" toJunction="J0" end="5420" vehsPerHour="2.8332134854292357" departLane="free"/>
  <flow id="JF448555" begin="5360" fromJunction="J6" toJunction="J3" end="5420" vehsPerHour="71.8734739021983" departLane="free"/>
  <flow id="JF448556" begin="5360" fromJunction="J6" toJunction="J4" end="5420" vehsPerHour="266.71487205595025" departLane="free"/>
  <flow id="JF448557" begin="5360" fromJunction="J7" toJunction="J0" end="5420" vehsPerHour="169.1794755489924" departLane="free"/>
  <flow id="JF448558" begin="5360" fromJunction="J7" toJunction="J3" end="5420" vehsPerHour="238.55681240956696" departLane="free"/>
  <flow id="JF448559" begin="5420" fromJunction="J0" toJunction="J3" end="5480" vehsPerHour="460.940515308081" departLane="free"/>
  <flow id="JF448560" begin="5420" fromJunction="J0" toJunction="J4" end="5480" vehsPerHour="235.14447842649238" departLane="free"/>
  <flow id="JF448561" begin="5420" fromJunction="J0" toJunction="J6" end="5480" vehsPerHour="480.3230039800318" departLane="free"/>
  <flow id="JF448562" begin="5420" fromJunction="J0" toJunction="J7" end="5480" vehsPerHour="466.4197352220343" departLane="free"/>
  <flow id="JF448563" begin="5420" fromJunction="J3" toJunction="J0" end="5480" vehsPerHour="319.2268369129567" departLane="free"/>
  <flow id="JF448564" begin="5420" fromJunction="J3" toJunction="J4" end="5480" vehsPerHour="380.9365452671523" departLane="free"/>
  <flow id="JF448565" begin="5420" fromJunction="J3" toJunction="J6" end="5480" vehsPerHour="274.9197585376328" departLane="free"/>
  <flow id="JF448566" begin="5420" fromJunction="J3" toJunction="J7" end="5480" vehsPerHour="391.00714605538155" departLane="free"/>
  <flow id="JF448567" begin="5420" fromJunction="J4" toJunction="J0" end="5480" vehsPerHour="37.87391879627513" departLane="free"/>
  <flow id="JF448568" begin="5420" fromJunction="J4" toJunction="J3" end="5480" vehsPerHour="88.24441269803648" departLane="free"/>
  <flow id="JF448569" begin="5420" fromJunction="J4" toJunction="J7" end="5480" vehsPerHour="97.308562413614" departLane="free"/>
  <flow id="JF448570" begin="5420" fromJunction="J5" toJunction="J0" end="5480" vehsPerHour="274.60428042247435" departLane="free"/>
  <flow id="JF448571" begin="5420" fromJunction="J5" toJunction="J3" end="5480" vehsPerHour="54.167193785570504" departLane="free"/>
  <flow id="JF448572" begin="5420" fromJunction="J5" toJunction="J4" end="5480" vehsPerHour="89.38110654660674" departLane="free"/>
  <flow id="JF448573" begin="5420" fromJunction="J5" toJunction="J7" end="5480" vehsPerHour="185.33361649221098" departLane="free"/>
  <flow id="JF448574" begin="5420" fromJunction="J6" toJunction="J3" end="5480" vehsPerHour="210.61483755538663" departLane="free"/>
  <flow id="JF448575" begin="5420" fromJunction="J6" toJunction="J4" end="5480" vehsPerHour="106.96790383041132" departLane="free"/>
  <flow id="JF448576" begin="5420" fromJunction="J6" toJunction="J5" end="5480" vehsPerHour="62.40025241115745" departLane="free"/>
  <flow id="JF448577" begin="5420" fromJunction="J7" toJunction="J3" end="5480" vehsPerHour="115.82012101615108" departLane="free"/>
  <flow id="JF448578" begin="5420" fromJunction="J7" toJunction="J5" end="5480" vehsPerHour="22.602060132538167" departLane="free"/>
  <flow id="JF448579" begin="5420" fromJunction="J7" toJunction="J6" end="5480" vehsPerHour="40.23278089082908" departLane="free"/>
  <flow id="JF448580" begin="5480" fromJunction="J0" toJunction="J3" end="5540" vehsPerHour="427.87399609038545" departLane="free"/>
  <flow id="JF448581" begin="5480" fromJunction="J0" toJunction="J5" end="5540" vehsPerHour="338.30340191296915" departLane="free"/>
  <flow id="JF448582" begin="5480" fromJunction="J0" toJunction="J6" end="5540" vehsPerHour="476.2010113513752" departLane="free"/>
  <flow id="JF448583" begin="5480" fromJunction="J0" toJunction="J7" end="5540" vehsPerHour="130.9598375410741" departLane="free"/>
  <flow id="JF448584" begin="5480" fromJunction="J3" toJunction="J5" end="5540" vehsPerHour="200.08690890436165" departLane="free"/>
  <flow id="JF448585" begin="5480" fromJunction="J3" toJunction="J6" end="5540" vehsPerHour="254.52241551899763" departLane="free"/>
  <flow id="JF448586" begin="5480" fromJunction="J3" toJunction="J7" end="5540" vehsPerHour="355.45518080079916" departLane="free"/>
  <flow id="JF448587" begin="5480" fromJunction="J4" toJunction="J0" end="5540" vehsPerHour="63.55910548412734" departLane="free"/>
  <flow id="JF448588" begin="5480" fromJunction="J4" toJunction="J3" end="5540" vehsPerHour="82.00157812823258" departLane="free"/>
  <flow id="JF448589" begin="5480" fromJunction="J4" toJunction="J5" end="5540" vehsPerHour="112.61880489669366" departLane="free"/>
  <flow id="JF448590" begin="5480" fromJunction="J4" toJunction="J6" end="5540" vehsPerHour="114.18883253550332" departLane="free"/>
  <flow id="JF448591" begin="5480" fromJunction="J5" toJunction="J0" end="5540" vehsPerHour="127.95501056283496" departLane="free"/>
  <flow id="JF448592" begin="5480" fromJunction="J5" toJunction="J3" end="5540" vehsPerHour="183.56711429659748" departLane="free"/>
  <flow id="JF448593" begin="5480" fromJunction="J5" toJunction="J4" end="5540" vehsPerHour="223.35146611373983" departLane="free"/>
  <flow id="JF448594" begin="5480" fromJunction="J5" toJunction="J6" end="5540" vehsPerHour="5.185264451308842" departLane="free"/>
  <flow id="JF448595" begin="5480" fromJunction="J6" toJunction="J0" end="5540" vehsPerHour="24.80457661264452" departLane="free"/>
  <flow id="JF448596" begin="5480" fromJunction="J6" toJunction="J3" end="5540" vehsPerHour="21.520879100350456" departLane="free"/>
  <flow id="JF448597" begin="5480" fromJunction="J6" toJunction="J4" end="5540" vehsPerHour="14.920352300341259" departLane="free"/>
  <flow id="JF448598" begin="5480" fromJunction="J6" toJunction="J5" end="5540" vehsPerHour="86.85757332714645" departLane="free"/>
  <flow id="JF448599" begin="5480" fromJunction="J6" toJunction="J7" end="5540" vehsPerHour="108.85328858846128" departLane="free"/>
  <flow id="JF448600" begin="5480" fromJunction="J7" toJunction="J3" end="5540" vehsPerHour="106.8879714858975" departLane="free"/>
  <flow id="JF448601" begin="5480" fromJunction="J7" toJunction="J5" end="5540" vehsPerHour="137.93937003642156" departLane="free"/>
  <flow id="JF448602" begin="5480" fromJunction="J7" toJunction="J6" end="5540" vehsPerHour="245.68090551418382" departLane="free"/>
  <flow id="JF448603" begin="5540" fromJunction="J0" toJunction="J7" end="5600" vehsPerHour="288.66147003254264" departLane="free"/>
  <flow id="JF448604" begin="5540" fromJunction="J3" toJunction="J4" end="5600" vehsPerHour="360.48939044422536" departLane="free"/>
  <flow id="JF448605" begin="5540" fromJunction="J3" toJunction="J6" end="5600" vehsPerHour="395.05128994632224" departLane="free"/>
  <flow id="JF448606" begin="5540" fromJunction="J3" toJunction="J7" end="5600" vehsPerHour="28.110130748866233" departLane="free"/>