<?xml version="1.0" encoding="UTF-8"?>
<routes xmlns:xsi="http://www.w3.org/2001/XMLSchema-instance" xsi:noNamespaceSchemaLocation="http://sumo.dlr.de/xsd/routes_file.xsd">
  <flow id="JF446592" begin="0" fromJunction="J3" toJunction="J0" end="5000" vehsPerHour="615.8560923766983" departLane="free"/>
  <flow id="JF446593" begin="0" fromJunction="J0" toJunction="J3" end="5000" vehsPerHour="314.8519396026313" departLane="free"/>
  <flow id="JF446594" begin="0" fromJunction="J3" toJunction="J6" end="5000" vehsPerHour="522.8037307729821" departLane="free"/>
  <flow id="JF446595" begin="0" fromJunction="J3" toJunction="J7" end="5000" vehsPerHour="511.4978228191216" departLane="free"/>
  <flow id="JF446596" begin="0" fromJunction="J3" toJunction="J4" end="5000" vehsPerHour="475.1647287243209" departLane="free"/>
  <flow id="JF446597" begin="0" fromJunction="J3" toJunction="J5" end="5000" vehsPerHour="169.21803640260552" departLane="free"/>
  <flow id="JF446598" begin="0" fromJunction="J0" toJunction="J6" end="5000" vehsPerHour="47.64211690626491" departLane="free"/>
  <flow id="JF446599" begin="0" fromJunction="J0" toJunction="J7" end="5000" vehsPerHour="227.76707917502017" departLane="free"/>
  <flow id="JF446600" begin="0" fromJunction="J0" toJunction="J4" end="5000" vehsPerHour="5.766065802897045" departLane="free"/>
  <flow id="JF446601" begin="0" fromJunction="J0" toJunction="J5" end="5000" vehsPerHour="284.2290798581922" departLane="free"/>
  <flow id="JF446602" begin="0" fromJunction="J6" toJunction="J7" end="5000" vehsPerHour="23.375900897336138" departLane="free"/>
  <flow id="JF446603" begin="0" fromJunction="J6" toJunction="J4" end="5000" vehsPerHour="60.432012879490635" departLane="free"/>
  <flow id="JF446604" begin="0" fromJunction="J6" toJunction="J5" end="5000" vehsPerHour="143.06089526789566" departLane="free"/>
  <flow id="JF446605" begin="0" fromJunction="J7" toJunction="J6" end="5000" vehsPerHour="41.073919738273354" departLane="free"/>
  <flow id="JF446606" begin="0" fromJunction="J7" toJunction="J4" end="5000" vehsPerHour="70.13075181509905" departLane="free"/>
  <flow id="JF446607" begin="0" fromJunction="J7" toJunction="J5" end="5000" vehsPerHour="107.55610058726744" departLane="free"/>
  <flow id="JF446608" begin="0" fromJunction="J4" toJunction="J6" end="5000" vehsPerHour="198.0812150286699" departLane="free"/>
  <flow id="JF446609" begin="0" fromJunction="J4" toJunction="J7" end="5000" vehsPerHour="124.43734335769551" departLane="free"/>
  <flow id="JF446610" begin="0" fromJunction="J4" toJunction="J5" end="5000" vehsPerHour="148.6157576160073" departLane="free"/>
  <flow id="JF446611" begin="0" fromJunction="J5" toJunction="J6" end="5000" vehsPerHour="231.74540407299426" departLane="free"/>
  <flow id="JF446612" begin="0" fromJunction="J5" toJunction="J7" end="5000" vehsPerHour="63.18820003093602" departLane="free"/>
  <flow id="JF446613" begin="0" fromJunction="J5" toJunction="J4" end="5000" vehsPerHour="165.32709647071482" departLane="free"/>
  <flow id="JF446614" begin="0" fromJunction="J6" toJunction="J3" end="5000" vehsPerHour="241.20226211114505" departLane="free"/>
  <flow id="JF446615" begin="0" fromJunction="J6" toJunction="J0" end="5000" vehsPerHour="49.57553968893419" departLane="free"/>
  <flow id="JF446616" begin="0" fromJunction="J7" toJunction="J3" end="5000" vehsPerHour="174.48145732267315" departLane="free"/>
  <flow id="JF446617" begin="0" fromJunction="J7" toJunction="J0" end="5000" vehsPerHour="34.51313584057236" departLane="free"/>
  <flow id="JF446618" begin="0" fromJunction="J4" toJunction="J3" end="5000" vehsPerHour="190.7708158798286" departLane="free"/>
  <flow id="JF446619" begin="0" fromJunction="J4" toJunction="J0" end="5000" vehsPerHour="17.00285637783434" departLane="free"/>
  <flow id="JF446620" begin="0" fromJunction="J5" toJunction="J3" end="5000" vehsPerHour="103.1424853568824" departLane="free"/>
  <flow id="JF446621" begin="0" fromJunction="J5" toJunction="J0" end="5000" vehsPerHour="102.91788926950967" departLane="free"/>
  <flow id="JF446622" begin="5000" fromJunction="J0" toJunction="J6" end="5060" vehsPerHour="341.2107855173803" departLane="free"/>
  <flow id="JF446623" begin="5000" fromJunction="J0" toJunction="J7" end="5060" vehsPerHour="345.20243410365765" departLane="free"/>
  <flow id="JF446624" begin="5000" fromJunction="J3" toJunction="J0" end="5060" vehsPerHour="226.58224010277286" departLane="free"/>
  <flow id="JF446625" begin="5000" fromJunction="J3" toJunction="J4" end="5060" vehsPerHour="440.405526001319" departLane="free"/>
  <flow id="JF446626" begin="5000" fromJunction="J3" toJunction="J5" end="5060" vehsPerHour="156.02963007836814" departLane="free"/>
  <flow id="JF446627" begin="5000" fromJunction="J3" toJunction="J6" end="5060" vehsPerHour="274.37529762937555" departLane="free"/>
  <flow id="JF446628" begin="5000" fromJunction="J4" toJunction="J0" end="5060" vehsPerHour="220.98567355476362" departLane="free"/>
  <flow id="JF446629" begin="5000" fromJunction="J4" toJunction="J3" end="5060" vehsPerHour="1.217858758065706" departLane="free"/>
  <flow id="JF446630" begin="5000" fromJunction="J5" toJunction="J0" end="5060" vehsPerHour="88.1441102288182" departLane="free"/>
  <flow id="JF446631" begin="5000" fromJunction="J5" toJunction="J3" end="5060" vehsPerHour="52.310126485537765" departLane="free"/>
  <flow id="JF446632" begin="5000" fromJunction="J5" toJunction="J4" end="5060" vehsPerHour="196.4921971058981" departLane="free"/>
  <flow id="JF446633" begin="5000" fromJunction="J5" toJunction="J6" end="5060" vehsPerHour="195.20106621068174" departLane="free"/>
  <flow id="JF446634" begin="5000" fromJunction="J5" toJunction="J7" end="5060" vehsPerHour="40.609233554464595" departLane="free"/>
  <flow id="JF446635" begin="5000" fromJunction="J6" toJunction="J0" end="5060" vehsPerHour="67.78766825118073" departLane="free"/>
  <flow id="JF446636" begin="5000" fromJunction="J6" toJunction="J3" end="5060" vehsPerHour="203.31298324130745" departLane="free"/>
  <flow id="JF446637" begin="5000" fromJunction="J6" toJunction="J4" end="5060" vehsPerHour="234.96752456292674" departLane="free"/>
  <flow id="JF446638" begin="5000" fromJunction="J6" toJunction="J7" end="5060" vehsPerHour="8.297133812450555" departLane="free"/>
  <flow id="JF446639" begin="5000" fromJunction="J7" toJunction="J3" end="5060" vehsPerHour="130.42951300540616" departLane="free"/>
  <flow id="JF446640" begin="5000" fromJunction="J7" toJunction="J4" end="5060" vehsPerHour="219.26978576436926" departLane="free"/>
  <flow id="JF446641" begin="5000" fromJunction="J7" toJunction="J5" end="5060" vehsPerHour="79.5650129617796" departLane="free"/>
  <flow id="JF446642" begin="5060" fromJunction="J0" toJunction="J3" end="5120" vehsPerHour="410.59218976883045" departLane="free"/>
  <flow id="JF446643" begin="5060" fromJunction="J0" toJunction="J5" end="5120" vehsPerHour="87.89969942973372" departLane="free"/>
  <flow id="JF446644" begin="5060" fromJunction="J0" toJunction="J6" end="5120" vehsPerHour="299.6112337804787" departLane="free"/>
  <flow id="JF446645" begin="5060" fromJunction="J0" toJunction="J7" end="5120" vehsPerHour="9.997780047213913" departLane="free"/>
  <flow id="JF446646" begin="5060" fromJunction="J3" toJunction="J0" end="5120" vehsPerHour="142.76324705434703" departLane="free"/>
  <flow id="JF446647" begin="5060" fromJunction="J3" toJunction="J4" end="5120" vehsPerHour="20.69421988647471" departLane="free"/>
  <flow id="JF446648" begin="5060" fromJunction="J3" toJunction="J6" end="5120" vehsPerHour="517.0692116464941" departLane="free"/>
  <flow id="JF446649" begin="5060" fromJunction="J3" toJunction="J7" end="5120" vehsPerHour="221.7861513808539" departLane="free"/>
  <flow id="JF446650" begin="5060" fromJunction="J4" toJunction="J3" end="5120" vehsPerHour="129.98935966482554" departLane="free"/>
  <flow id="JF446651" begin="5060" fromJunction="J4" toJunction="J5" end="5120" vehsPerHour="88.72765188491509" departLane="free"/>
  <flow id="JF446652" begin="5060" fromJunction="J4" toJunction="J6" end="5120" vehsPerHour="194.82240923890274" departLane="free"/>
  <flow id="JF446653" begin="5060" fromJunction="J4" toJunction="J7" end="5120" vehsPerHour="169.07100619761962" departLane="free"/>
  <flow id="JF446654" begin="5060" fromJunction="J5" toJunction="J0" end="5120" vehsPerHour="84.3797803291696" departLane="free"/>
  <flow id="JF446655" begin="5060" fromJunction="J5" toJunction="J3" end="5120" vehsPerHour="154.57252289814372" departLane="free"/>
  <flow id="JF446656" begin="5060" fromJunction="J5" toJunction="J7" end="5120" vehsPerHour="73.79453803903345" departLane="free"/>
  <flow id="JF446657" begin="5060" fromJunction="J6" toJunction="J0" end="5120" vehsPerHour="68.1021074196988" departLane="free"/>
  <flow id="JF446658" begin="5060" fromJunction="J6" toJunction="J3" end="5120" vehsPerHour="71.12994108526064" departLane="free"/>
  <flow id="JF446659" begin="5060" fromJunction="J6" toJunction="J4" end="5120" vehsPerHour="222.6483060093225" departLane="free"/>
  <flow id="JF446660" begin="5060" fromJunction="J7" toJunction="J0" end="5120" vehsPerHour="91.77712202921107" departLane="free"/>
  <flow id="JF446661" begin="5060" fromJunction="J7" toJunction="J3" end="5120" vehsPerHour="76.15728879571195" departLane="free"/>
  <flow id="JF446662" begin="5060" fromJunction="J7" toJunction="J4" end="5120" vehsPerHour="201.43157482774822" departLane="free"/>
  <flow id="JF446663" begin="5060" fromJunction="J7" toJunction="J6" end="5120" vehsPerHour="171.28437025547203" departLane="free"/>
  <flow id="JF446664" begin="5120" fromJunction="J0" toJunction="J3" end="5180" vehsPerHour="333.8065611374983" departLane="free"/>
  <flow id="JF446665" begin="5120" fromJunction="J0" toJunction="J6" end="5180" vehsPerHour="99.71625521048358" departLane="free"/>
  <flow id="JF446666" begin="5120" fromJunction="J0" toJunction="J7" end="5180" vehsPerHour="195.11194866522857" departLane="free"/>
  <flow id="JF446667" begin="5120" fromJunction="J3" toJunction="J0" end="5180" vehsPerHour="324.9246375914232" departLane="free"/>
  <flow id="JF446668" begin="5120" fromJunction="J3" toJunction="J5" end="5180" vehsPerHour="83.15892050041721" departLane="free"/>
  <flow id="JF446669" begin="5120" fromJunction="J4" toJunction="J0" end="5180" vehsPerHour="113.0856430728571" departLane="free"/>
  <flow id="JF446670" begin="5120" fromJunction="J4" toJunction="J3" end="5180" vehsPerHour="15.443110109687444" departLane="free"/>
  <flow id="JF446671" begin="5120" fromJunction="J4" toJunction="J5" end="5180" vehsPerHour="176.13641017960828" departLane="free"/>
  <flow id="JF446672" begin="5120" fromJunction="J4" toJunction="J6" end="5180" vehsPerHour="230.56453983076477" departLane="free"/>
  <flow id="JF446673" begin="5120" fromJunction="J4" toJunction="J7" end="5180" vehsPerHour="40.40293678964448" departLane="free"/>
  <flow id="JF446674" begin="5120" fromJunction="J5" toJunction="J0" end="5180" vehsPerHour="244.3575660011979" departLane="free"/>
  <flow id="JF446675" begin="5120" fromJunction="J5" toJunction="J3" end="5180" vehsPerHour="58.137941647912314" departLane="free"/>
  <flow id="JF446676" begin="5120" fromJunction="J5" toJunction="J4" end="5180" vehsPerHour="154.10054797082122" departLane="free"/>
  <flow id="JF446677" begin="5120" fromJunction="J5" toJunction="J6" end="5180" vehsPerHour="262.995355031246" departLane="free"/>
  <flow id="JF446678" begin="5120" fromJunction="J6" toJunction="J3" end="5180" vehsPerHour="202.68628579803132" departLane="free"/>
  <flow id="JF446679" begin="5120" fromJunction="J6" toJunction="J5" end="5180" vehsPerHour="88.8982494996303" departLane="free"/>
  <flow id="JF446680" begin="5120" fromJunction="J6" toJunction="J7" end="5180" vehsPerHour="273.54337443695687" departLane="free"/>
  <flow id="JF446681" begin="5120" fromJunction="J7" toJunction="J0" end="5180" vehsPerHour="177.33059402309874" departLane="free"/>
  <flow id="JF446682" begin="5180" fromJunction="J0" toJunction="J3" end="5240" vehsPerHour="117.80253054890332" departLane="free"/>
  <flow id="JF446683" begin="5180" fromJunction="J0" toJunction="J4" end="5240" vehsPerHour="365.4299966965002" departLane="free"/>
  <flow id="JF446684" begin="5180" fromJunction="J0" toJunction="J5" end="5240" vehsPerHour="543.5226220942963" departLane="free"/>
  <flow id="JF446685" begin="5180" fromJunction="J0" toJunction="J6" end="5240" vehsPerHour="547.2395852473559" departLane="free"/>
  <flow id="JF446686" begin="5180" fromJunction="J3" toJunction="J0" end="5240" vehsPerHour="79.24703843396944" departLane="free"/>
  <flow id="JF446687" begin="5180" fromJunction="J3" toJunction="J5" end="5240" vehsPerHour="207.87818855909802" departLane="free"/>
  <flow id="JF446688" begin="5180" fromJunction="J3" toJunction="J6" end="5240" vehsPerHour="303.94674165899863" departLane="free"/>
  <flow id="JF446689" begin="5180" fromJunction="J3" toJunction="J7" end="5240" vehsPerHour="193.0000041128466" departLane="free"/>
  <flow id="JF446690" begin="5180" fromJunction="J4" toJunction="J0" end="5240" vehsPerHour="237.49422994744498" departLane="free"/>
  <flow id="JF446691" begin="5180" fromJunction="J4" toJunction="J3" end="5240" vehsPerHour="199.1476703179962" departLane="free"/>
  <flow id="JF446692" begin="5180" fromJunction="J4" toJunction="J5" end="5240" vehsPerHour="75.9797313954893" departLane="free"/>
  <flow id="JF446693" begin="5180" fromJunction="J4" toJunction="J7" end="5240" vehsPerHour="114.02808573052788" departLane="free"/>
  <flow id="JF446694" begin="5180" fromJunction="J5" toJunction="J0" end="5240" vehsPerHour="208.3005156708427" departLane="free"/>
  <flow id="JF446695" begin="5180" fromJunction="J5" toJunction="J3" end="5240" vehsPerHour="24.456419276903578" departLane="free"/>
  <flow id="JF446696" begin="5180" fromJunction="J5" toJunction="J4" end="5240" vehsPerHour="114.81195667259712" departLane="free"/>
  <flow id="JF446697" begin="5180" fromJunction="J5" toJunction="J6" end="5240" vehsPerHour="57.73736230480561" departLane="free"/>
  <flow id="JF446698" begin="5180" fromJunction="J5" toJunction="J7" end="5240" vehsPerHour="10.49852019243026" departLane="free"/>
  <flow id="JF446699" begin="5180" fromJunction="J6" toJunction="J0" end="5240" vehsPerHour="163.28859663943342" departLane="free"/>
  <flow id="JF446700" begin="5180" fromJunction="J6" toJunction="J3" end="5240" vehsPerHour="152.3428130655553" departLane="free"/>
  <flow id="JF446701" begin="5180" fromJunction="J6" toJunction="J5" end="5240" vehsPerHour="73.17205362335524" departLane="free"/>
  <flow id="JF446702" begin="5180" fromJunction="J6" toJunction="J7" end="5240" vehsPerHour="52.96986628579384" departLane="free"/>
  <flow id="JF446703" begin="5180" fromJunction="J7" toJunction="J3" end="5240" vehsPerHour="29.42127019713255" departLane="free"/>
  <flow id="JF446704" begin="5180" fromJunction="J7" toJunction="J4" end="5240" vehsPerHour="252.85755641546027" departLane="free"/>
  <flow id="JF446705" begin="5240" fromJunction="J0" toJunction="J3" end="5300" vehsPerHour="303.52260904163154" departLane="free"/>
  <flow id="JF446706" begin="5240" fromJunction="J0" toJunction="J4" end="5300" vehsPerHour="222.91591524636104" departLane="free"/>
  <flow id="JF446707" begin="5240" fromJunction="J0" toJunction="J5" end="5300" vehsPerHour="41.679894709810924" departLane="free"/>
  <flow id="JF446708" begin="5240" fromJunction="J0" toJunction="J6" end="5300" vehsPerHour="54.690199987979376" departLane="free"/>
  <flow id="JF446709" begin="5240" fromJunction="J3" toJunction="J0" end="5300" vehsPerHour="400.97499762102086" departLane="free"/>
  <flow id="JF446710" begin="5240" fromJunction="J3" toJunction="J6" end="5300" vehsPerHour="319.875738644623" departLane="free"/>
  <flow id="JF446711" begin="5240" fromJunction="J3" toJunction="J7" end="5300" vehsPerHour="251.07154552102924" departLane="free"/>
  <flow id="JF446712" begin="5240" fromJunction="J4" toJunction="J5" end="5300" vehsPerHour="94.95000004414896" departLane="free"/>
  <flow id="JF446713" begin="5240" fromJunction="J4" toJunction="J6" end="5300" vehsPerHour="143.8283622039481" departLane="free"/>
  <flow id="JF446714" begin="5240" fromJunction="J4" toJunction="J7" end="5300" vehsPerHour="215.3372256455864" departLane="free"/>
  <flow id="JF446715" begin="5240" fromJunction="J5" toJunction="J0" end="5300" vehsPerHour="272.16877028553245" departLane="free"/>
  <flow id="JF446716" begin="5240" fromJunction="J6" toJunction="J0" end="5300" vehsPerHour="52.97689540570879" departLane="free"/>
  <flow id="JF446717" begin="5240" fromJunction="J6" toJunction="J3" end="5300" vehsPerHour="20.760471708978486" departLane="free"/>
  <flow id="JF446718" begin="5240" fromJunction="J6" toJunction="J4" end="5300" vehsPerHour="242.02186140807186" departLane="free"/>
  <flow id="JF446719" begin="5240" fromJunction="J7" toJunction="J3" end="5300" vehsPerHour="64.96827550508279" departLane="free"/>
  <flow id="JF446720" begin="5240" fromJunction="J7" toJunction="J4" end="5300" vehsPerHour="151.2143868912002" departLane="free"/>
  <flow id="JF446721" begin="5240" fromJunction="J7" toJunction="J5" end="5300" vehsPerHour="124.49906738524177" departLane="free"/>
  <flow id="JF446722" begin="5240" fromJunction="J7" toJunction="J6" end="5300" vehsPerHour="113.05366170905296" departLane="free"/>
  <flow id="JF446723" begin="5300" fromJunction="J0" toJunction="J3" end="5360" vehsPerHour="81.59495016320518" departLane="free"/>
  <flow id="JF446724" begin="5300" fromJunction="J0" toJunction="J4" end="5360" vehsPerHour="382.9256092335562" departLane="free"/>
  <flow id="JF446725" begin="5300" fromJunction="J0" toJunction="J5" end="5360" vehsPerHour="137.68921047243438" departLane="free"/>
  <flow id="JF446726" begin="5300" fromJunction="J0" toJunction="J7" end="5360" vehsPerHour="0.6260593887769499" departLane="free"/>
  <flow id="JF446727" begin="5300" fromJunction="J3" toJunction="J0" end="5360" vehsPerHour="199.826624150913" departLane="free"/>
  <flow id="JF446728" begin="5300" fromJunction="J3" toJunction="J5" end="5360" vehsPerHour="506.1827780430697" departLane="free"/>
  <flow id="JF446729" begin="5300" fromJunction="J4" toJunction="J0" end="5360" vehsPerHour="36.76677090108331" departLane="free"/>
  <flow id="JF446730" begin="5300" fromJunction="J4" toJunction="J3" end="5360" vehsPerHour="14.744255018632328" departLane="free"/>
  <flow id="JF446731" begin="5300" fromJunction="J4" toJunction="J5" end="5360" vehsPerHour="193.04651091047214" departLane="free"/>
  <flow id="JF446732" begin="5300" fromJunction="J4" toJunction="J7" end="5360" vehsPerHour="178.4578818629937" departLane="free"/>
  <flow id="JF446733" begin="5300" fromJunction="J5" toJunction="J4" end="5360" vehsPerHour="194.1855423818229" departLane="free"/>
  <flow id="JF446734" begin="5300" fromJunction="J5" toJunction="J7" end="5360" vehsPerHour="259.9836611817134" departLane="free"/>
  <flow id="JF446735" begin="5300" fromJunction="J6" toJunction="J3" end="5360" vehsPerHour="19.588554399880007" departLane="free"/>
  <flow id="JF446736" begin="5300" fromJunction="J6" toJunction="J4" end="5360" vehsPerHour="9.411021523225042" departLane="free"/>
  <flow id="JF446737" begin="5300" fromJunction="J6" toJunction="J7" end="5360" vehsPerHour="0.34916757746836924" departLane="free"/>
  <flow id="JF446738" begin="5300" fromJunction="J7" toJunction="J0" end="5360" vehsPerHour="239.04358646152136" departLane="free"/>
  <flow id="JF446739" begin="5300" fromJunction="J7" toJunction="J3" end="5360" vehsPerHour="113.64853722716559" departLane="free"/>
  <flow id="JF446740" begin="5300" fromJunction="J7" toJunction="J4" end="5360" vehsPerHour="210.63323219826339" departLane="free"/>
  <flow id="JF446741" begin="5300" fromJunction="J7" toJunction="J5" end="5360" vehsPerHour="62.32239435055264" departLane="free"/>
  <flow id="JF446742" begin="5300" fromJunction="J7" toJunction="J6" end="5360" vehsPerHour="252.9685011019854" departLane="free"/>
  <flow id="JF446743" begin="5360" fromJunction="J0" toJunction="J4" end="5420" vehsPerHour="79.96742063300381" departLane="free"/>
  <flow id="JF446744" begin="5360" fromJunction="J0" toJunction="J5" end="5420" vehsPerHour="31.925984400710057" departLane="free"/>
  <flow id="JF446745" begin="5360" fromJunction="J0" toJunction="J6" end="5420" vehsPerHour="185.03097374487228" departLane="free"/>
  <flow id="JF446746" begin="5360" fromJunction="J0" toJunction="J7" end="5420" vehsPerHour="422.4013167375679" departLane="free"/>
  <flow id="JF446747" begin="5360" fromJunction="J3" toJunction="J0" end="5420" vehsPerHour="129.3691320912093" departLane="free"/>
  <flow id="JF446748" begin="5360" fromJunction="J3" toJunction="J4" end="5420" vehsPerHour="211.6292060678556" departLane="free"/>
  <flow id="JF446749" begin="5360" fromJunction="J3" toJunction="J7" end="5420" vehsPerHour="60.10657864661829" departLane="free"/>
  <flow id="JF446750" begin="5360" fromJunction="J4" toJunction="J0" end="5420" vehsPerHour="199.09275130997904" departLane="free"/>
  <flow id="JF446751" begin="5360" fromJunction="J4" toJunction="J5" end="5420" vehsPerHour="58.89563345778059" departLane="free"/>
  <flow id="JF446752" begin="5360" fromJunction="J4" toJunction="J6" end="5420" vehsPerHour="266.6018561796191" departLane="free"/>
  <flow id="JF446753" begin="5360" fromJunction="J4" toJunction="J7" end="5420" vehsPerHour="270.7586179795886" departLane="free"/>
  <flow id="JF446754" begin="5360" fromJunction="J5" toJunction="J3" end="5420" vehsPerHour="112.76901154005442" departLane="free"/>
  <flow id="JF446755" begin="5360" fromJunction="J5" toJunction="J4" end="5420" vehsPerHour="21.575569975552046" departLane="free"/>
  <flow id="JF446756" begin="5360" fromJunction="J5" toJunction="J6" end="5420" vehsPerHour="174.14305665336104" departLane="free"/>
  <flow id="JF446757" begin="5360" fromJunction="J5" toJunction="J7" end="5420" vehsPerHour="154.95469365977493" departLane="free"/>
  <flow id="JF446758" begin="5360" fromJunction="J6" toJunction="J3" end="5420" vehsPerHour="175.06304351369835" departLane="free"/>
  <flow id="JF446759" begin="5360" fromJunction="J6" toJunction="J4" end="5420" vehsPerHour="113.23866979787012" departLane="free"/>
  <flow id="JF446760" begin="5360" fromJunction="J6" toJunction="J5" end="5420" vehsPerHour="213.41995773258543" departLane="free"/>
  <flow id="JF446761" begin="5360" fromJunction="J7" toJunction="J3" end="5420" vehsPerHour="116.02124730310845" departLane="free"/>
  <flow id="JF446762" begin="5360" fromJunction="J7" toJunction="J4" end="5420" vehsPerHour="127.13183899815989" departLane="free"/>
  <flow id="JF446763" begin="5360" fromJunction="J7" toJunction="J5" end="5420" vehsPerHour="152.71344427144547" departLane="free"/>
  <flow id="JF446764" begin="5360" fromJunction="J7" toJunction="J6" end="5420" vehsPerHour="88.55508519003655" departLane="free"/>
  <flow id="JF446765" begin="5420" fromJunction="J0" toJunction="J3" end="5480" vehsPerHour="285.1370035746251" departLane="free"/>
  <flow id="JF446766" begin="5420" fromJunction="J0" toJunction="J4" end="5480" vehsPerHour="483.77408523960855" departLane="free"/>
  <flow id="JF446767" begin="5420" fromJunction="J0" toJunction="J5" end="5480" vehsPerHour="301.0002472748323" departLane="free"/>
  <flow id="JF446768" begin="5420" fromJunction="J0" toJunction="J7" end="5480" vehsPerHour="416.6952031751004" departLane="free"/>
  <flow id="JF446769" begin="5420" fromJunction="J3" toJunction="J0" end="5480" vehsPerHour="445.47922529636196" departLane="free"/>
  <flow id="JF446770" begin="5420" fromJunction="J3" toJunction="J6" end="5480" vehsPerHour="348.49636597967964" departLane="free"/>
  <flow id="JF446771" begin="5420" fromJunction="J3" toJunction="J7" end="5480" vehsPerHour="156.1706903607682" departLane="free"/>
  <flow id="JF446772" begin="5420" fromJunction="J4" toJunction="J0" end="5480" vehsPerHour="48.25285507586882" departLane="free"/>
  <flow id="JF446773" begin="5420" fromJunction="J4" toJunction="J3" end="5480" vehsPerHour="122.29359971494465" departLane="free"/>
  <flow id="JF446774" begin="5420" fromJunction="J4" toJunction="J5" end="5480" vehsPerHour="97.16174230596009" departLane="free"/>
  <flow id="JF446775" begin="5420" fromJunction="J4" toJunction="J6" end="5480" vehsPerHour="65.18051553084784" departLane="free"/>
  <flow id="JF446776" begin="5420" fromJunction="J4" toJunction="J7" end="5480" vehsPerHour="158.48821685385093" departLane="free"/>
  <flow id="JF446777" begin="5420" fromJunction="J5" toJunction="J0" end="5480" vehsPerHour="43.673897235053666" departLane="free"/>
  <flow id="JF446778" begin="5420" fromJunction="J5" toJunction="J4" end="5480" vehsPerHour="150.93578886514655" departLane="free"/>
  <flow id="JF446779" begin="5420" fromJunction="J5" toJunction="J6" end="5480" vehsPerHour="185.19968981833028" departLane="free"/>
  <flow id="JF446780" begin="5420" fromJunction="J5" toJunction="J7" end="5480" vehsPerHour="269.6536778438488" departLane="free"/>
  <flow id="JF446781" begin="5420" fromJunction="J6" toJunction="J0" end="5480" vehsPerHour="225.76213117906684" departLane="free"/>
  <flow id="JF446782" begin="5420" fromJunction="J6" toJunction="J4" end="5480" vehsPerHour="95.09043211788763" departLane="free"/>
  <flow id="JF446783" begin="5420" fromJunction="J6" toJunction="J7" end="5480" vehsPerHour="14.301083112262527" departLane="free"/>
  <flow id="JF446784" begin="5420" fromJunction="J7" toJunction="J0" end="5480" vehsPerHour="110.04897371315477" departLane="free"/>
  <flow id="JF446785" begin="5420" fromJunction="J7" toJunction="J3" end="5480" vehsPerHour="183.91840188212004" departLane="free"/>
  <flow id="JF446786" begin="5420" fromJunction="J7" toJunction="J4" end="5480" vehsPerHour="33.900808803595055" departLane="free"/>
  <flow id="JF446787" begin="5420" fromJunction="J7" toJunction="J5" end="5480" vehsPerHour="196.4378096476057" departLane="free"/>
  <flow id="JF446788" begin="5420" fromJunction="J7" toJunction="J6" end="5480" vehsPerHour="64.18300939691697" departLane="free"/>
  <flow id="JF446789" begin="5480" fromJunction="J0" toJunction="J4" end="5540" vehsPerHour="7.591753998319656" departLane="free"/>
  <flow id="JF446790" begin="5480" fromJunction="J0" toJunction="J5" end="5540" vehsPerHour="122.33525575904156" departLane="free"/>
  <flow id="JF446791" begin="5480" fromJunction="J0" toJunction="J6" end="5540" vehsPerHour="86.04655136851741" departLane="free"/>
  <flow id="JF446792" begin="5480" fromJunction="J3" toJunction="J0" end="5540" vehsPerHour="512.9810509452607" departLane="free"/>
  <flow id="JF446793" begin="5480" fromJunction="J3" toJunction="J4" end="5540" vehsPerHour="230.12327673599472" departLane="free"/>
  <flow id="JF446794" begin="5480" fromJunction="J3" toJunction="J5" end="5540" vehsPerHour="123.30857954633206" departLane="free"/>
  <flow id="JF446795" begin="5480" fromJunction="J3" toJunction="J7" end="5540" vehsPerHour="466.90579792131734" departLane="free"/>
  <flow id="JF446796" begin="5480" fromJunction="J4" toJunction="J3" end="5540" vehsPerHour="223.93473456364262" departLane="free"/>
  <flow id="JF446797" begin="5480" fromJunction="J5" toJunction="J6" end="5540" vehsPerHour="147.95310168917297" departLane="free"/>
  <flow id="JF446798" begin="5480" fromJunction="J5" toJunction="J7" end="5540" vehsPerHour="259.60655811400756" departLane="free"/>
  <flow id="JF446799" begin="5480" fromJunction="J6" toJunction="J3" end="5540" vehsPerHour="260.57990062861705" departLane="free"/>
  <flow id="JF446800" begin="5480" fromJunction="J6" toJunction="J4" end="5540" vehsPerHour="89.51974531190145" departLane="free"/>
  <flow id="JF446801" begin="5480" fromJunction="J6" toJunction="J5" end="5540" vehsPerHour="193.1175360507617" departLane="free"/>
  <flow id="JF446802" begin="5480" fromJunction="J6" toJunction="J7" end="5540" vehsPerHour="51.77319435153564" departLane="free"/>
  <flow id="JF446803" begin="5480" fromJunction="J7" toJunction="J0" end="5540" vehsPerHour="217.61699636138377" departLane="free"/>
  <flow id="JF446804" begin="5480" fromJunction="J7" toJunction="J3" end="5540" vehsPerHour="140.43778683504814" departLane="free"/>
  <flow id="JF446805" begin="5480" fromJunction="J7" toJunction="J4" end="5540" vehsPerHour="29.651597317998952" departLane="free"/>
  <flow id="JF446806" begin="5480" fromJunction="J7" toJunction="J5" end="5540" vehsPerHour="66.69607664683649" departLane="free"/>
  <flow id="JF446807" begin="5480" fromJunction="J7" toJunction="J6" end="5540" vehsPerHour="137.5367097252757" departLane="free"/>
  <flow id="JF446808" begin="5540" fromJunction="J0" toJunction="J3" end="5600" vehsPerHour="164.07952049488793" departLane="free"/>
  <flow id="JF446809" begin="5540" fromJunction="J0" toJunction="J5" end="5600" vehsPerHour="383.6357711034554" departLane="free"/>
  <flow id="JF446810" begin="5540" fromJunction="J0" toJunction="J6" end="5600" vehsPerHour="350.88252367916124" departLane="free"/>
  <flow id="JF446811" begin="5540" fromJunction="J3" toJunction="J4" end="5600" vehsPerHour="394.9215032488945" departLane="free"/>
  <flow id="JF446812" begin="5540" fromJunction="J3" toJunction="J6" end="5600" vehsPerHour="491.5528932396137" departLane="free"/>
  <flow id="JF446813" begin="5540" fromJunction="J3" toJunction="J7" end="5600" vehsPerHour="111.25398304549017" departLane="free"/>
  <flow id="JF446814" begin="5540" fromJunction="J4" toJunction="J5" end="5600" vehsPerHour="139.63252103415016" departLane="free"/>
  <flow id="JF446815" begin="5540" fromJunction="J4" toJunction="J6" end="5600" vehsPerHour="211.18074495030845" departLane="free"/>
  <flow id="JF446816" begin="5540" fromJunction="J5" toJunction="J0" end="5600" vehsPerHour="150.08818989534257" departLane="free"/>