<?xml version="1.0" encoding="UTF-8"?>
<routes xmlns:xsi="http://www.w3.org/2001/XMLSchema-instance" xsi:noNamespaceSchemaLocation="http://sumo.dlr.de/xsd/routes_file.xsd">
  <flow id="JF451919" begin="0" fromJunction="J3" toJunction="J0" end="5000" vehsPerHour="839.6740692834265" departLane="free"/>
  <flow id="JF451920" begin="0" fromJunction="J0" toJunction="J3" end="5000" vehsPerHour="369.53218049603817" departLane="free"/>
  <flow id="JF451921" begin="0" fromJunction="J3" toJunction="J6" end="5000" vehsPerHour="146.56616678680626" departLane="free"/>
  <flow id="JF451922" begin="0" fromJunction="J3" toJunction="J7" end="5000" vehsPerHour="475.33464988536576" departLane="free"/>
  <flow id="JF451923" begin="0" fromJunction="J3" toJunction="J4" end="5000" vehsPerHour="328.93066937388875" departLane="free"/>
  <flow id="JF451924" begin="0" fromJunction="J3" toJunction="J5" end="5000" vehsPerHour="547.0694425478565" departLane="free"/>
  <flow id="JF451925" begin="0" fromJunction="J0" toJunction="J6" end="5000" vehsPerHour="351.71515752739083" departLane="free"/>
  <flow id="JF451926" begin="0" fromJunction="J0" toJunction="J7" end="5000" vehsPerHour="50.01331778689182" departLane="free"/>
  <flow id="JF451927" begin="0" fromJunction="J0" toJunction="J4" end="5000" vehsPerHour="374.2600920801518" departLane="free"/>
  <flow id="JF451928" begin="0" fromJunction="J0" toJunction="J5" end="5000" vehsPerHour="443.7526180069231" departLane="free"/>
  <flow id="JF451929" begin="0" fromJunction="J6" toJunction="J7" end="5000" vehsPerHour="260.2375797760702" departLane="free"/>
  <flow id="JF451930" begin="0" fromJunction="J6" toJunction="J4" end="5000" vehsPerHour="224.84833886936195" departLane="free"/>
  <flow id="JF451931" begin="0" fromJunction="J6" toJunction="J5" end="5000" vehsPerHour="199.4407809050153" departLane="free"/>
  <flow id="JF451932" begin="0" fromJunction="J7" toJunction="J6" end="5000" vehsPerHour="112.71493404873615" departLane="free"/>
  <flow id="JF451933" begin="0" fromJunction="J7" toJunction="J4" end="5000" vehsPerHour="113.74721675803268" departLane="free"/>
  <flow id="JF451934" begin="0" fromJunction="J7" toJunction="J5" end="5000" vehsPerHour="34.5779130505161" departLane="free"/>
  <flow id="JF451935" begin="0" fromJunction="J4" toJunction="J6" end="5000" vehsPerHour="8.026217999127782" departLane="free"/>
  <flow id="JF451936" begin="0" fromJunction="J4" toJunction="J7" end="5000" vehsPerHour="239.13789065435324" departLane="free"/>
  <flow id="JF451937" begin="0" fromJunction="J4" toJunction="J5" end="5000" vehsPerHour="165.3851378271746" departLane="free"/>
  <flow id="JF451938" begin="0" fromJunction="J5" toJunction="J6" end="5000" vehsPerHour="163.8379312110456" departLane="free"/>
  <flow id="JF451939" begin="0" fromJunction="J5" toJunction="J7" end="5000" vehsPerHour="153.61328048822364" departLane="free"/>
  <flow id="JF451940" begin="0" fromJunction="J5" toJunction="J4" end="5000" vehsPerHour="175.3929073013534" departLane="free"/>
  <flow id="JF451941" begin="0" fromJunction="J6" toJunction="J3" end="5000" vehsPerHour="32.86779555704428" departLane="free"/>
  <flow id="JF451942" begin="0" fromJunction="J6" toJunction="J0" end="5000" vehsPerHour="258.49488052236916" departLane="free"/>
  <flow id="JF451943" begin="0" fromJunction="J7" toJunction="J3" end="5000" vehsPerHour="55.479045606132324" departLane="free"/>
  <flow id="JF451944" begin="0" fromJunction="J7" toJunction="J0" end="5000" vehsPerHour="130.2490582607996" departLane="free"/>
  <flow id="JF451945" begin="0" fromJunction="J4" toJunction="J3" end="5000" vehsPerHour="202.1567919825433" departLane="free"/>
  <flow id="JF451946" begin="0" fromJunction="J4" toJunction="J0" end="5000" vehsPerHour="142.72428562660053" departLane="free"/>
  <flow id="JF451947" begin="0" fromJunction="J5" toJunction="J3" end="5000" vehsPerHour="100.7380001871686" departLane="free"/>
  <flow id="JF451948" begin="0" fromJunction="J5" toJunction="J0" end="5000" vehsPerHour="255.8757262283803" departLane="free"/>
  <flow id="JF451949" begin="5000" fromJunction="J0" toJunction="J3" end="5060" vehsPerHour="444.4088536000589" departLane="free"/>
  <flow id="JF451950" begin="5000" fromJunction="J0" toJunction="J4" end="5060" vehsPerHour="473.9579635813314" departLane="free"/>
  <flow id="JF451951" begin="5000" fromJunction="J0" toJunction="J5" end="5060" vehsPerHour="469.0872017431357" departLane="free"/>
  <flow id="JF451952" begin="5000" fromJunction="J0" toJunction="J7" end="5060" vehsPerHour="340.1237769977818" departLane="free"/>
  <flow id="JF451953" begin="5000" fromJunction="J3" toJunction="J4" end="5060" vehsPerHour="387.53807259063956" departLane="free"/>
  <flow id="JF451954" begin="5000" fromJunction="J3" toJunction="J6" end="5060" vehsPerHour="239.84043577973273" departLane="free"/>
  <flow id="JF451955" begin="5000" fromJunction="J4" toJunction="J0" end="5060" vehsPerHour="133.02461305056875" departLane="free"/>
  <flow id="JF451956" begin="5000" fromJunction="J4" toJunction="J3" end="5060" vehsPerHour="66.0729563228034" departLane="free"/>
  <flow id="JF451957" begin="5000" fromJunction="J4" toJunction="J6" end="5060" vehsPerHour="142.88688072835728" departLane="free"/>
  <flow id="JF451958" begin="5000" fromJunction="J4" toJunction="J7" end="5060" vehsPerHour="205.00906358165489" departLane="free"/>
  <flow id="JF451959" begin="5000" fromJunction="J5" toJunction="J3" end="5060" vehsPerHour="70.74545529935162" departLane="free"/>
  <flow id="JF451960" begin="5000" fromJunction="J6" toJunction="J0" end="5060" vehsPerHour="224.0533057112092" departLane="free"/>
  <flow id="JF451961" begin="5000" fromJunction="J6" toJunction="J4" end="5060" vehsPerHour="45.913246864777854" departLane="free"/>
  <flow id="JF451962" begin="5000" fromJunction="J6" toJunction="J7" end="5060" vehsPerHour="133.77629623062126" departLane="free"/>
  <flow id="JF451963" begin="5000" fromJunction="J7" toJunction="J0" end="5060" vehsPerHour="137.9047891153513" departLane="free"/>
  <flow id="JF451964" begin="5000" fromJunction="J7" toJunction="J3" end="5060" vehsPerHour="18.28799541127294" departLane="free"/>
  <flow id="JF451965" begin="5000" fromJunction="J7" toJunction="J4" end="5060" vehsPerHour="119.47264669958717" departLane="free"/>
  <flow id="JF451966" begin="5000" fromJunction="J7" toJunction="J5" end="5060" vehsPerHour="208.0328958074506" departLane="free"/>
  <flow id="JF451967" begin="5000" fromJunction="J7" toJunction="J6" end="5060" vehsPerHour="136.80529771006948" departLane="free"/>
  <flow id="JF451968" begin="5060" fromJunction="J0" toJunction="J5" end="5120" vehsPerHour="517.7648232993112" departLane="free"/>
  <flow id="JF451969" begin="5060" fromJunction="J0" toJunction="J7" end="5120" vehsPerHour="296.1183728247598" departLane="free"/>
  <flow id="JF451970" begin="5060" fromJunction="J3" toJunction="J0" end="5120" vehsPerHour="329.57630827360987" departLane="free"/>
  <flow id="JF451971" begin="5060" fromJunction="J3" toJunction="J4" end="5120" vehsPerHour="150.39924268682879" departLane="free"/>
  <flow id="JF451972" begin="5060" fromJunction="J3" toJunction="J6" end="5120" vehsPerHour="140.70974573453128" departLane="free"/>
  <flow id="JF451973" begin="5060" fromJunction="J4" toJunction="J3" end="5120" vehsPerHour="78.09822465429671" departLane="free"/>
  <flow id="JF451974" begin="5060" fromJunction="J4" toJunction="J6" end="5120" vehsPerHour="208.28510791767027" departLane="free"/>
  <flow id="JF451975" begin="5060" fromJunction="J4" toJunction="J7" end="5120" vehsPerHour="148.52805909238322" departLane="free"/>
  <flow id="JF451976" begin="5060" fromJunction="J5" toJunction="J0" end="5120" vehsPerHour="33.58260369797509" departLane="free"/>
  <flow id="JF451977" begin="5060" fromJunction="J5" toJunction="J3" end="5120" vehsPerHour="233.27403912067547" departLane="free"/>
  <flow id="JF451978" begin="5060" fromJunction="J5" toJunction="J4" end="5120" vehsPerHour="29.487546628933504" departLane="free"/>
  <flow id="JF451979" begin="5060" fromJunction="J5" toJunction="J6" end="5120" vehsPerHour="106.19407607825013" departLane="free"/>
  <flow id="JF451980" begin="5060" fromJunction="J5" toJunction="J7" end="5120" vehsPerHour="163.92197301348503" departLane="free"/>
  <flow id="JF451981" begin="5060" fromJunction="J6" toJunction="J0" end="5120" vehsPerHour="257.60500530992744" departLane="free"/>
  <flow id="JF451982" begin="5060" fromJunction="J6" toJunction="J3" end="5120" vehsPerHour="19.919189109396854" departLane="free"/>
  <flow id="JF451983" begin="5060" fromJunction="J6" toJunction="J5" end="5120" vehsPerHour="255.46561639946918" departLane="free"/>
  <flow id="JF451984" begin="5060" fromJunction="J6" toJunction="J7" end="5120" vehsPerHour="62.489268385804664" departLane="free"/>
  <flow id="JF451985" begin="5060" fromJunction="J7" toJunction="J0" end="5120" vehsPerHour="105.41782678468535" departLane="free"/>
  <flow id="JF451986" begin="5060" fromJunction="J7" toJunction="J3" end="5120" vehsPerHour="209.8997045976094" departLane="free"/>
  <flow id="JF451987" begin="5060" fromJunction="J7" toJunction="J4" end="5120" vehsPerHour="105.69975866942329" departLane="free"/>
  <flow id="JF451988" begin="5060" fromJunction="J7" toJunction="J5" end="5120" vehsPerHour="146.56775970650338" departLane="free"/>
  <flow id="JF451989" begin="5120" fromJunction="J0" toJunction="J4" end="5180" vehsPerHour="23.23574419229038" departLane="free"/>
  <flow id="JF451990" begin="5120" fromJunction="J0" toJunction="J5" end="5180" vehsPerHour="253.3565336289236" departLane="free"/>
  <flow id="JF451991" begin="5120" fromJunction="J0" toJunction="J6" end="5180" vehsPerHour="364.33915200350316" departLane="free"/>
  <flow id="JF451992" begin="5120" fromJunction="J0" toJunction="J7" end="5180" vehsPerHour="452.87591170128366" departLane="free"/>
  <flow id="JF451993" begin="5120" fromJunction="J3" toJunction="J0" end="5180" vehsPerHour="459.71729688783705" departLane="free"/>
  <flow id="JF451994" begin="5120" fromJunction="J3" toJunction="J4" end="5180" vehsPerHour="404.1011912269263" departLane="free"/>
  <flow id="JF451995" begin="5120" fromJunction="J4" toJunction="J0" end="5180" vehsPerHour="163.4914056243643" departLane="free"/>
  <flow id="JF451996" begin="5120" fromJunction="J4" toJunction="J3" end="5180" vehsPerHour="245.7383582925837" departLane="free"/>
  <flow id="JF451997" begin="5120" fromJunction="J4" toJunction="J5" end="5180" vehsPerHour="225.49161805642723" departLane="free"/>
  <flow id="JF451998" begin="5120" fromJunction="J4" toJunction="J6" end="5180" vehsPerHour="201.07439968803246" departLane="free"/>
  <flow id="JF451999" begin="5120" fromJunction="J4" toJunction="J7" end="5180" vehsPerHour="8.480369314943536" departLane="free"/>
  <flow id="JF452000" begin="5120" fromJunction="J5" toJunction="J0" end="5180" vehsPerHour="5.0738622629039565" departLane="free"/>
  <flow id="JF452001" begin="5120" fromJunction="J5" toJunction="J3" end="5180" vehsPerHour="117.6782870167939" departLane="free"/>
  <flow id="JF452002" begin="5120" fromJunction="J5" toJunction="J6" end="5180" vehsPerHour="226.44276411499297" departLane="free"/>
  <flow id="JF452003" begin="5120" fromJunction="J6" toJunction="J0" end="5180" vehsPerHour="205.02076926273153" departLane="free"/>
  <flow id="JF452004" begin="5120" fromJunction="J6" toJunction="J3" end="5180" vehsPerHour="269.45481660567816" departLane="free"/>
  <flow id="JF452005" begin="5120" fromJunction="J6" toJunction="J4" end="5180" vehsPerHour="6.202171589042324" departLane="free"/>
  <flow id="JF452006" begin="5120" fromJunction="J6" toJunction="J5" end="5180" vehsPerHour="161.2979471297512" departLane="free"/>
  <flow id="JF452007" begin="5120" fromJunction="J6" toJunction="J7" end="5180" vehsPerHour="246.15134968892414" departLane="free"/>
  <flow id="JF452008" begin="5120" fromJunction="J7" toJunction="J0" end="5180" vehsPerHour="14.015049594528628" departLane="free"/>
  <flow id="JF452009" begin="5120" fromJunction="J7" toJunction="J3" end="5180" vehsPerHour="71.04736377373357" departLane="free"/>
  <flow id="JF452010" begin="5180" fromJunction="J0" toJunction="J3" end="5240" vehsPerHour="136.33640904886877" departLane="free"/>
  <flow id="JF452011" begin="5180" fromJunction="J0" toJunction="J5" end="5240" vehsPerHour="99.31180495556129" departLane="free"/>
  <flow id="JF452012" begin="5180" fromJunction="J0" toJunction="J6" end="5240" vehsPerHour="455.6053077848108" departLane="free"/>
  <flow id="JF452013" begin="5180" fromJunction="J0" toJunction="J7" end="5240" vehsPerHour="218.33849167987992" departLane="free"/>
  <flow id="JF452014" begin="5180" fromJunction="J3" toJunction="J4" end="5240" vehsPerHour="191.4813093680816" departLane="free"/>
  <flow id="JF452015" begin="5180" fromJunction="J3" toJunction="J7" end="5240" vehsPerHour="470.18932742411704" departLane="free"/>
  <flow id="JF452016" begin="5180" fromJunction="J4" toJunction="J0" end="5240" vehsPerHour="234.80965539634752" departLane="free"/>
  <flow id="JF452017" begin="5180" fromJunction="J4" toJunction="J6" end="5240" vehsPerHour="48.907609331785906" departLane="free"/>
  <flow id="JF452018" begin="5180" fromJunction="J4" toJunction="J7" end="5240" vehsPerHour="120.87988537144683" departLane="free"/>
  <flow id="JF452019" begin="5180" fromJunction="J5" toJunction="J0" end="5240" vehsPerHour="190.91457464813325" departLane="free"/>
  <flow id="JF452020" begin="5180" fromJunction="J5" toJunction="J3" end="5240" vehsPerHour="45.59211716470165" departLane="free"/>
  <flow id="JF452021" begin="5180" fromJunction="J5" toJunction="J4" end="5240" vehsPerHour="75.27092784473598" departLane="free"/>
  <flow id="JF452022" begin="5180" fromJunction="J5" toJunction="J6" end="5240" vehsPerHour="25.454615852774385" departLane="free"/>
  <flow id="JF452023" begin="5180" fromJunction="J5" toJunction="J7" end="5240" vehsPerHour="114.25515446173904" departLane="free"/>
  <flow id="JF452024" begin="5180" fromJunction="J6" toJunction="J0" end="5240" vehsPerHour="156.4295492409195" departLane="free"/>
  <flow id="JF452025" begin="5180" fromJunction="J7" toJunction="J0" end="5240" vehsPerHour="1.5066725088898918" departLane="free"/>
  <flow id="JF452026" begin="5180" fromJunction="J7" toJunction="J5" end="5240" vehsPerHour="110.13305566026779" departLane="free"/>
  <flow id="JF452027" begin="5180" fromJunction="J7" toJunction="J6" end="5240" vehsPerHour="247.17919343616947" departLane="free"/>
  <flow id="JF452028" begin="5240" fromJunction="J0" toJunction="J4" end="5300" vehsPerHour="288.75552490602894" departLane="free"/>
  <flow id="JF452029" begin="5240" fromJunction="J0" toJunction="J5" end="5300" vehsPerHour="157.18345044859532" departLane="free"/>
  <flow id="JF452030" begin="5240" fromJunction="J3" toJunction="J4" end="5300" vehsPerHour="138.48503503457155" departLane="free"/>
  <flow id="JF452031" begin="5240" fromJunction="J3" toJunction="J5" end="5300" vehsPerHour="537.2916033499987" departLane="free"/>
  <flow id="JF452032" begin="5240" fromJunction="J3" toJunction="J6" end="5300" vehsPerHour="315.14194328512394" departLane="free"/>
  <flow id="JF452033" begin="5240" fromJunction="J3" toJunction="J7" end="5300" vehsPerHour="516.1080786116779" departLane="free"/>
  <flow id="JF452034" begin="5240" fromJunction="J4" toJunction="J0" end="5300" vehsPerHour="188.68797051726932" departLane="free"/>
  <flow id="JF452035" begin="5240" fromJunction="J4" toJunction="J6" end="5300" vehsPerHour="41.13569519794848" departLane="free"/>
  <flow id="JF452036" begin="5240" fromJunction="J4" toJunction="J7" end="5300" vehsPerHour="181.79725149319162" departLane="free"/>
  <flow id="JF452037" begin="5240" fromJunction="J5" toJunction="J0" end="5300" vehsPerHour="43.211853782505585" departLane="free"/>
  <flow id="JF452038" begin="5240" fromJunction="J5" toJunction="J3" end="5300" vehsPerHour="28.76303249611563" departLane="free"/>
  <flow id="JF452039" begin="5240" fromJunction="J5" toJunction="J4" end="5300" vehsPerHour="114.77461327287065" departLane="free"/>
  <flow id="JF452040" begin="5240" fromJunction="J5" toJunction="J6" end="5300" vehsPerHour="263.78930449890214" departLane="free"/>
  <flow id="JF452041" begin="5240" fromJunction="J5" toJunction="J7" end="5300" vehsPerHour="82.3764111196054" departLane="free"/>
  <flow id="JF452042" begin="5240" fromJunction="J6" toJunction="J0" end="5300" vehsPerHour="163.46738804812256" departLane="free"/>
  <flow id="JF452043" begin="5240" fromJunction="J6" toJunction="J3" end="5300" vehsPerHour="132.30928218372784" departLane="free"/>
  <flow id="JF452044" begin="5240" fromJunction="J6" toJunction="J4" end="5300" vehsPerHour="197.7054342444439" departLane="free"/>
  <flow id="JF452045" begin="5240" fromJunction="J6" toJunction="J5" end="5300" vehsPerHour="257.9724015357229" departLane="free"/>
  <flow id="JF452046" begin="5240" fromJunction="J6" toJunction="J7" end="5300" vehsPerHour="150.23409203482547" departLane="free"/>
  <flow id="JF452047" begin="5240" fromJunction="J7" toJunction="J0" end="5300" vehsPerHour="151.14746774706074" departLane="free"/>
  <flow id="JF452048" begin="5240" fromJunction="J7" toJunction="J3" end="5300" vehsPerHour="237.95352277457866" departLane="free"/>
  <flow id="JF452049" begin="5240" fromJunction="J7" toJunction="J4" end="5300" vehsPerHour="182.8867913406638" departLane="free"/>
  <flow id="JF452050" begin="5240" fromJunction="J7" toJunction="J6" end="5300" vehsPerHour="231.4794601214608" departLane="free"/>
  <flow id="JF452051" begin="5300" fromJunction="J0" toJunction="J4" end="5360" vehsPerHour="344.9023924378061" departLane="free"/>
  <flow id="JF452052" begin="5300" fromJunction="J0" toJunction="J6" end="5360" vehsPerHour="12.846838531052027" departLane="free"/>
  <flow id="JF452053" begin="5300" fromJunction="J0" toJunction="J7" end="5360" vehsPerHour="38.343105905573005" departLane="free"/>
  <flow id="JF452054" begin="5300" fromJunction="J3" toJunction="J4" end="5360" vehsPerHour="100.58611169783737" departLane="free"/>
  <flow id="JF452055" begin="5300" fromJunction="J3" toJunction="J5" end="5360" vehsPerHour="166.24570222897216" departLane="free"/>
  <flow id="JF452056" begin="5300" fromJunction="J3" toJunction="J6" end="5360" vehsPerHour="498.61009577592176" departLane="free"/>
  <flow id="JF452057" begin="5300" fromJunction="J4" toJunction="J0" end="5360" vehsPerHour="31.440441040626478" departLane="free"/>
  <flow id="JF452058" begin="5300" fromJunction="J4" toJunction="J3" end="5360" vehsPerHour="180.6156075425176" departLane="free"/>
  <flow id="JF452059" begin="5300" fromJunction="J4" toJunction="J5" end="5360" vehsPerHour="157.62541226504501" departLane="free"/>
  <flow id="JF452060" begin="5300" fromJunction="J4" toJunction="J6" end="5360" vehsPerHour="166.96195712004527" departLane="free"/>
  <flow id="JF452061" begin="5300" fromJunction="J4" toJunction="J7" end="5360" vehsPerHour="13.555567577289763" departLane="free"/>
  <flow id="JF452062" begin="5300" fromJunction="J5" toJunction="J3" end="5360" vehsPerHour="192.90080325736122" departLane="free"/>
  <flow id="JF452063" begin="5300" fromJunction="J5" toJunction="J7" end="5360" vehsPerHour="269.3724409720128" departLane="free"/>
  <flow id="JF452064" begin="5300" fromJunction="J6" toJunction="J4" end="5360" vehsPerHour="74.54563443829593" departLane="free"/>
  <flow id="JF452065" begin="5300" fromJunction="J6" toJunction="J5" end="5360" vehsPerHour="3.892967668111536" departLane="free"/>
  <flow id="JF452066" begin="5300" fromJunction="J6" toJunction="J7" end="5360" vehsPerHour="45.07570867449515" departLane="free"/>
  <flow id="JF452067" begin="5300" fromJunction="J7" toJunction="J0" end="5360" vehsPerHour="61.226330849720796" departLane="free"/>
  <flow id="JF452068" begin="5300" fromJunction="J7" toJunction="J3" end="5360" vehsPerHour="223.70549658446697" departLane="free"/>
  <flow id="JF452069" begin="5300" fromJunction="J7" toJunction="J4" end="5360" vehsPerHour="146.99473992948307" departLane="free"/>
  <flow id="JF452070" begin="5300" fromJunction="J7" toJunction="J6" end="5360" vehsPerHour="203.91753878021876" departLane="free"/>
  <flow id="JF452071" begin="5360" fromJunction="J0" toJunction="J3" end="5420" vehsPerHour="249.52295496807378" departLane="free"/>
  <flow id="JF452072" begin="5360" fromJunction="J0" toJunction="J4" end="5420" vehsPerHour="123.942547190098" departLane="free"/>
  <flow id="JF452073" begin="5360" fromJunction="J0" toJunction="J5" end="5420" vehsPerHour="267.8256767039362" departLane="free"/>
  <flow id="JF452074" begin="5360" fromJunction="J0" toJunction="J7" end="5420" vehsPerHour="502.35946308160015" departLane="free"/>
  <flow id="JF452075" begin="5360" fromJunction="J3" toJunction="J0" end="5420" vehsPerHour="39.58505686303993" departLane="free"/>
  <flow id="JF452076" begin="5360" fromJunction="J3" toJunction="J5" end="5420" vehsPerHour="11.306638201714383" departLane="free"/>
  <flow id="JF452077" begin="5360" fromJunction="J3" toJunction="J7" end="5420" vehsPerHour="42.335742829488105" departLane="free"/>
  <flow id="JF452078" begin="5360" fromJunction="J4" toJunction="J3" end="5420" vehsPerHour="194.86890492120693" departLane="free"/>
  <flow id="JF452079" begin="5360" fromJunction="J4" toJunction="J5" end="5420" vehsPerHour="216.3571291396385" departLane="free"/>
  <flow id="JF452080" begin="5360" fromJunction="J4" toJunction="J6" end="5420" vehsPerHour="40.762650915457385" departLane="free"/>
  <flow id="JF452081" begin="5360" fromJunction="J4" toJunction="J7" end="5420" vehsPerHour="87.44817346171942" departLane="free"/>
  <flow id="JF452082" begin="5360" fromJunction="J5" toJunction="J3" end="5420" vehsPerHour="126.73286437538084" departLane="free"/>
  <flow id="JF452083" begin="5360" fromJunction="J6" toJunction="J3" end="5420" vehsPerHour="103.6456410626029" departLane="free"/>
  <flow id="JF452084" begin="5360" fromJunction="J6" toJunction="J4" end="5420" vehsPerHour="189.20521402046032" departLane="free"/>
  <flow id="JF452085" begin="5360" fromJunction="J7" toJunction="J4" end="5420" vehsPerHour="80.349731796491" departLane="free"/>
  <flow id="JF452086" begin="5360" fromJunction="J7" toJunction="J5" end="5420" vehsPerHour="106.31909436965546" departLane="free"/>
  <flow id="JF452087" begin="5360" fromJunction="J7" toJunction="J6" end="5420" vehsPerHour="174.75088373082602" departLane="free"/>
  <flow id="JF452088" begin="5420" fromJunction="J0" toJunction="J3" end="5480" vehsPerHour="36.17235766313243" departLane="free"/>
  <flow id="JF452089" begin="5420" fromJunction="J0" toJunction="J5" end="5480" vehsPerHour="202.90012804886433" departLane="free"/>
  <flow id="JF452090" begin="5420" fromJunction="J3" toJunction="J0" end="5480" vehsPerHour="191.46460590891226" departLane="free"/>
  <flow id="JF452091" begin="5420" fromJunction="J3" toJunction="J4" end="5480" vehsPerHour="160.02928968541758" departLane="free"/>
  <flow id="JF452092" begin="5420" fromJunction="J3" toJunction="J5" end="5480" vehsPerHour="327.93865293534367" departLane="free"/>
  <flow id="JF452093" begin="5420" fromJunction="J3" toJunction="J6" end="5480" vehsPerHour="445.38278845882905" departLane="free"/>
  <flow id="JF452094" begin="5420" fromJunction="J3" toJunction="J7" end="5480" vehsPerHour="135.67476482161285" departLane="free"/>
  <flow id="JF452095" begin="5420" fromJunction="J4" toJunction="J0" end="5480" vehsPerHour="144.2113982216617" departLane="free"/>
  <flow id="JF452096" begin="5420" fromJunction="J4" toJunction="J6" end="5480" vehsPerHour="121.24097984557325" departLane="free"/>
  <flow id="JF452097" begin="5420" fromJunction="J5" toJunction="J0" end="5480" vehsPerHour="144.63542183466032" departLane="free"/>
  <flow id="JF452098" begin="5420" fromJunction="J5" toJunction="J3" end="5480" vehsPerHour="144.89493892400793" departLane="free"/>
  <flow id="JF452099" begin="5420" fromJunction="J5" toJunction="J4" end="5480" vehsPerHour="202.63290433506376" departLane="free"/>
  <flow id="JF452100" begin="5420" fromJunction="J5" toJunction="J6" end="5480" vehsPerHour="36.65963958871379" departLane="free"/>
  <flow id="JF452101" begin="5420" fromJunction="J5" toJunction="J7" end="5480" vehsPerHour="143.37128344915138" departLane="free"/>
  <flow id="JF452102" begin="5420" fromJunction="J6" toJunction="J4" end="5480" vehsPerHour="237.1882213687211" departLane="free"/>
  <flow id="JF452103" begin="5420" fromJunction="J6" toJunction="J5" end="5480" vehsPerHour="157.0753301110609" departLane="free"/>
  <flow id="JF452104" begin="5420" fromJunction="J6" toJunction="J7" end="5480" vehsPerHour="182.97561323986304" departLane="free"/>
  <flow id="JF452105" begin="5420" fromJunction="J7" toJunction="J3" end="5480" vehsPerHour="90.06714987434768" departLane="free"/>
  <flow id="JF452106" begin="5420" fromJunction="J7" toJunction="J4" end="5480" vehsPerHour="90.45237665830165" departLane="free"/>
  <flow id="JF452107" begin="5420" fromJunction="J7" toJunction="J5" end="5480" vehsPerHour="25.86216636857832" departLane="free"/>
  <flow id="JF452108" begin="5420" fromJunction="J7" toJunction="J6" end="5480" vehsPerHour="79.5053493491804" departLane="free"/>
  <flow id="JF452109" begin="5480" fromJunction="J0" toJunction="J3" end="5540" vehsPerHour="345.49637582615713" departLane="free"/>
  <flow id="JF452110" begin="5480" fromJunction="J0" toJunction="J4" end="5540" vehsPerHour="205.33617052895318" departLane="free"/>
  <flow id="JF452111" begin="5480" fromJunction="J0" toJunction="J5" end="5540" vehsPerHour="73.19076934509062" departLane="free"/>
  <flow id="JF452112" begin="5480" fromJunction="J0" toJunction="J6" end="5540" vehsPerHour="80.16917549882095" departLane="free"/>
  <flow id="JF452113" begin="5480" fromJunction="J3" toJunction="J6" end="5540" vehsPerHour="479.77082944306306" departLane="free"/>
  <flow id="JF452114" begin="5480" fromJunction="J4" toJunction="J0" end="5540" vehsPerHour="228.77579819156153" departLane="free"/>
  <flow id="JF452115" begin="5480" fromJunction="J4" toJunction="J5" end="5540" vehsPerHour="99.45811676037563" departLane="free"/>
  <flow id="JF452116" begin="5480" fromJunction="J4" toJunction="J6" end="5540" vehsPerHour="32.27555766034382" departLane="free"/>
  <flow id="JF452117" begin="5480" fromJunction="J4" toJunction="J7" end="5540" vehsPerHour="3.2690490193861663" departLane="free"/>
  <flow id="JF452118" begin="5480" fromJunction="J5" toJunction="J0" end="5540" vehsPerHour="22.5039229632591" departLane="free"/>
  <flow id="JF452119" begin="5480" fromJunction="J5" toJunction="J3" end="5540" vehsPerHour="253.09319697101458" departLane="free"/>
  <flow id="JF452120" begin="5480" fromJunction="J5" toJunction="J4" end="5540" vehsPerHour="157.26998083200317" departLane="free"/>
  <flow id="JF452121" begin="5480" fromJunction="J5" toJunction="J7" end="5540" vehsPerHour="105.0775658831162" departLane="free"/>
  <flow id="JF452122" begin="5480" fromJunction="J6" toJunction="J0" end="5540" vehsPerHour="187.81076254671873" departLane="free"/>
  <flow id="JF452123" begin="5480" fromJunction="J6" toJunction="J3" end="5540" vehsPerHour="250.69515396698768" departLane="free"/>
  <flow id="JF452124" begin="5480" fromJunction="J6" toJunction="J4" end="5540" vehsPerHour="61.57355568824795" departLane="free"/>
  <flow id="JF452125" begin="5480" fromJunction="J6" toJunction="J5" end="5540" vehsPerHour="117.90202872839276" departLane="free"/>
  <flow id="JF452126" begin="5480" fromJunction="J6" toJunction="J7" end="5540" vehsPerHour="135.37974044947129" departLane="free"/>
  <flow id="JF452127" begin="5480" fromJunction="J7" toJunction="J0" end="5540" vehsPerHour="70.72813800250768" departLane="free"/>
  <flow id="JF452128" begin="5480" fromJunction="J7" toJunction="J3" end="5540" vehsPerHour="140.33129331090086" departLane="free"/>
  <flow id="JF452129" begin="5480" fromJunction="J7" toJunction="J4" end="5540" vehsPerHour="76.79974544805656" departLane="free"/>
  <flow id="JF452130" begin="5540" fromJunction="J0" toJunction="J3" end="5600" vehsPerHour="210.42511171096618" departLane="free"/>
  <flow id="JF452131" begin="5540" fromJunction="J0" toJunction="J4" end="5600" vehsPerHour="471.72522780225955" departLane="free"/>
  <flow id="JF452132" begin="5540" fromJunction="J0" toJunction="J5" end="5600" vehsPerHour="386.37739178667124" departLane="free"/>
  <flow id="JF452133" begin="5540" fromJunction="J0" toJunction="J6" end="5600" vehsPerHour="351.1321003584552" departLane="free"/>
  <flow id="JF452134" begin="5540" fromJunction="J3" toJunction="J4" end="5600" vehsPerHour="165.86315991956545" departLane="free"/>
  <flow id="JF452135" begin="5540" fromJunction="J3" toJunction="J5" end="5600" vehsPerHour="164.96416714837338" departLane="free"/>
  <flow id="JF452136" begin="5540" fromJunction="J3" toJunction="J6" end="5600" vehsPerHour="333.7470183253682" departLane="free"/>
  <flow id="JF452137" begin="5540" fromJunction="J3" toJunction="J7" end="5600" vehsPerHour="364.18569185092986" departLane="free"/>
  <flow id="JF452138" begin="5540" fromJunction="J4" toJunction="J3" end="5600" vehsPerHour="41.539773743381836" departLane="free"/>
  <flow id="JF452139" begin="5540" fromJunction="J4" toJunction="J7" end="5600" vehsPerHour="92.99941897145035" departLane="free"/>
  <flow id="JF452140" begin="5540" fromJunction="J5" toJunction="J0" end="5600" vehsPerHour="0.06612219738728364" departLane="free"/>
  <flow id="JF452141" begin="5540" fromJunction="J5" toJunction="J4" end="5600" vehsPerHour="179.449744883201" departLane="free"/>
  <flow id="JF452142" begin="5540" fromJunction="J5" toJunction="J7" end="5600" vehsPerHour="224.41507743708115" departLane="free"/>
  <flow id="JF452143" begin="5540" fromJunction="J6" toJunction="J3" end="5600" vehsPerHour="131.84500776222754" departLane="free"/>