<?xml version="1.0" encoding="UTF-8"?>
<routes xmlns:xsi="http://www.w3.org/2001/XMLSchema-instance" xsi:noNamespaceSchemaLocation="http://sumo.dlr.de/xsd/routes_file.xsd">
  <flow id="JF450138" begin="0" fromJunction="J3" toJunction="J0" end="5000" vehsPerHour="330.85507288520364" departLane="free"/>
  <flow id="JF450139" begin="0" fromJunction="J0" toJunction="J3" end="5000" vehsPerHour="178.70414058606258" departLane="free"/>
  <flow id="JF450140" begin="0" fromJunction="J3" toJunction="J6" end="5000" vehsPerHour="305.97298952698435" departLane="free"/>
  <flow id="JF450141" begin="0" fromJunction="J3" toJunction="J7" end="5000" vehsPerHour="249.83096481267881" departLane="free"/>
  <flow id="JF450142" begin="0" fromJunction="J3" toJunction="J4" end="5000" vehsPerHour="510.1023871354926" departLane="free"/>
  <flow id="JF450143" begin="0" fromJunction="J3" toJunction="J5" end="5000" vehsPerHour="137.05235496969811" departLane="free"/>
  <flow id="JF450144" begin="0" fromJunction="J0" toJunction="J6" end="5000" vehsPerHour="454.6474873831923" departLane="free"/>
  <flow id="JF450145" begin="0" fromJunction="J0" toJunction="J7" end="5000" vehsPerHour="153.02878312326533" departLane="free"/>
  <flow id="JF450146" begin="0" fromJunction="J0" toJunction="J4" end="5000" vehsPerHour="457.940003330247" departLane="free"/>
  <flow id="JF450147" begin="0" fromJunction="J0" toJunction="J5" end="5000" vehsPerHour="313.6474759168285" departLane="free"/>
  <flow id="JF450148" begin="0" fromJunction="J6" toJunction="J7" end="5000" vehsPerHour="8.876504181884863" departLane="free"/>
  <flow id="JF450149" begin="0" fromJunction="J6" toJunction="J4" end="5000" vehsPerHour="226.19776613285512" departLane="free"/>
  <flow id="JF450150" begin="0" fromJunction="J6" toJunction="J5" end="5000" vehsPerHour="196.91042352171837" departLane="free"/>
  <flow id="JF450151" begin="0" fromJunction="J7" toJunction="J6" end="5000" vehsPerHour="10.09487057028788" departLane="free"/>
  <flow id="JF450152" begin="0" fromJunction="J7" toJunction="J4" end="5000" vehsPerHour="48.13298410258534" departLane="free"/>
  <flow id="JF450153" begin="0" fromJunction="J7" toJunction="J5" end="5000" vehsPerHour="167.9375215472684" departLane="free"/>
  <flow id="JF450154" begin="0" fromJunction="J4" toJunction="J6" end="5000" vehsPerHour="232.53795518654007" departLane="free"/>
  <flow id="JF450155" begin="0" fromJunction="J4" toJunction="J7" end="5000" vehsPerHour="101.70287300517155" departLane="free"/>
  <flow id="JF450156" begin="0" fromJunction="J4" toJunction="J5" end="5000" vehsPerHour="66.61872647201162" departLane="free"/>
  <flow id="JF450157" begin="0" fromJunction="J5" toJunction="J6" end="5000" vehsPerHour="169.42952375522356" departLane="free"/>
  <flow id="JF450158" begin="0" fromJunction="J5" toJunction="J7" end="5000" vehsPerHour="10.281970284589125" departLane="free"/>
  <flow id="JF450159" begin="0" fromJunction="J5" toJunction="J4" end="5000" vehsPerHour="253.17078204251757" departLane="free"/>
  <flow id="JF450160" begin="0" fromJunction="J6" toJunction="J3" end="5000" vehsPerHour="268.00343693350203" departLane="free"/>
  <flow id="JF450161" begin="0" fromJunction="J6" toJunction="J0" end="5000" vehsPerHour="3.901436884054901" departLane="free"/>
  <flow id="JF450162" begin="0" fromJunction="J7" toJunction="J3" end="5000" vehsPerHour="65.0919139173426" departLane="free"/>
  <flow id="JF450163" begin="0" fromJunction="J7" toJunction="J0" end="5000" vehsPerHour="138.95086512827018" departLane="free"/>
  <flow id="JF450164" begin="0" fromJunction="J4" toJunction="J3" end="5000" vehsPerHour="266.4681635077138" departLane="free"/>
  <flow id="JF450165" begin="0" fromJunction="J4" toJunction="J0" end="5000" vehsPerHour="13.850314831962512" departLane="free"/>
  <flow id="JF450166" begin="0" fromJunction="J5" toJunction="J3" end="5000" vehsPerHour="257.09454968919295" departLane="free"/>
  <flow id="JF450167" begin="0" fromJunction="J5" toJunction="J0" end="5000" vehsPerHour="263.2394711072271" departLane="free"/>
  <flow id="JF450168" begin="5000" fromJunction="J0" toJunction="J3" end="5060" vehsPerHour="485.3251040415369" departLane="free"/>
  <flow id="JF450169" begin="5000" fromJunction="J0" toJunction="J5" end="5060" vehsPerHour="147.35951591783757" departLane="free"/>
  <flow id="JF450170" begin="5000" fromJunction="J0" toJunction="J6" end="5060" vehsPerHour="17.430894274693415" departLane="free"/>
  <flow id="JF450171" begin="5000" fromJunction="J0" toJunction="J7" end="5060" vehsPerHour="180.39134447915734" departLane="free"/>
  <flow id="JF450172" begin="5000" fromJunction="J3" toJunction="J0" end="5060" vehsPerHour="425.621745877722" departLane="free"/>
  <flow id="JF450173" begin="5000" fromJunction="J3" toJunction="J5" end="5060" vehsPerHour="516.5903806927555" departLane="free"/>
  <flow id="JF450174" begin="5000" fromJunction="J3" toJunction="J7" end="5060" vehsPerHour="509.25681441805955" departLane="free"/>
  <flow id="JF450175" begin="5000" fromJunction="J4" toJunction="J0" end="5060" vehsPerHour="231.48453950301646" departLane="free"/>
  <flow id="JF450176" begin="5000" fromJunction="J4" toJunction="J3" end="5060" vehsPerHour="137.29675212741176" departLane="free"/>
  <flow id="JF450177" begin="5000" fromJunction="J4" toJunction="J5" end="5060" vehsPerHour="268.78504178389187" departLane="free"/>
  <flow id="JF450178" begin="5000" fromJunction="J4" toJunction="J7" end="5060" vehsPerHour="74.4595247148992" departLane="free"/>
  <flow id="JF450179" begin="5000" fromJunction="J5" toJunction="J0" end="5060" vehsPerHour="193.26686479360242" departLane="free"/>
  <flow id="JF450180" begin="5000" fromJunction="J5" toJunction="J3" end="5060" vehsPerHour="119.50234294972178" departLane="free"/>
  <flow id="JF450181" begin="5000" fromJunction="J5" toJunction="J4" end="5060" vehsPerHour="260.23826246322255" departLane="free"/>
  <flow id="JF450182" begin="5000" fromJunction="J5" toJunction="J7" end="5060" vehsPerHour="163.56504848560508" departLane="free"/>
  <flow id="JF450183" begin="5000" fromJunction="J6" toJunction="J0" end="5060" vehsPerHour="125.94522749597161" departLane="free"/>
  <flow id="JF450184" begin="5000" fromJunction="J6" toJunction="J4" end="5060" vehsPerHour="20.9218545163709" departLane="free"/>
  <flow id="JF450185" begin="5000" fromJunction="J6" toJunction="J5" end="5060" vehsPerHour="16.505744891830457" departLane="free"/>
  <flow id="JF450186" begin="5000" fromJunction="J6" toJunction="J7" end="5060" vehsPerHour="102.25718162007426" departLane="free"/>
  <flow id="JF450187" begin="5000" fromJunction="J7" toJunction="J0" end="5060" vehsPerHour="20.03611255232277" departLane="free"/>
  <flow id="JF450188" begin="5000" fromJunction="J7" toJunction="J4" end="5060" vehsPerHour="16.896952809595906" departLane="free"/>
  <flow id="JF450189" begin="5000" fromJunction="J7" toJunction="J5" end="5060" vehsPerHour="265.49086418288994" departLane="free"/>
  <flow id="JF450190" begin="5000" fromJunction="J7" toJunction="J6" end="5060" vehsPerHour="143.77765811667066" departLane="free"/>
  <flow id="JF450191" begin="5060" fromJunction="J0" toJunction="J3" end="5120" vehsPerHour="3.1104496846654848" departLane="free"/>
  <flow id="JF450192" begin="5060" fromJunction="J0" toJunction="J6" end="5120" vehsPerHour="458.8751135036215" departLane="free"/>
  <flow id="JF450193" begin="5060" fromJunction="J0" toJunction="J7" end="5120" vehsPerHour="333.95115647065904" departLane="free"/>
  <flow id="JF450194" begin="5060" fromJunction="J3" toJunction="J4" end="5120" vehsPerHour="56.869617082549986" departLane="free"/>
  <flow id="JF450195" begin="5060" fromJunction="J3" toJunction="J5" end="5120" vehsPerHour="44.2393523548725" departLane="free"/>
  <flow id="JF450196" begin="5060" fromJunction="J3" toJunction="J6" end="5120" vehsPerHour="48.43303567118731" departLane="free"/>
  <flow id="JF450197" begin="5060" fromJunction="J4" toJunction="J6" end="5120" vehsPerHour="96.95646208483255" departLane="free"/>
  <flow id="JF450198" begin="5060" fromJunction="J4" toJunction="J7" end="5120" vehsPerHour="144.14332092914924" departLane="free"/>
  <flow id="JF450199" begin="5060" fromJunction="J5" toJunction="J0" end="5120" vehsPerHour="41.15911383164206" departLane="free"/>
  <flow id="JF450200" begin="5060" fromJunction="J5" toJunction="J4" end="5120" vehsPerHour="37.13485534112607" departLane="free"/>
  <flow id="JF450201" begin="5060" fromJunction="J5" toJunction="J6" end="5120" vehsPerHour="95.28053285800796" departLane="free"/>
  <flow id="JF450202" begin="5060" fromJunction="J5" toJunction="J7" end="5120" vehsPerHour="113.99574889106111" departLane="free"/>
  <flow id="JF450203" begin="5060" fromJunction="J6" toJunction="J3" end="5120" vehsPerHour="174.0560793656521" departLane="free"/>
  <flow id="JF450204" begin="5060" fromJunction="J6" toJunction="J4" end="5120" vehsPerHour="131.12323379677994" departLane="free"/>
  <flow id="JF450205" begin="5060" fromJunction="J6" toJunction="J7" end="5120" vehsPerHour="74.21641806606296" departLane="free"/>
  <flow id="JF450206" begin="5060" fromJunction="J7" toJunction="J4" end="5120" vehsPerHour="267.4946172002455" departLane="free"/>
  <flow id="JF450207" begin="5060" fromJunction="J7" toJunction="J5" end="5120" vehsPerHour="70.15418798056278" departLane="free"/>
  <flow id="JF450208" begin="5060" fromJunction="J7" toJunction="J6" end="5120" vehsPerHour="253.28505729360285" departLane="free"/>
  <flow id="JF450209" begin="5120" fromJunction="J0" toJunction="J4" end="5180" vehsPerHour="96.77531773378786" departLane="free"/>
  <flow id="JF450210" begin="5120" fromJunction="J0" toJunction="J6" end="5180" vehsPerHour="348.76413742607303" departLane="free"/>
  <flow id="JF450211" begin="5120" fromJunction="J3" toJunction="J4" end="5180" vehsPerHour="290.7851702716155" departLane="free"/>
  <flow id="JF450212" begin="5120" fromJunction="J3" toJunction="J7" end="5180" vehsPerHour="133.7289058332511" departLane="free"/>
  <flow id="JF450213" begin="5120" fromJunction="J4" toJunction="J0" end="5180" vehsPerHour="46.85010289682896" departLane="free"/>
  <flow id="JF450214" begin="5120" fromJunction="J4" toJunction="J5" end="5180" vehsPerHour="7.027426442479382" departLane="free"/>
  <flow id="JF450215" begin="5120" fromJunction="J4" toJunction="J6" end="5180" vehsPerHour="117.73719508821662" departLane="free"/>
  <flow id="JF450216" begin="5120" fromJunction="J4" toJunction="J7" end="5180" vehsPerHour="47.19876730617537" departLane="free"/>
  <flow id="JF450217" begin="5120" fromJunction="J5" toJunction="J0" end="5180" vehsPerHour="226.08328641725564" departLane="free"/>
  <flow id="JF450218" begin="5120" fromJunction="J5" toJunction="J3" end="5180" vehsPerHour="52.08490144228781" departLane="free"/>
  <flow id="JF450219" begin="5120" fromJunction="J5" toJunction="J6" end="5180" vehsPerHour="264.5251327120671" departLane="free"/>
  <flow id="JF450220" begin="5120" fromJunction="J5" toJunction="J7" end="5180" vehsPerHour="250.97748244022347" departLane="free"/>
  <flow id="JF450221" begin="5120" fromJunction="J6" toJunction="J0" end="5180" vehsPerHour="105.82083536156883" departLane="free"/>
  <flow id="JF450222" begin="5120" fromJunction="J6" toJunction="J3" end="5180" vehsPerHour="201.43925779439866" departLane="free"/>
  <flow id="JF450223" begin="5120" fromJunction="J6" toJunction="J5" end="5180" vehsPerHour="131.1989534980446" departLane="free"/>
  <flow id="JF450224" begin="5120" fromJunction="J7" toJunction="J0" end="5180" vehsPerHour="146.3193556821013" departLane="free"/>
  <flow id="JF450225" begin="5120" fromJunction="J7" toJunction="J3" end="5180" vehsPerHour="144.33527303224614" departLane="free"/>
  <flow id="JF450226" begin="5120" fromJunction="J7" toJunction="J4" end="5180" vehsPerHour="123.02486247515017" departLane="free"/>
  <flow id="JF450227" begin="5120" fromJunction="J7" toJunction="J5" end="5180" vehsPerHour="81.64057069826154" departLane="free"/>
  <flow id="JF450228" begin="5180" fromJunction="J0" toJunction="J3" end="5240" vehsPerHour="467.63084993379783" departLane="free"/>
  <flow id="JF450229" begin="5180" fromJunction="J0" toJunction="J5" end="5240" vehsPerHour="301.04848920434006" departLane="free"/>
  <flow id="JF450230" begin="5180" fromJunction="J0" toJunction="J6" end="5240" vehsPerHour="3.481360302088715" departLane="free"/>
  <flow id="JF450231" begin="5180" fromJunction="J0" toJunction="J7" end="5240" vehsPerHour="135.2119842922942" departLane="free"/>
  <flow id="JF450232" begin="5180" fromJunction="J3" toJunction="J0" end="5240" vehsPerHour="534.53238688379" departLane="free"/>
  <flow id="JF450233" begin="5180" fromJunction="J3" toJunction="J5" end="5240" vehsPerHour="446.8826487398344" departLane="free"/>
  <flow id="JF450234" begin="5180" fromJunction="J3" toJunction="J6" end="5240" vehsPerHour="32.5612809785215" departLane="free"/>
  <flow id="JF450235" begin="5180" fromJunction="J3" toJunction="J7" end="5240" vehsPerHour="244.6197053435052" departLane="free"/>
  <flow id="JF450236" begin="5180" fromJunction="J4" toJunction="J0" end="5240" vehsPerHour="41.4959184455282" departLane="free"/>
  <flow id="JF450237" begin="5180" fromJunction="J4" toJunction="J5" end="5240" vehsPerHour="29.920167905235218" departLane="free"/>
  <flow id="JF450238" begin="5180" fromJunction="J4" toJunction="J6" end="5240" vehsPerHour="256.1912177489067" departLane="free"/>
  <flow id="JF450239" begin="5180" fromJunction="J5" toJunction="J0" end="5240" vehsPerHour="174.15923267519295" departLane="free"/>
  <flow id="JF450240" begin="5180" fromJunction="J5" toJunction="J3" end="5240" vehsPerHour="114.5621145454997" departLane="free"/>
  <flow id="JF450241" begin="5180" fromJunction="J5" toJunction="J4" end="5240" vehsPerHour="43.09300286030688" departLane="free"/>
  <flow id="JF450242" begin="5180" fromJunction="J5" toJunction="J7" end="5240" vehsPerHour="143.14890223568514" departLane="free"/>
  <flow id="JF450243" begin="5180" fromJunction="J6" toJunction="J0" end="5240" vehsPerHour="33.70648852211705" departLane="free"/>
  <flow id="JF450244" begin="5180" fromJunction="J6" toJunction="J3" end="5240" vehsPerHour="77.95395004369462" departLane="free"/>
  <flow id="JF450245" begin="5180" fromJunction="J6" toJunction="J4" end="5240" vehsPerHour="248.99100634041653" departLane="free"/>
  <flow id="JF450246" begin="5180" fromJunction="J6" toJunction="J5" end="5240" vehsPerHour="218.6093989014304" departLane="free"/>
  <flow id="JF450247" begin="5180" fromJunction="J6" toJunction="J7" end="5240" vehsPerHour="51.490648922236694" departLane="free"/>
  <flow id="JF450248" begin="5180" fromJunction="J7" toJunction="J4" end="5240" vehsPerHour="264.2846433542949" departLane="free"/>
  <flow id="JF450249" begin="5180" fromJunction="J7" toJunction="J6" end="5240" vehsPerHour="11.056948101046011" departLane="free"/>
  <flow id="JF450250" begin="5240" fromJunction="J0" toJunction="J3" end="5300" vehsPerHour="422.2352903213528" departLane="free"/>
  <flow id="JF450251" begin="5240" fromJunction="J0" toJunction="J5" end="5300" vehsPerHour="101.49973850559587" departLane="free"/>
  <flow id="JF450252" begin="5240" fromJunction="J0" toJunction="J6" end="5300" vehsPerHour="0.17385285669187409" departLane="free"/>
  <flow id="JF450253" begin="5240" fromJunction="J0" toJunction="J7" end="5300" vehsPerHour="533.2247038907067" departLane="free"/>
  <flow id="JF450254" begin="5240" fromJunction="J3" toJunction="J0" end="5300" vehsPerHour="39.17838434732789" departLane="free"/>
  <flow id="JF450255" begin="5240" fromJunction="J3" toJunction="J5" end="5300" vehsPerHour="8.543078079255821" departLane="free"/>
  <flow id="JF450256" begin="5240" fromJunction="J3" toJunction="J6" end="5300" vehsPerHour="115.03474260485618" departLane="free"/>
  <flow id="JF450257" begin="5240" fromJunction="J3" toJunction="J7" end="5300" vehsPerHour="262.1584532065047" departLane="free"/>
  <flow id="JF450258" begin="5240" fromJunction="J4" toJunction="J3" end="5300" vehsPerHour="269.7797649095628" departLane="free"/>
  <flow id="JF450259" begin="5240" fromJunction="J4" toJunction="J5" end="5300" vehsPerHour="184.5656307271692" departLane="free"/>
  <flow id="JF450260" begin="5240" fromJunction="J4" toJunction="J6" end="5300" vehsPerHour="118.52031836713589" departLane="free"/>
  <flow id="JF450261" begin="5240" fromJunction="J5" toJunction="J0" end="5300" vehsPerHour="157.14333403999873" departLane="free"/>
  <flow id="JF450262" begin="5240" fromJunction="J5" toJunction="J3" end="5300" vehsPerHour="189.85650198769574" departLane="free"/>
  <flow id="JF450263" begin="5240" fromJunction="J5" toJunction="J4" end="5300" vehsPerHour="43.3804162463248" departLane="free"/>
  <flow id="JF450264" begin="5240" fromJunction="J6" toJunction="J3" end="5300" vehsPerHour="129.3070588770997" departLane="free"/>
  <flow id="JF450265" begin="5240" fromJunction="J6" toJunction="J5" end="5300" vehsPerHour="165.6969747215071" departLane="free"/>
  <flow id="JF450266" begin="5240" fromJunction="J6" toJunction="J7" end="5300" vehsPerHour="87.29922078567738" departLane="free"/>
  <flow id="JF450267" begin="5240" fromJunction="J7" toJunction="J0" end="5300" vehsPerHour="269.54293542538426" departLane="free"/>
  <flow id="JF450268" begin="5240" fromJunction="J7" toJunction="J5" end="5300" vehsPerHour="80.65219176673675" departLane="free"/>
  <flow id="JF450269" begin="5240" fromJunction="J7" toJunction="J6" end="5300" vehsPerHour="15.335111713425274" departLane="free"/>
  <flow id="JF450270" begin="5300" fromJunction="J0" toJunction="J3" end="5360" vehsPerHour="11.96403632073563" departLane="free"/>
  <flow id="JF450271" begin="5300" fromJunction="J0" toJunction="J6" end="5360" vehsPerHour="468.1315638728025" departLane="free"/>
  <flow id="JF450272" begin="5300" fromJunction="J3" toJunction="J4" end="5360" vehsPerHour="493.1101449917863" departLane="free"/>
  <flow id="JF450273" begin="5300" fromJunction="J3" toJunction="J5" end="5360" vehsPerHour="187.55344291427554" departLane="free"/>
  <flow id="JF450274" begin="5300" fromJunction="J3" toJunction="J7" end="5360" vehsPerHour="544.775654593539" departLane="free"/>
  <flow id="JF450275" begin="5300" fromJunction="J4" toJunction="J3" end="5360" vehsPerHour="149.97859417611903" departLane="free"/>
  <flow id="JF450276" begin="5300" fromJunction="J4" toJunction="J5" end="5360" vehsPerHour="165.66055188363924" departLane="free"/>
  <flow id="JF450277" begin="5300" fromJunction="J4" toJunction="J7" end="5360" vehsPerHour="262.38800647556303" departLane="free"/>
  <flow id="JF450278" begin="5300" fromJunction="J5" toJunction="J3" end="5360" vehsPerHour="132.57804997409076" departLane="free"/>
  <flow id="JF450279" begin="5300" fromJunction="J5" toJunction="J4" end="5360" vehsPerHour="256.0255743452612" departLane="free"/>
  <flow id="JF450280" begin="5300" fromJunction="J5" toJunction="J6" end="5360" vehsPerHour="84.58934258207985" departLane="free"/>
  <flow id="JF450281" begin="5300" fromJunction="J6" toJunction="J5" end="5360" vehsPerHour="180.4538880189627" departLane="free"/>
  <flow id="JF450282" begin="5300" fromJunction="J7" toJunction="J0" end="5360" vehsPerHour="126.95531368001153" departLane="free"/>
  <flow id="JF450283" begin="5300" fromJunction="J7" toJunction="J3" end="5360" vehsPerHour="209.1126985165049" departLane="free"/>
  <flow id="JF450284" begin="5300" fromJunction="J7" toJunction="J4" end="5360" vehsPerHour="236.90920234727494" departLane="free"/>
  <flow id="JF450285" begin="5360" fromJunction="J0" toJunction="J5" end="5420" vehsPerHour="383.6482201684283" departLane="free"/>
  <flow id="JF450286" begin="5360" fromJunction="J0" toJunction="J6" end="5420" vehsPerHour="101.31390648212968" departLane="free"/>
  <flow id="JF450287" begin="5360" fromJunction="J0" toJunction="J7" end="5420" vehsPerHour="130.62366232696468" departLane="free"/>
  <flow id="JF450288" begin="5360" fromJunction="J3" toJunction="J6" end="5420" vehsPerHour="193.36038521677955" departLane="free"/>
  <flow id="JF450289" begin="5360" fromJunction="J3" toJunction="J7" end="5420" vehsPerHour="502.04711273198126" departLane="free"/>
  <flow id="JF450290" begin="5360" fromJunction="J4" toJunction="J0" end="5420" vehsPerHour="273.7118766724226" departLane="free"/>
  <flow id="JF450291" begin="5360" fromJunction="J4" toJunction="J6" end="5420" vehsPerHour="83.85512825639621" departLane="free"/>
  <flow id="JF450292" begin="5360" fromJunction="J4" toJunction="J7" end="5420" vehsPerHour="154.81905498295143" departLane="free"/>
  <flow id="JF450293" begin="5360" fromJunction="J5" toJunction="J0" end="5420" vehsPerHour="169.29661119968492" departLane="free"/>
  <flow id="JF450294" begin="5360" fromJunction="J5" toJunction="J4" end="5420" vehsPerHour="215.45775153256162" departLane="free"/>
  <flow id="JF450295" begin="5360" fromJunction="J5" toJunction="J7" end="5420" vehsPerHour="204.1742665409278" departLane="free"/>
  <flow id="JF450296" begin="5360" fromJunction="J6" toJunction="J0" end="5420" vehsPerHour="84.58855005592606" departLane="free"/>
  <flow id="JF450297" begin="5360" fromJunction="J6" toJunction="J4" end="5420" vehsPerHour="18.45911325270157" departLane="free"/>
  <flow id="JF450298" begin="5360" fromJunction="J6" toJunction="J7" end="5420" vehsPerHour="113.97897681869586" departLane="free"/>
  <flow id="JF450299" begin="5360" fromJunction="J7" toJunction="J0" end="5420" vehsPerHour="46.467193594070764" departLane="free"/>
  <flow id="JF450300" begin="5360" fromJunction="J7" toJunction="J3" end="5420" vehsPerHour="9.006412307866594" departLane="free"/>
  <flow id="JF450301" begin="5360" fromJunction="J7" toJunction="J4" end="5420" vehsPerHour="43.66736891549304" departLane="free"/>
  <flow id="JF450302" begin="5360" fromJunction="J7" toJunction="J5" end="5420" vehsPerHour="40.22979928488191" departLane="free"/>
  <flow id="JF450303" begin="5360" fromJunction="J7" toJunction="J6" end="5420" vehsPerHour="107.25553696383993" departLane="free"/>
  <flow id="JF450304" begin="5420" fromJunction="J0" toJunction="J4" end="5480" vehsPerHour="134.5577501319317" departLane="free"/>
  <flow id="JF450305" begin="5420" fromJunction="J0" toJunction="J7" end="5480" vehsPerHour="141.14578229229926" departLane="free"/>
  <flow id="JF450306" begin="5420" fromJunction="J3" toJunction="J0" end="5480" vehsPerHour="460.8248056369885" departLane="free"/>
  <flow id="JF450307" begin="5420" fromJunction="J3" toJunction="J4" end="5480" vehsPerHour="492.6906318566168" departLane="free"/>
  <flow id="JF450308" begin="5420" fromJunction="J3" toJunction="J5" end="5480" vehsPerHour="209.21267028458632" departLane="free"/>
  <flow id="JF450309" begin="5420" fromJunction="J3" toJunction="J6" end="5480" vehsPerHour="494.3744393762086" departLane="free"/>
  <flow id="JF450310" begin="5420" fromJunction="J4" toJunction="J0" end="5480" vehsPerHour="185.5962084043218" departLane="free"/>
  <flow id="JF450311" begin="5420" fromJunction="J4" toJunction="J6" end="5480" vehsPerHour="1.1221213565869492" departLane="free"/>
  <flow id="JF450312" begin="5420" fromJunction="J5" toJunction="J0" end="5480" vehsPerHour="242.73358406359415" departLane="free"/>
  <flow id="JF450313" begin="5420" fromJunction="J5" toJunction="J4" end="5480" vehsPerHour="179.57856534874935" departLane="free"/>
  <flow id="JF450314" begin="5420" fromJunction="J5" toJunction="J6" end="5480" vehsPerHour="67.8947103824243" departLane="free"/>
  <flow id="JF450315" begin="5420" fromJunction="J5" toJunction="J7" end="5480" vehsPerHour="265.12094726578306" departLane="free"/>
  <flow id="JF450316" begin="5420" fromJunction="J6" toJunction="J3" end="5480" vehsPerHour="161.57623113666116" departLane="free"/>
  <flow id="JF450317" begin="5420" fromJunction="J6" toJunction="J4" end="5480" vehsPerHour="34.41461859124813" departLane="free"/>
  <flow id="JF450318" begin="5420" fromJunction="J7" toJunction="J0" end="5480" vehsPerHour="194.62918207314897" departLane="free"/>
  <flow id="JF450319" begin="5420" fromJunction="J7" toJunction="J3" end="5480" vehsPerHour="265.94485016188344" departLane="free"/>
  <flow id="JF450320" begin="5480" fromJunction="J0" toJunction="J4" end="5540" vehsPerHour="50.627316519239656" departLane="free"/>
  <flow id="JF450321" begin="5480" fromJunction="J0" toJunction="J6" end="5540" vehsPerHour="439.01751238926533" departLane="free"/>
  <flow id="JF450322" begin="5480" fromJunction="J0" toJunction="J7" end="5540" vehsPerHour="110.21694835153221" departLane="free"/>
  <flow id="JF450323" begin="5480" fromJunction="J3" toJunction="J4" end="5540" vehsPerHour="503.5870427865786" departLane="free"/>
  <flow id="JF450324" begin="5480" fromJunction="J3" toJunction="J5" end="5540" vehsPerHour="468.2362104523426" departLane="free"/>
  <flow id="JF450325" begin="5480" fromJunction="J3" toJunction="J6" end="5540" vehsPerHour="436.257209379995" departLane="free"/>
  <flow id="JF450326" begin="5480" fromJunction="J3" toJunction="J7" end="5540" vehsPerHour="189.06231509226322" departLane="free"/>
  <flow id="JF450327" begin="5480" fromJunction="J4" toJunction="J0" end="5540" vehsPerHour="163.75273143940055" departLane="free"/>
  <flow id="JF450328" begin="5480" fromJunction="J4" toJunction="J3" end="5540" vehsPerHour="256.91783737033876" departLane="free"/>
  <flow id="JF450329" begin="5480" fromJunction="J4" toJunction="J5" end="5540" vehsPerHour="136.86544265632332" departLane="free"/>
  <flow id="JF450330" begin="5480" fromJunction="J4" toJunction="J6" end="5540" vehsPerHour="34.27159754900429" departLane="free"/>
  <flow id="JF450331" begin="5480" fromJunction="J4" toJunction="J7" end="5540" vehsPerHour="182.13097176272015" departLane="free"/>
  <flow id="JF450332" begin="5480" fromJunction="J5" toJunction="J3" end="5540" vehsPerHour="42.20704676906394" departLane="free"/>
  <flow id="JF450333" begin="5480" fromJunction="J5" toJunction="J4" end="5540" vehsPerHour="261.09134611827693" departLane="free"/>
  <flow id="JF450334" begin="5480" fromJunction="J5" toJunction="J7" end="5540" vehsPerHour="146.77741602852137" departLane="free"/>
  <flow id="JF450335" begin="5480" fromJunction="J6" toJunction="J0" end="5540" vehsPerHour="17.241687554127413" departLane="free"/>
  <flow id="JF450336" begin="5480" fromJunction="J6" toJunction="J3" end="5540" vehsPerHour="207.3408860315487" departLane="free"/>
  <flow id="JF450337" begin="5480" fromJunction="J6" toJunction="J4" end="5540" vehsPerHour="261.68919014441076" departLane="free"/>
  <flow id="JF450338" begin="5480" fromJunction="J6" toJunction="J5" end="5540" vehsPerHour="122.01439511694053" departLane="free"/>
  <flow id="JF450339" begin="5480" fromJunction="J6" toJunction="J7" end="5540" vehsPerHour="78.90788274886567" departLane="free"/>
  <flow id="JF450340" begin="5480" fromJunction="J7" toJunction="J0" end="5540" vehsPerHour="7.791708248341454" departLane="free"/>
  <flow id="JF450341" begin="5480" fromJunction="J7" toJunction="J4" end="5540" vehsPerHour="223.3612255018618" departLane="free"/>
  <flow id="JF450342" begin="5540" fromJunction="J0" toJunction="J3" end="5600" vehsPerHour="158.76552724133523" departLane="free"/>
  <flow id="JF450343" begin="5540" fromJunction="J0" toJunction="J4" end="5600" vehsPerHour="118.97654629464863" departLane="free"/>
  <flow id="JF450344" begin="5540" fromJunction="J0" toJunction="J5" end="5600" vehsPerHour="352.22650352410005" departLane="free"/>
  <flow id="JF450345" begin="5540" fromJunction="J0" toJunction="J6" end="5600" vehsPerHour="168.93928018697423" departLane="free"/>
  <flow id="JF450346" begin="5540" fromJunction="J3" toJunction="J0" end="5600" vehsPerHour="328.2888417216331" departLane="free"/>
  <flow id="JF450347" begin="5540" fromJunction="J3" toJunction="J4" end="5600" vehsPerHour="56.5525669356262" departLane="free"/>
  <flow id="JF450348" begin="5540" fromJunction="J3" toJunction="J5" end="5600" vehsPerHour="274.0435323603952" departLane="free"/>
  <flow id="JF450349" begin="5540" fromJunction="J3" toJunction="J6" end="5600" vehsPerHour="244.13688455972448" departLane="free"/>
  <flow id="JF450350" begin="5540" fromJunction="J4" toJunction="J0" end="5600" vehsPerHour="47.3662128134221" departLane="free"/>
  <flow id="JF450351" begin="5540" fromJunction="J4" toJunction="J3" end="5600" vehsPerHour="50.75607760392445" departLane="free"/>
  <flow id="JF450352" begin="5540" fromJunction="J4" toJunction="J5" end="5600" vehsPerHour="192.3769688173923" departLane="free"/>
  <flow id="JF450353" begin="5540" fromJunction="J4" toJunction="J6" end="5600" vehsPerHour="55.15013481057626" departLane="free"/>
  <flow id="JF450354" begin="5540" fromJunction="J4" toJunction="J7" end="5600" vehsPerHour="47.555877207515294" departLane="free"/>
  <flow id="JF450355" begin="5540" fromJunction="J5" toJunction="J3" end="5600" vehsPerHour="63.66815734136285" departLane="free"/>
  <flow id="JF450356" begin="5540" fromJunction="J5" toJunction="J4" end="5600" vehsPerHour="204.01392858358747" departLane="free"/>
  <flow id="JF450357" begin="5540" fromJunction="J5" toJunction="J6" end="5600" vehsPerHour="258.9249775225214" departLane="free"/>
  <flow id="JF450358" begin="5540" fromJunction="J5" toJunction="J7" end="5600" vehsPerHour="214.22219091384304" departLane="free"/>
  <flow id="JF450359" begin="5540" fromJunction="J6" toJunction="J0" end="5600" vehsPerHour="128.44549029921114" departLane="free"/>
  <flow id="JF450360" begin="5540" fromJunction="J6" toJunction="J4" end="5600" vehsPerHour="112.58300345046464" departLane="free"/>
  <flow id="JF450361" begin="5540" fromJunction="J6" toJunction="J7" end="5600" vehsPerHour="19.336407086793397" departLane="free"/>
  <flow id="JF450362" begin="5540" fromJunction="J7" toJunction="J0" end="5600" vehsPerHour="105.32922971116002" departLane="free"/>