<?xml version="1.0" encoding="UTF-8"?>
<routes xmlns:xsi="http://www.w3.org/2001/XMLSchema-instance" xsi:noNamespaceSchemaLocation="http://sumo.dlr.de/xsd/routes_file.xsd">
  <flow id="JF444840" begin="0" fromJunction="J3" toJunction="J0" end="5000" vehsPerHour="1303.6474564919522" departLane="free"/>
  <flow id="JF444841" begin="0" fromJunction="J0" toJunction="J3" end="5000" vehsPerHour="247.53079923816333" departLane="free"/>
  <flow id="JF444842" begin="0" fromJunction="J3" toJunction="J6" end="5000" vehsPerHour="155.8202960957723" departLane="free"/>
  <flow id="JF444843" begin="0" fromJunction="J3" toJunction="J7" end="5000" vehsPerHour="463.31767793412354" departLane="free"/>
  <flow id="JF444844" begin="0" fromJunction="J3" toJunction="J4" end="5000" vehsPerHour="38.046954521987054" departLane="free"/>
  <flow id="JF444845" begin="0" fromJunction="J3" toJunction="J5" end="5000" vehsPerHour="512.2370304067317" departLane="free"/>
  <flow id="JF444846" begin="0" fromJunction="J0" toJunction="J6" end="5000" vehsPerHour="286.8973976225061" departLane="free"/>
  <flow id="JF444847" begin="0" fromJunction="J0" toJunction="J7" end="5000" vehsPerHour="278.7240463747642" departLane="free"/>
  <flow id="JF444848" begin="0" fromJunction="J0" toJunction="J4" end="5000" vehsPerHour="513.532906903533" departLane="free"/>
  <flow id="JF444849" begin="0" fromJunction="J0" toJunction="J5" end="5000" vehsPerHour="233.74502608165827" departLane="free"/>
  <flow id="JF444850" begin="0" fromJunction="J6" toJunction="J7" end="5000" vehsPerHour="200.4942261623216" departLane="free"/>
  <flow id="JF444851" begin="0" fromJunction="J6" toJunction="J4" end="5000" vehsPerHour="261.2026558497849" departLane="free"/>
  <flow id="JF444852" begin="0" fromJunction="J6" toJunction="J5" end="5000" vehsPerHour="233.8900599427547" departLane="free"/>
  <flow id="JF444853" begin="0" fromJunction="J7" toJunction="J6" end="5000" vehsPerHour="206.61284696792146" departLane="free"/>
  <flow id="JF444854" begin="0" fromJunction="J7" toJunction="J4" end="5000" vehsPerHour="220.36499710071865" departLane="free"/>
  <flow id="JF444855" begin="0" fromJunction="J7" toJunction="J5" end="5000" vehsPerHour="52.74375471588835" departLane="free"/>
  <flow id="JF444856" begin="0" fromJunction="J4" toJunction="J6" end="5000" vehsPerHour="140.77934484688524" departLane="free"/>
  <flow id="JF444857" begin="0" fromJunction="J4" toJunction="J7" end="5000" vehsPerHour="208.10528150806417" departLane="free"/>
  <flow id="JF444858" begin="0" fromJunction="J4" toJunction="J5" end="5000" vehsPerHour="261.1563626246295" departLane="free"/>
  <flow id="JF444859" begin="0" fromJunction="J5" toJunction="J6" end="5000" vehsPerHour="65.99813586987412" departLane="free"/>
  <flow id="JF444860" begin="0" fromJunction="J5" toJunction="J7" end="5000" vehsPerHour="18.73954652205675" departLane="free"/>
  <flow id="JF444861" begin="0" fromJunction="J5" toJunction="J4" end="5000" vehsPerHour="134.04267968655736" departLane="free"/>
  <flow id="JF444862" begin="0" fromJunction="J6" toJunction="J3" end="5000" vehsPerHour="131.39624071296052" departLane="free"/>
  <flow id="JF444863" begin="0" fromJunction="J6" toJunction="J0" end="5000" vehsPerHour="25.73875159749757" departLane="free"/>
  <flow id="JF444864" begin="0" fromJunction="J7" toJunction="J3" end="5000" vehsPerHour="58.797650494772384" departLane="free"/>
  <flow id="JF444865" begin="0" fromJunction="J7" toJunction="J0" end="5000" vehsPerHour="18.41239986365029" departLane="free"/>
  <flow id="JF444866" begin="0" fromJunction="J4" toJunction="J3" end="5000" vehsPerHour="168.4611975155027" departLane="free"/>
  <flow id="JF444867" begin="0" fromJunction="J4" toJunction="J0" end="5000" vehsPerHour="146.81674464447087" departLane="free"/>
  <flow id="JF444868" begin="0" fromJunction="J5" toJunction="J3" end="5000" vehsPerHour="126.82854421036073" departLane="free"/>
  <flow id="JF444869" begin="0" fromJunction="J5" toJunction="J0" end="5000" vehsPerHour="241.5075425294357" departLane="free"/>
  <flow id="JF444870" begin="5000" fromJunction="J0" toJunction="J4" end="5060" vehsPerHour="202.04804175900742" departLane="free"/>
  <flow id="JF444871" begin="5000" fromJunction="J0" toJunction="J6" end="5060" vehsPerHour="83.4318125832115" departLane="free"/>
  <flow id="JF444872" begin="5000" fromJunction="J3" toJunction="J4" end="5060" vehsPerHour="22.729234080107474" departLane="free"/>
  <flow id="JF444873" begin="5000" fromJunction="J3" toJunction="J6" end="5060" vehsPerHour="462.8687966783235" departLane="free"/>
  <flow id="JF444874" begin="5000" fromJunction="J4" toJunction="J3" end="5060" vehsPerHour="12.104264397660902" departLane="free"/>
  <flow id="JF444875" begin="5000" fromJunction="J4" toJunction="J5" end="5060" vehsPerHour="98.94153005901279" departLane="free"/>
  <flow id="JF444876" begin="5000" fromJunction="J4" toJunction="J6" end="5060" vehsPerHour="272.92405362851423" departLane="free"/>
  <flow id="JF444877" begin="5000" fromJunction="J5" toJunction="J0" end="5060" vehsPerHour="39.977980025187435" departLane="free"/>
  <flow id="JF444878" begin="5000" fromJunction="J5" toJunction="J3" end="5060" vehsPerHour="10.252250351767511" departLane="free"/>
  <flow id="JF444879" begin="5000" fromJunction="J5" toJunction="J4" end="5060" vehsPerHour="93.35210124799274" departLane="free"/>
  <flow id="JF444880" begin="5000" fromJunction="J5" toJunction="J7" end="5060" vehsPerHour="202.04203113826907" departLane="free"/>
  <flow id="JF444881" begin="5000" fromJunction="J6" toJunction="J0" end="5060" vehsPerHour="87.05770004727043" departLane="free"/>
  <flow id="JF444882" begin="5000" fromJunction="J6" toJunction="J3" end="5060" vehsPerHour="25.107636872015465" departLane="free"/>
  <flow id="JF444883" begin="5000" fromJunction="J6" toJunction="J5" end="5060" vehsPerHour="207.47635122760542" departLane="free"/>
  <flow id="JF444884" begin="5000" fromJunction="J6" toJunction="J7" end="5060" vehsPerHour="9.67072515324458" departLane="free"/>
  <flow id="JF444885" begin="5000" fromJunction="J7" toJunction="J3" end="5060" vehsPerHour="59.69298361930668" departLane="free"/>
  <flow id="JF444886" begin="5000" fromJunction="J7" toJunction="J4" end="5060" vehsPerHour="196.57273341280316" departLane="free"/>
  <flow id="JF444887" begin="5000" fromJunction="J7" toJunction="J5" end="5060" vehsPerHour="243.91878747487712" departLane="free"/>
  <flow id="JF444888" begin="5060" fromJunction="J0" toJunction="J4" end="5120" vehsPerHour="546.3955887164091" departLane="free"/>
  <flow id="JF444889" begin="5060" fromJunction="J0" toJunction="J5" end="5120" vehsPerHour="526.4879270656756" departLane="free"/>
  <flow id="JF444890" begin="5060" fromJunction="J0" toJunction="J6" end="5120" vehsPerHour="534.3639218154502" departLane="free"/>
  <flow id="JF444891" begin="5060" fromJunction="J0" toJunction="J7" end="5120" vehsPerHour="539.4980998763417" departLane="free"/>
  <flow id="JF444892" begin="5060" fromJunction="J3" toJunction="J0" end="5120" vehsPerHour="205.53703257183196" departLane="free"/>
  <flow id="JF444893" begin="5060" fromJunction="J3" toJunction="J4" end="5120" vehsPerHour="270.705063382765" departLane="free"/>
  <flow id="JF444894" begin="5060" fromJunction="J3" toJunction="J5" end="5120" vehsPerHour="277.6079438294044" departLane="free"/>
  <flow id="JF444895" begin="5060" fromJunction="J3" toJunction="J6" end="5120" vehsPerHour="468.06311313261966" departLane="free"/>
  <flow id="JF444896" begin="5060" fromJunction="J3" toJunction="J7" end="5120" vehsPerHour="436.35455726070677" departLane="free"/>
  <flow id="JF444897" begin="5060" fromJunction="J4" toJunction="J0" end="5120" vehsPerHour="88.67605085496538" departLane="free"/>
  <flow id="JF444898" begin="5060" fromJunction="J4" toJunction="J3" end="5120" vehsPerHour="59.607183449070725" departLane="free"/>
  <flow id="JF444899" begin="5060" fromJunction="J4" toJunction="J7" end="5120" vehsPerHour="222.47960139555806" departLane="free"/>
  <flow id="JF444900" begin="5060" fromJunction="J5" toJunction="J0" end="5120" vehsPerHour="139.59186530506568" departLane="free"/>
  <flow id="JF444901" begin="5060" fromJunction="J5" toJunction="J4" end="5120" vehsPerHour="38.20928492835154" departLane="free"/>
  <flow id="JF444902" begin="5060" fromJunction="J5" toJunction="J6" end="5120" vehsPerHour="20.564804468097385" departLane="free"/>
  <flow id="JF444903" begin="5060" fromJunction="J5" toJunction="J7" end="5120" vehsPerHour="186.38669794080636" departLane="free"/>
  <flow id="JF444904" begin="5060" fromJunction="J6" toJunction="J4" end="5120" vehsPerHour="266.09593166416806" departLane="free"/>
  <flow id="JF444905" begin="5060" fromJunction="J6" toJunction="J5" end="5120" vehsPerHour="223.20486795445964" departLane="free"/>
  <flow id="JF444906" begin="5060" fromJunction="J6" toJunction="J7" end="5120" vehsPerHour="211.80645458866914" departLane="free"/>
  <flow id="JF444907" begin="5060" fromJunction="J7" toJunction="J0" end="5120" vehsPerHour="124.25894379373634" departLane="free"/>
  <flow id="JF444908" begin="5060" fromJunction="J7" toJunction="J3" end="5120" vehsPerHour="171.68379922666062" departLane="free"/>
  <flow id="JF444909" begin="5060" fromJunction="J7" toJunction="J4" end="5120" vehsPerHour="68.62294566002264" departLane="free"/>
  <flow id="JF444910" begin="5060" fromJunction="J7" toJunction="J5" end="5120" vehsPerHour="162.55905412244383" departLane="free"/>
  <flow id="JF444911" begin="5060" fromJunction="J7" toJunction="J6" end="5120" vehsPerHour="156.49425230503763" departLane="free"/>
  <flow id="JF444912" begin="5120" fromJunction="J0" toJunction="J4" end="5180" vehsPerHour="162.61532319910825" departLane="free"/>
  <flow id="JF444913" begin="5120" fromJunction="J0" toJunction="J5" end="5180" vehsPerHour="18.487293099628445" departLane="free"/>
  <flow id="JF444914" begin="5120" fromJunction="J0" toJunction="J6" end="5180" vehsPerHour="145.33938636110122" departLane="free"/>
  <flow id="JF444915" begin="5120" fromJunction="J0" toJunction="J7" end="5180" vehsPerHour="22.87268591858906" departLane="free"/>
  <flow id="JF444916" begin="5120" fromJunction="J3" toJunction="J4" end="5180" vehsPerHour="181.67226809064275" departLane="free"/>
  <flow id="JF444917" begin="5120" fromJunction="J3" toJunction="J6" end="5180" vehsPerHour="164.0818606699668" departLane="free"/>
  <flow id="JF444918" begin="5120" fromJunction="J3" toJunction="J7" end="5180" vehsPerHour="59.23059001733193" departLane="free"/>
  <flow id="JF444919" begin="5120" fromJunction="J4" toJunction="J0" end="5180" vehsPerHour="52.462242006458645" departLane="free"/>
  <flow id="JF444920" begin="5120" fromJunction="J4" toJunction="J5" end="5180" vehsPerHour="196.7165002770011" departLane="free"/>
  <flow id="JF444921" begin="5120" fromJunction="J4" toJunction="J7" end="5180" vehsPerHour="4.302476964222737" departLane="free"/>
  <flow id="JF444922" begin="5120" fromJunction="J5" toJunction="J0" end="5180" vehsPerHour="103.06013718984853" departLane="free"/>
  <flow id="JF444923" begin="5120" fromJunction="J5" toJunction="J3" end="5180" vehsPerHour="138.0485876265914" departLane="free"/>
  <flow id="JF444924" begin="5120" fromJunction="J5" toJunction="J4" end="5180" vehsPerHour="242.05688602855227" departLane="free"/>
  <flow id="JF444925" begin="5120" fromJunction="J5" toJunction="J7" end="5180" vehsPerHour="112.87311704141524" departLane="free"/>
  <flow id="JF444926" begin="5120" fromJunction="J6" toJunction="J0" end="5180" vehsPerHour="260.95825302354774" departLane="free"/>
  <flow id="JF444927" begin="5120" fromJunction="J6" toJunction="J3" end="5180" vehsPerHour="248.79265528404665" departLane="free"/>
  <flow id="JF444928" begin="5120" fromJunction="J6" toJunction="J5" end="5180" vehsPerHour="153.54350186398645" departLane="free"/>
  <flow id="JF444929" begin="5120" fromJunction="J7" toJunction="J0" end="5180" vehsPerHour="107.64353686131868" departLane="free"/>
  <flow id="JF444930" begin="5120" fromJunction="J7" toJunction="J3" end="5180" vehsPerHour="157.82301302742127" departLane="free"/>
  <flow id="JF444931" begin="5120" fromJunction="J7" toJunction="J4" end="5180" vehsPerHour="118.40900522349688" departLane="free"/>
  <flow id="JF444932" begin="5180" fromJunction="J0" toJunction="J3" end="5240" vehsPerHour="173.4744704197458" departLane="free"/>
  <flow id="JF444933" begin="5180" fromJunction="J0" toJunction="J4" end="5240" vehsPerHour="305.32645358352613" departLane="free"/>
  <flow id="JF444934" begin="5180" fromJunction="J0" toJunction="J5" end="5240" vehsPerHour="74.26515356958335" departLane="free"/>
  <flow id="JF444935" begin="5180" fromJunction="J0" toJunction="J7" end="5240" vehsPerHour="18.859351371998123" departLane="free"/>
  <flow id="JF444936" begin="5180" fromJunction="J3" toJunction="J0" end="5240" vehsPerHour="546.0901878481586" departLane="free"/>
  <flow id="JF444937" begin="5180" fromJunction="J3" toJunction="J4" end="5240" vehsPerHour="88.8830650017044" departLane="free"/>
  <flow id="JF444938" begin="5180" fromJunction="J3" toJunction="J5" end="5240" vehsPerHour="125.83613174342975" departLane="free"/>
  <flow id="JF444939" begin="5180" fromJunction="J3" toJunction="J6" end="5240" vehsPerHour="512.4765669216521" departLane="free"/>
  <flow id="JF444940" begin="5180" fromJunction="J4" toJunction="J3" end="5240" vehsPerHour="232.1288121379106" departLane="free"/>
  <flow id="JF444941" begin="5180" fromJunction="J4" toJunction="J5" end="5240" vehsPerHour="15.51613244743824" departLane="free"/>
  <flow id="JF444942" begin="5180" fromJunction="J4" toJunction="J6" end="5240" vehsPerHour="59.292660928360135" departLane="free"/>
  <flow id="JF444943" begin="5180" fromJunction="J5" toJunction="J0" end="5240" vehsPerHour="200.7549782919458" departLane="free"/>
  <flow id="JF444944" begin="5180" fromJunction="J5" toJunction="J3" end="5240" vehsPerHour="15.407371056298262" departLane="free"/>
  <flow id="JF444945" begin="5180" fromJunction="J6" toJunction="J4" end="5240" vehsPerHour="257.5734980266771" departLane="free"/>
  <flow id="JF444946" begin="5180" fromJunction="J6" toJunction="J5" end="5240" vehsPerHour="241.25837761500057" departLane="free"/>
  <flow id="JF444947" begin="5180" fromJunction="J7" toJunction="J0" end="5240" vehsPerHour="238.51619778369508" departLane="free"/>
  <flow id="JF444948" begin="5180" fromJunction="J7" toJunction="J4" end="5240" vehsPerHour="210.6545283477414" departLane="free"/>
  <flow id="JF444949" begin="5180" fromJunction="J7" toJunction="J5" end="5240" vehsPerHour="127.93975643755806" departLane="free"/>
  <flow id="JF444950" begin="5180" fromJunction="J7" toJunction="J6" end="5240" vehsPerHour="54.25608159514219" departLane="free"/>
  <flow id="JF444951" begin="5240" fromJunction="J0" toJunction="J3" end="5300" vehsPerHour="10.347121799080824" departLane="free"/>
  <flow id="JF444952" begin="5240" fromJunction="J0" toJunction="J4" end="5300" vehsPerHour="209.05799020500066" departLane="free"/>
  <flow id="JF444953" begin="5240" fromJunction="J0" toJunction="J6" end="5300" vehsPerHour="116.14903684820963" departLane="free"/>
  <flow id="JF444954" begin="5240" fromJunction="J0" toJunction="J7" end="5300" vehsPerHour="197.2180999053364" departLane="free"/>
  <flow id="JF444955" begin="5240" fromJunction="J3" toJunction="J0" end="5300" vehsPerHour="144.62514833166728" departLane="free"/>
  <flow id="JF444956" begin="5240" fromJunction="J3" toJunction="J5" end="5300" vehsPerHour="83.4888431102704" departLane="free"/>
  <flow id="JF444957" begin="5240" fromJunction="J3" toJunction="J6" end="5300" vehsPerHour="83.75047722772617" departLane="free"/>
  <flow id="JF444958" begin="5240" fromJunction="J3" toJunction="J7" end="5300" vehsPerHour="142.50178030595512" departLane="free"/>
  <flow id="JF444959" begin="5240" fromJunction="J4" toJunction="J0" end="5300" vehsPerHour="62.211907412660814" departLane="free"/>
  <flow id="JF444960" begin="5240" fromJunction="J4" toJunction="J3" end="5300" vehsPerHour="264.57847233151944" departLane="free"/>
  <flow id="JF444961" begin="5240" fromJunction="J4" toJunction="J5" end="5300" vehsPerHour="252.91198244865825" departLane="free"/>
  <flow id="JF444962" begin="5240" fromJunction="J4" toJunction="J7" end="5300" vehsPerHour="108.72954105504203" departLane="free"/>
  <flow id="JF444963" begin="5240" fromJunction="J5" toJunction="J0" end="5300" vehsPerHour="259.3424255656345" departLane="free"/>
  <flow id="JF444964" begin="5240" fromJunction="J5" toJunction="J3" end="5300" vehsPerHour="141.37756226098142" departLane="free"/>
  <flow id="JF444965" begin="5240" fromJunction="J5" toJunction="J4" end="5300" vehsPerHour="14.414578986013359" departLane="free"/>
  <flow id="JF444966" begin="5240" fromJunction="J5" toJunction="J6" end="5300" vehsPerHour="85.51059949731408" departLane="free"/>
  <flow id="JF444967" begin="5240" fromJunction="J5" toJunction="J7" end="5300" vehsPerHour="3.4879420675960033" departLane="free"/>
  <flow id="JF444968" begin="5240" fromJunction="J6" toJunction="J0" end="5300" vehsPerHour="178.84586564953875" departLane="free"/>
  <flow id="JF444969" begin="5240" fromJunction="J6" toJunction="J3" end="5300" vehsPerHour="241.81499141389924" departLane="free"/>
  <flow id="JF444970" begin="5240" fromJunction="J6" toJunction="J7" end="5300" vehsPerHour="257.14692848792987" departLane="free"/>
  <flow id="JF444971" begin="5240" fromJunction="J7" toJunction="J0" end="5300" vehsPerHour="144.46575458696506" departLane="free"/>
  <flow id="JF444972" begin="5240" fromJunction="J7" toJunction="J5" end="5300" vehsPerHour="190.30659474020646" departLane="free"/>
  <flow id="JF444973" begin="5240" fromJunction="J7" toJunction="J6" end="5300" vehsPerHour="221.0184717579827" departLane="free"/>
  <flow id="JF444974" begin="5300" fromJunction="J0" toJunction="J3" end="5360" vehsPerHour="70.04181744865727" departLane="free"/>
  <flow id="JF444975" begin="5300" fromJunction="J0" toJunction="J4" end="5360" vehsPerHour="387.10806781674864" departLane="free"/>
  <flow id="JF444976" begin="5300" fromJunction="J0" toJunction="J5" end="5360" vehsPerHour="462.3339057526338" departLane="free"/>
  <flow id="JF444977" begin="5300" fromJunction="J0" toJunction="J6" end="5360" vehsPerHour="464.92037913183935" departLane="free"/>
  <flow id="JF444978" begin="5300" fromJunction="J0" toJunction="J7" end="5360" vehsPerHour="516.4978158188314" departLane="free"/>
  <flow id="JF444979" begin="5300" fromJunction="J3" toJunction="J4" end="5360" vehsPerHour="161.84317574648614" departLane="free"/>
  <flow id="JF444980" begin="5300" fromJunction="J3" toJunction="J5" end="5360" vehsPerHour="495.24848649351486" departLane="free"/>
  <flow id="JF444981" begin="5300" fromJunction="J3" toJunction="J6" end="5360" vehsPerHour="218.89758894919296" departLane="free"/>
  <flow id="JF444982" begin="5300" fromJunction="J3" toJunction="J7" end="5360" vehsPerHour="202.17192754314755" departLane="free"/>
  <flow id="JF444983" begin="5300" fromJunction="J4" toJunction="J0" end="5360" vehsPerHour="107.81925735562099" departLane="free"/>
  <flow id="JF444984" begin="5300" fromJunction="J4" toJunction="J3" end="5360" vehsPerHour="53.83207569345989" departLane="free"/>
  <flow id="JF444985" begin="5300" fromJunction="J4" toJunction="J5" end="5360" vehsPerHour="125.50457404435205" departLane="free"/>
  <flow id="JF444986" begin="5300" fromJunction="J4" toJunction="J7" end="5360" vehsPerHour="152.84355392373757" departLane="free"/>
  <flow id="JF444987" begin="5300" fromJunction="J5" toJunction="J0" end="5360" vehsPerHour="267.8998158131275" departLane="free"/>
  <flow id="JF444988" begin="5300" fromJunction="J5" toJunction="J7" end="5360" vehsPerHour="151.3106001262554" departLane="free"/>
  <flow id="JF444989" begin="5300" fromJunction="J6" toJunction="J3" end="5360" vehsPerHour="76.17791327687337" departLane="free"/>
  <flow id="JF444990" begin="5300" fromJunction="J6" toJunction="J4" end="5360" vehsPerHour="80.20335525552899" departLane="free"/>
  <flow id="JF444991" begin="5300" fromJunction="J6" toJunction="J5" end="5360" vehsPerHour="6.243305984168256" departLane="free"/>
  <flow id="JF444992" begin="5300" fromJunction="J6" toJunction="J7" end="5360" vehsPerHour="177.35708395857998" departLane="free"/>
  <flow id="JF444993" begin="5300" fromJunction="J7" toJunction="J0" end="5360" vehsPerHour="161.7103961003767" departLane="free"/>
  <flow id="JF444994" begin="5300" fromJunction="J7" toJunction="J3" end="5360" vehsPerHour="141.5488848529895" departLane="free"/>
  <flow id="JF444995" begin="5300" fromJunction="J7" toJunction="J4" end="5360" vehsPerHour="9.028386288423325" departLane="free"/>
  <flow id="JF444996" begin="5300" fromJunction="J7" toJunction="J5" end="5360" vehsPerHour="215.47560443538922" departLane="free"/>
  <flow id="JF444997" begin="5300" fromJunction="J7" toJunction="J6" end="5360" vehsPerHour="130.12754149975893" departLane="free"/>
  <flow id="JF444998" begin="5360" fromJunction="J0" toJunction="J3" end="5420" vehsPerHour="478.25975530817755" departLane="free"/>
  <flow id="JF444999" begin="5360" fromJunction="J0" toJunction="J4" end="5420" vehsPerHour="249.68450477608147" departLane="free"/>
  <flow id="JF445000" begin="5360" fromJunction="J0" toJunction="J5" end="5420" vehsPerHour="463.4006277608543" departLane="free"/>
  <flow id="JF445001" begin="5360" fromJunction="J0" toJunction="J6" end="5420" vehsPerHour="388.5664836668555" departLane="free"/>
  <flow id="JF445002" begin="5360" fromJunction="J0" toJunction="J7" end="5420" vehsPerHour="106.03567190040724" departLane="free"/>
  <flow id="JF445003" begin="5360" fromJunction="J3" toJunction="J0" end="5420" vehsPerHour="390.162302582159" departLane="free"/>
  <flow id="JF445004" begin="5360" fromJunction="J3" toJunction="J4" end="5420" vehsPerHour="150.85984021152612" departLane="free"/>
  <flow id="JF445005" begin="5360" fromJunction="J3" toJunction="J6" end="5420" vehsPerHour="143.5756797302573" departLane="free"/>
  <flow id="JF445006" begin="5360" fromJunction="J3" toJunction="J7" end="5420" vehsPerHour="335.338565168364" departLane="free"/>
  <flow id="JF445007" begin="5360" fromJunction="J4" toJunction="J0" end="5420" vehsPerHour="238.41128285727288" departLane="free"/>
  <flow id="JF445008" begin="5360" fromJunction="J4" toJunction="J3" end="5420" vehsPerHour="44.61447879646447" departLane="free"/>
  <flow id="JF445009" begin="5360" fromJunction="J4" toJunction="J6" end="5420" vehsPerHour="138.3650602944608" departLane="free"/>
  <flow id="JF445010" begin="5360" fromJunction="J5" toJunction="J0" end="5420" vehsPerHour="255.5149338952074" departLane="free"/>
  <flow id="JF445011" begin="5360" fromJunction="J5" toJunction="J3" end="5420" vehsPerHour="247.83433001923783" departLane="free"/>
  <flow id="JF445012" begin="5360" fromJunction="J5" toJunction="J6" end="5420" vehsPerHour="114.77349349520671" departLane="free"/>
  <flow id="JF445013" begin="5360" fromJunction="J5" toJunction="J7" end="5420" vehsPerHour="87.76159400387651" departLane="free"/>
  <flow id="JF445014" begin="5360" fromJunction="J6" toJunction="J0" end="5420" vehsPerHour="105.54210246518184" departLane="free"/>
  <flow id="JF445015" begin="5360" fromJunction="J6" toJunction="J4" end="5420" vehsPerHour="68.91030316811073" departLane="free"/>
  <flow id="JF445016" begin="5360" fromJunction="J6" toJunction="J5" end="5420" vehsPerHour="179.25633419552463" departLane="free"/>
  <flow id="JF445017" begin="5360" fromJunction="J6" toJunction="J7" end="5420" vehsPerHour="230.05699928159586" departLane="free"/>
  <flow id="JF445018" begin="5360" fromJunction="J7" toJunction="J0" end="5420" vehsPerHour="232.91614302666298" departLane="free"/>
  <flow id="JF445019" begin="5360" fromJunction="J7" toJunction="J3" end="5420" vehsPerHour="114.67144214180065" departLane="free"/>
  <flow id="JF445020" begin="5360" fromJunction="J7" toJunction="J5" end="5420" vehsPerHour="106.96868296697342" departLane="free"/>
  <flow id="JF445021" begin="5360" fromJunction="J7" toJunction="J6" end="5420" vehsPerHour="126.42964487026312" departLane="free"/>
  <flow id="JF445022" begin="5420" fromJunction="J0" toJunction="J3" end="5480" vehsPerHour="285.48563864046514" departLane="free"/>
  <flow id="JF445023" begin="5420" fromJunction="J0" toJunction="J4" end="5480" vehsPerHour="73.9044756075451" departLane="free"/>
  <flow id="JF445024" begin="5420" fromJunction="J0" toJunction="J5" end="5480" vehsPerHour="452.22212297520514" departLane="free"/>
  <flow id="JF445025" begin="5420" fromJunction="J0" toJunction="J6" end="5480" vehsPerHour="329.3655110839877" departLane="free"/>
  <flow id="JF445026" begin="5420" fromJunction="J3" toJunction="J0" end="5480" vehsPerHour="444.53199121790067" departLane="free"/>
  <flow id="JF445027" begin="5420" fromJunction="J3" toJunction="J5" end="5480" vehsPerHour="480.6632963712408" departLane="free"/>
  <flow id="JF445028" begin="5420" fromJunction="J3" toJunction="J6" end="5480" vehsPerHour="530.9768014851644" departLane="free"/>
  <flow id="JF445029" begin="5420" fromJunction="J3" toJunction="J7" end="5480" vehsPerHour="8.135011296537051" departLane="free"/>
  <flow id="JF445030" begin="5420" fromJunction="J4" toJunction="J0" end="5480" vehsPerHour="62.09695815382479" departLane="free"/>
  <flow id="JF445031" begin="5420" fromJunction="J4" toJunction="J3" end="5480" vehsPerHour="17.07905384652453" departLane="free"/>
  <flow id="JF445032" begin="5420" fromJunction="J4" toJunction="J6" end="5480" vehsPerHour="245.14816551599606" departLane="free"/>
  <flow id="JF445033" begin="5420" fromJunction="J4" toJunction="J7" end="5480" vehsPerHour="19.620588045530376" departLane="free"/>
  <flow id="JF445034" begin="5420" fromJunction="J5" toJunction="J3" end="5480" vehsPerHour="120.04327272506545" departLane="free"/>
  <flow id="JF445035" begin="5420" fromJunction="J5" toJunction="J4" end="5480" vehsPerHour="36.130562834855816" departLane="free"/>
  <flow id="JF445036" begin="5420" fromJunction="J5" toJunction="J6" end="5480" vehsPerHour="175.77193094507228" departLane="free"/>
  <flow id="JF445037" begin="5420" fromJunction="J6" toJunction="J0" end="5480" vehsPerHour="233.1481558628789" departLane="free"/>
  <flow id="JF445038" begin="5420" fromJunction="J6" toJunction="J3" end="5480" vehsPerHour="165.4023769652109" departLane="free"/>
  <flow id="JF445039" begin="5420" fromJunction="J6" toJunction="J4" end="5480" vehsPerHour="13.236841437739917" departLane="free"/>
  <flow id="JF445040" begin="5420" fromJunction="J6" toJunction="J5" end="5480" vehsPerHour="86.41831856782242" departLane="free"/>
  <flow id="JF445041" begin="5420" fromJunction="J6" toJunction="J7" end="5480" vehsPerHour="38.9575735974195" departLane="free"/>
  <flow id="JF445042" begin="5420" fromJunction="J7" toJunction="J0" end="5480" vehsPerHour="196.005814072826" departLane="free"/>
  <flow id="JF445043" begin="5420" fromJunction="J7" toJunction="J3" end="5480" vehsPerHour="126.49920995988694" departLane="free"/>
  <flow id="JF445044" begin="5420" fromJunction="J7" toJunction="J4" end="5480" vehsPerHour="118.94811799999238" departLane="free"/>
  <flow id="JF445045" begin="5420" fromJunction="J7" toJunction="J5" end="5480" vehsPerHour="47.41780807347867" departLane="free"/>
  <flow id="JF445046" begin="5420" fromJunction="J7" toJunction="J6" end="5480" vehsPerHour="124.65150947651345" departLane="free"/>
  <flow id="JF445047" begin="5480" fromJunction="J0" toJunction="J4" end="5540" vehsPerHour="479.4431858002545" departLane="free"/>
  <flow id="JF445048" begin="5480" fromJunction="J3" toJunction="J0" end="5540" vehsPerHour="490.61391697786814" departLane="free"/>
  <flow id="JF445049" begin="5480" fromJunction="J3" toJunction="J5" end="5540" vehsPerHour="520.4489578644396" departLane="free"/>
  <flow id="JF445050" begin="5480" fromJunction="J4" toJunction="J3" end="5540" vehsPerHour="186.2850178336124" departLane="free"/>
  <flow id="JF445051" begin="5480" fromJunction="J4" toJunction="J5" end="5540" vehsPerHour="63.16903708600304" departLane="free"/>
  <flow id="JF445052" begin="5480" fromJunction="J4" toJunction="J6" end="5540" vehsPerHour="187.02851633827567" departLane="free"/>
  <flow id="JF445053" begin="5480" fromJunction="J4" toJunction="J7" end="5540" vehsPerHour="21.75854402552136" departLane="free"/>
  <flow id="JF445054" begin="5480" fromJunction="J5" toJunction="J0" end="5540" vehsPerHour="231.25666434817975" departLane="free"/>
  <flow id="JF445055" begin="5480" fromJunction="J5" toJunction="J3" end="5540" vehsPerHour="147.51837387530205" departLane="free"/>
  <flow id="JF445056" begin="5480" fromJunction="J5" toJunction="J7" end="5540" vehsPerHour="121.98822118767727" departLane="free"/>
  <flow id="JF445057" begin="5480" fromJunction="J6" toJunction="J0" end="5540" vehsPerHour="9.564736188321776" departLane="free"/>
  <flow id="JF445058" begin="5480" fromJunction="J6" toJunction="J4" end="5540" vehsPerHour="144.08009654857858" departLane="free"/>
  <flow id="JF445059" begin="5480" fromJunction="J6" toJunction="J5" end="5540" vehsPerHour="267.94446026388937" departLane="free"/>
  <flow id="JF445060" begin="5480" fromJunction="J7" toJunction="J0" end="5540" vehsPerHour="184.9399017428843" departLane="free"/>
  <flow id="JF445061" begin="5540" fromJunction="J0" toJunction="J3" end="5600" vehsPerHour="32.548104267371905" departLane="free"/>
  <flow id="JF445062" begin="5540" fromJunction="J0" toJunction="J5" end="5600" vehsPerHour="475.87282272202" departLane="free"/>
  <flow id="JF445063" begin="5540" fromJunction="J0" toJunction="J7" end="5600" vehsPerHour="140.0522690714742" departLane="free"/>
  <flow id="JF445064" begin="5540" fromJunction="J3" toJunction="J0" end="5600" vehsPerHour="113.1107275001318" departLane="free"/>