<?xml version="1.0" encoding="UTF-8"?>
<routes xmlns:xsi="http://www.w3.org/2001/XMLSchema-instance" xsi:noNamespaceSchemaLocation="http://sumo.dlr.de/xsd/routes_file.xsd">
  <flow id="JF444780" begin="0" fromJunction="J3" toJunction="J0" end="10000" vehsPerHour="1000.9229489798792" departLane="free"/>
  <flow id="JF444781" begin="0" fromJunction="J0" toJunction="J3" end="10000" vehsPerHour="101.15232987471343" departLane="free"/>
  <flow id="JF444782" begin="0" fromJunction="J3" toJunction="J4" end="10000" vehsPerHour="190.84928847576978" departLane="free"/>
  <flow id="JF444783" begin="0" fromJunction="J3" toJunction="J6" end="10000" vehsPerHour="224.77901732905462" departLane="free"/>
  <flow id="JF444784" begin="0" fromJunction="J3" toJunction="J5" end="10000" vehsPerHour="45.77180435002079" departLane="free"/>
  <flow id="JF444785" begin="0" fromJunction="J3" toJunction="J7" end="10000" vehsPerHour="54.023118531038676" departLane="free"/>
  <flow id="JF444786" begin="0" fromJunction="J0" toJunction="J4" end="10000" vehsPerHour="22.046618465065503" departLane="free"/>
  <flow id="JF444787" begin="0" fromJunction="J0" toJunction="J6" end="10000" vehsPerHour="95.88234468757857" departLane="free"/>
  <flow id="JF444788" begin="0" fromJunction="J0" toJunction="J5" end="10000" vehsPerHour="150.93578285631244" departLane="free"/>
  <flow id="JF444789" begin="0" fromJunction="J0" toJunction="J7" end="10000" vehsPerHour="55.183024809907764" departLane="free"/>
  <flow id="JF444790" begin="0" fromJunction="J4" toJunction="J6" end="10000" vehsPerHour="135.45050643860708" departLane="free"/>
  <flow id="JF444791" begin="0" fromJunction="J4" toJunction="J5" end="10000" vehsPerHour="0.06801795716798968" departLane="free"/>
  <flow id="JF444792" begin="0" fromJunction="J4" toJunction="J7" end="10000" vehsPerHour="70.48997440417521" departLane="free"/>
  <flow id="JF444793" begin="0" fromJunction="J6" toJunction="J4" end="10000" vehsPerHour="204.6254360920614" departLane="free"/>
  <flow id="JF444794" begin="0" fromJunction="J6" toJunction="J5" end="10000" vehsPerHour="58.19131069969765" departLane="free"/>
  <flow id="JF444795" begin="0" fromJunction="J6" toJunction="J7" end="10000" vehsPerHour="9.791632805600447" departLane="free"/>
  <flow id="JF444796" begin="0" fromJunction="J5" toJunction="J4" end="10000" vehsPerHour="62.546894944759245" departLane="free"/>
  <flow id="JF444797" begin="0" fromJunction="J5" toJunction="J6" end="10000" vehsPerHour="123.08236233829187" departLane="free"/>
  <flow id="JF444798" begin="0" fromJunction="J5" toJunction="J7" end="10000" vehsPerHour="132.81850542608848" departLane="free"/>
  <flow id="JF444799" begin="0" fromJunction="J7" toJunction="J4" end="10000" vehsPerHour="246.1884541425713" departLane="free"/>
  <flow id="JF444800" begin="0" fromJunction="J7" toJunction="J6" end="10000" vehsPerHour="231.97511900495337" departLane="free"/>
  <flow id="JF444801" begin="0" fromJunction="J7" toJunction="J5" end="10000" vehsPerHour="151.8736923197971" departLane="free"/>
  <flow id="JF444802" begin="0" fromJunction="J4" toJunction="J3" end="10000" vehsPerHour="87.03659997599758" departLane="free"/>
  <flow id="JF444803" begin="0" fromJunction="J4" toJunction="J0" end="10000" vehsPerHour="197.40713983932025" departLane="free"/>
  <flow id="JF444804" begin="0" fromJunction="J6" toJunction="J3" end="10000" vehsPerHour="93.98680047421477" departLane="free"/>
  <flow id="JF444805" begin="0" fromJunction="J6" toJunction="J0" end="10000" vehsPerHour="134.49094383977197" departLane="free"/>
  <flow id="JF444806" begin="0" fromJunction="J5" toJunction="J3" end="10000" vehsPerHour="136.90873576003307" departLane="free"/>
  <flow id="JF444807" begin="0" fromJunction="J5" toJunction="J0" end="10000" vehsPerHour="84.79185468004866" departLane="free"/>
  <flow id="JF444808" begin="0" fromJunction="J7" toJunction="J3" end="10000" vehsPerHour="20.92161321039781" departLane="free"/>
  <flow id="JF444809" begin="0" fromJunction="J7" toJunction="J0" end="10000" vehsPerHour="228.3343232747453" departLane="free"/>
</routes>