<?xml version="1.0" encoding="UTF-8"?>
<routes xmlns:xsi="http://www.w3.org/2001/XMLSchema-instance" xsi:noNamespaceSchemaLocation="http://sumo.dlr.de/xsd/routes_file.xsd">
  <flow id="JF19340" begin="0" fromJunction="J3" toJunction="J0" end="60" vehsPerHour="44.43383613414402" departLane="free"/>
  <flow id="JF19341" begin="0" fromJunction="J0" toJunction="J3" end="60" vehsPerHour="1.972659831614065" departLane="free"/>
  <flow id="JF19342" begin="0" fromJunction="J3" toJunction="J6" end="60" vehsPerHour="20.22100151039831" departLane="free"/>
  <flow id="JF19343" begin="0" fromJunction="J3" toJunction="J7" end="60" vehsPerHour="31.751409102706972" departLane="free"/>
  <flow id="JF19344" begin="0" fromJunction="J3" toJunction="J4" end="60" vehsPerHour="136.27968196341263" departLane="free"/>
  <flow id="JF19345" begin="0" fromJunction="J3" toJunction="J5" end="60" vehsPerHour="102.72549582384698" departLane="free"/>
  <flow id="JF19346" begin="0" fromJunction="J0" toJunction="J6" end="60" vehsPerHour="43.08824348315705" departLane="free"/>
  <flow id="JF19347" begin="0" fromJunction="J0" toJunction="J7" end="60" vehsPerHour="47.34965412887254" departLane="free"/>
  <flow id="JF19348" begin="0" fromJunction="J0" toJunction="J4" end="60" vehsPerHour="114.03431862599133" departLane="free"/>
  <flow id="JF19349" begin="0" fromJunction="J0" toJunction="J5" end="60" vehsPerHour="72.84736883138198" departLane="free"/>
  <flow id="JF19350" begin="0" fromJunction="J6" toJunction="J7" end="60" vehsPerHour="62.182757517282276" departLane="free"/>
  <flow id="JF19351" begin="0" fromJunction="J6" toJunction="J4" end="60" vehsPerHour="7.9316537422097895" departLane="free"/>
  <flow id="JF19352" begin="0" fromJunction="J6" toJunction="J5" end="60" vehsPerHour="31.856284396864492" departLane="free"/>
  <flow id="JF19353" begin="0" fromJunction="J7" toJunction="J6" end="60" vehsPerHour="2.9599583907524436" departLane="free"/>
  <flow id="JF19354" begin="0" fromJunction="J7" toJunction="J4" end="60" vehsPerHour="10.349775075497096" departLane="free"/>
  <flow id="JF19355" begin="0" fromJunction="J7" toJunction="J5" end="60" vehsPerHour="4.2572338318844745" departLane="free"/>
  <flow id="JF19356" begin="0" fromJunction="J4" toJunction="J6" end="60" vehsPerHour="32.03846873173825" departLane="free"/>
  <flow id="JF19357" begin="0" fromJunction="J4" toJunction="J7" end="60" vehsPerHour="67.12642127221224" departLane="free"/>
  <flow id="JF19358" begin="0" fromJunction="J4" toJunction="J5" end="60" vehsPerHour="56.43031376938778" departLane="free"/>
  <flow id="JF19359" begin="0" fromJunction="J5" toJunction="J6" end="60" vehsPerHour="29.81287208840512" departLane="free"/>
  <flow id="JF19360" begin="0" fromJunction="J5" toJunction="J7" end="60" vehsPerHour="26.65222051227718" departLane="free"/>
  <flow id="JF19361" begin="0" fromJunction="J5" toJunction="J4" end="60" vehsPerHour="60.82573421340603" departLane="free"/>
  <flow id="JF19362" begin="0" fromJunction="J6" toJunction="J3" end="60" vehsPerHour="9.455967481046525" departLane="free"/>
  <flow id="JF19363" begin="0" fromJunction="J6" toJunction="J0" end="60" vehsPerHour="31.746965821224123" departLane="free"/>
  <flow id="JF19364" begin="0" fromJunction="J7" toJunction="J3" end="60" vehsPerHour="22.654724353341617" departLane="free"/>
  <flow id="JF19365" begin="0" fromJunction="J7" toJunction="J0" end="60" vehsPerHour="36.9427808459739" departLane="free"/>
  <flow id="JF19366" begin="0" fromJunction="J4" toJunction="J3" end="60" vehsPerHour="40.48572083383008" departLane="free"/>
  <flow id="JF19367" begin="0" fromJunction="J4" toJunction="J0" end="60" vehsPerHour="35.555222949700244" departLane="free"/>
  <flow id="JF19368" begin="0" fromJunction="J5" toJunction="J3" end="60" vehsPerHour="29.149964165494133" departLane="free"/>
  <flow id="JF19369" begin="0" fromJunction="J5" toJunction="J0" end="60" vehsPerHour="37.276369431349195" departLane="free"/>
  <flow id="JF19370" begin="60" fromJunction="J3" toJunction="J0" end="120" vehsPerHour="6.887833224231827" departLane="free"/>
  <flow id="JF19371" begin="60" fromJunction="J0" toJunction="J3" end="120" vehsPerHour="19.958599998733742" departLane="free"/>
  <flow id="JF19372" begin="60" fromJunction="J3" toJunction="J6" end="120" vehsPerHour="80.13122469218001" departLane="free"/>
  <flow id="JF19373" begin="60" fromJunction="J3" toJunction="J7" end="120" vehsPerHour="123.38367158274214" departLane="free"/>
  <flow id="JF19374" begin="60" fromJunction="J3" toJunction="J4" end="120" vehsPerHour="102.18133506428858" departLane="free"/>
  <flow id="JF19375" begin="60" fromJunction="J3" toJunction="J5" end="120" vehsPerHour="67.4257927576856" departLane="free"/>
  <flow id="JF19376" begin="60" fromJunction="J0" toJunction="J6" end="120" vehsPerHour="112.80708973125861" departLane="free"/>
  <flow id="JF19377" begin="60" fromJunction="J0" toJunction="J7" end="120" vehsPerHour="119.6431992302644" departLane="free"/>
  <flow id="JF19378" begin="60" fromJunction="J0" toJunction="J4" end="120" vehsPerHour="125.41238572286093" departLane="free"/>
  <flow id="JF19379" begin="60" fromJunction="J0" toJunction="J5" end="120" vehsPerHour="49.6106690105166" departLane="free"/>
  <flow id="JF19380" begin="60" fromJunction="J6" toJunction="J7" end="120" vehsPerHour="53.41211887150472" departLane="free"/>
  <flow id="JF19381" begin="60" fromJunction="J6" toJunction="J4" end="120" vehsPerHour="39.63502258748381" departLane="free"/>
  <flow id="JF19382" begin="60" fromJunction="J6" toJunction="J5" end="120" vehsPerHour="18.858712240459568" departLane="free"/>
  <flow id="JF19383" begin="60" fromJunction="J7" toJunction="J6" end="120" vehsPerHour="66.94487502303838" departLane="free"/>
  <flow id="JF19384" begin="60" fromJunction="J7" toJunction="J4" end="120" vehsPerHour="39.36856817099111" departLane="free"/>
  <flow id="JF19385" begin="60" fromJunction="J7" toJunction="J5" end="120" vehsPerHour="35.05599063210949" departLane="free"/>
  <flow id="JF19386" begin="60" fromJunction="J4" toJunction="J6" end="120" vehsPerHour="36.738793814328304" departLane="free"/>
  <flow id="JF19387" begin="60" fromJunction="J4" toJunction="J7" end="120" vehsPerHour="44.84407856655471" departLane="free"/>
  <flow id="JF19388" begin="60" fromJunction="J4" toJunction="J5" end="120" vehsPerHour="10.814021681205226" departLane="free"/>
  <flow id="JF19389" begin="60" fromJunction="J5" toJunction="J6" end="120" vehsPerHour="37.0216874183032" departLane="free"/>
  <flow id="JF19390" begin="60" fromJunction="J5" toJunction="J7" end="120" vehsPerHour="21.335600307395634" departLane="free"/>
  <flow id="JF19391" begin="60" fromJunction="J5" toJunction="J4" end="120" vehsPerHour="39.6780037820261" departLane="free"/>
  <flow id="JF19392" begin="60" fromJunction="J6" toJunction="J3" end="120" vehsPerHour="0.05035112365224986" departLane="free"/>
  <flow id="JF19393" begin="60" fromJunction="J6" toJunction="J0" end="120" vehsPerHour="0.09373182830353624" departLane="free"/>
  <flow id="JF19394" begin="60" fromJunction="J7" toJunction="J3" end="120" vehsPerHour="62.09895869133961" departLane="free"/>
  <flow id="JF19395" begin="60" fromJunction="J7" toJunction="J0" end="120" vehsPerHour="13.303374170501202" departLane="free"/>
  <flow id="JF19396" begin="60" fromJunction="J4" toJunction="J3" end="120" vehsPerHour="31.788927239988492" departLane="free"/>
  <flow id="JF19397" begin="60" fromJunction="J4" toJunction="J0" end="120" vehsPerHour="22.998631527068387" departLane="free"/>
  <flow id="JF19398" begin="60" fromJunction="J5" toJunction="J3" end="120" vehsPerHour="15.819863153137021" departLane="free"/>
  <flow id="JF19399" begin="60" fromJunction="J5" toJunction="J0" end="120" vehsPerHour="65.58954423867137" departLane="free"/>
  <flow id="JF19400" begin="120" fromJunction="J3" toJunction="J0" end="180" vehsPerHour="84.69047198334603" departLane="free"/>
  <flow id="JF19401" begin="120" fromJunction="J0" toJunction="J3" end="180" vehsPerHour="114.91589089862163" departLane="free"/>
  <flow id="JF19402" begin="120" fromJunction="J3" toJunction="J6" end="180" vehsPerHour="123.65130850981116" departLane="free"/>
  <flow id="JF19403" begin="120" fromJunction="J3" toJunction="J7" end="180" vehsPerHour="72.00339933745522" departLane="free"/>
  <flow id="JF19404" begin="120" fromJunction="J3" toJunction="J4" end="180" vehsPerHour="65.96515285965197" departLane="free"/>
  <flow id="JF19405" begin="120" fromJunction="J3" toJunction="J5" end="180" vehsPerHour="14.784079507326899" departLane="free"/>
  <flow id="JF19406" begin="120" fromJunction="J0" toJunction="J6" end="180" vehsPerHour="73.81429706763909" departLane="free"/>
  <flow id="JF19407" begin="120" fromJunction="J0" toJunction="J7" end="180" vehsPerHour="51.40190174450405" departLane="free"/>
  <flow id="JF19408" begin="120" fromJunction="J0" toJunction="J4" end="180" vehsPerHour="26.357257479084534" departLane="free"/>
  <flow id="JF19409" begin="120" fromJunction="J0" toJunction="J5" end="180" vehsPerHour="116.1067002264439" departLane="free"/>
  <flow id="JF19410" begin="120" fromJunction="J6" toJunction="J7" end="180" vehsPerHour="4.316726194074869" departLane="free"/>
  <flow id="JF19411" begin="120" fromJunction="J6" toJunction="J4" end="180" vehsPerHour="10.637242563077454" departLane="free"/>
  <flow id="JF19412" begin="120" fromJunction="J6" toJunction="J5" end="180" vehsPerHour="22.89578615494261" departLane="free"/>
  <flow id="JF19413" begin="120" fromJunction="J7" toJunction="J6" end="180" vehsPerHour="3.6675217927643966" departLane="free"/>
  <flow id="JF19414" begin="120" fromJunction="J7" toJunction="J4" end="180" vehsPerHour="23.655942186535157" departLane="free"/>
  <flow id="JF19415" begin="120" fromJunction="J7" toJunction="J5" end="180" vehsPerHour="4.812784191110125" departLane="free"/>
  <flow id="JF19416" begin="120" fromJunction="J4" toJunction="J6" end="180" vehsPerHour="14.116925175954096" departLane="free"/>
  <flow id="JF19417" begin="120" fromJunction="J4" toJunction="J7" end="180" vehsPerHour="21.22042737468787" departLane="free"/>
  <flow id="JF19418" begin="120" fromJunction="J4" toJunction="J5" end="180" vehsPerHour="17.549424989861983" departLane="free"/>
  <flow id="JF19419" begin="120" fromJunction="J5" toJunction="J6" end="180" vehsPerHour="36.62698004981528" departLane="free"/>
  <flow id="JF19420" begin="120" fromJunction="J5" toJunction="J7" end="180" vehsPerHour="23.997638721815196" departLane="free"/>
  <flow id="JF19421" begin="120" fromJunction="J5" toJunction="J4" end="180" vehsPerHour="5.0217582245137535" departLane="free"/>
  <flow id="JF19422" begin="120" fromJunction="J6" toJunction="J3" end="180" vehsPerHour="52.289278601226286" departLane="free"/>
  <flow id="JF19423" begin="120" fromJunction="J6" toJunction="J0" end="180" vehsPerHour="30.43129126712683" departLane="free"/>
  <flow id="JF19424" begin="120" fromJunction="J7" toJunction="J3" end="180" vehsPerHour="66.55483745781846" departLane="free"/>
  <flow id="JF19425" begin="120" fromJunction="J7" toJunction="J0" end="180" vehsPerHour="3.9898790553136223" departLane="free"/>
  <flow id="JF19426" begin="120" fromJunction="J4" toJunction="J3" end="180" vehsPerHour="10.048343150320695" departLane="free"/>
  <flow id="JF19427" begin="120" fromJunction="J4" toJunction="J0" end="180" vehsPerHour="54.51732511156324" departLane="free"/>
  <flow id="JF19428" begin="120" fromJunction="J5" toJunction="J3" end="180" vehsPerHour="36.31237317253968" departLane="free"/>
  <flow id="JF19429" begin="120" fromJunction="J5" toJunction="J0" end="180" vehsPerHour="28.07610135793277" departLane="free"/>
  <flow id="JF19430" begin="180" fromJunction="J3" toJunction="J0" end="240" vehsPerHour="48.97575602927029" departLane="free"/>
  <flow id="JF19431" begin="180" fromJunction="J0" toJunction="J3" end="240" vehsPerHour="104.44901914061026" departLane="free"/>
  <flow id="JF19432" begin="180" fromJunction="J3" toJunction="J6" end="240" vehsPerHour="86.04820482693515" departLane="free"/>
  <flow id="JF19433" begin="180" fromJunction="J3" toJunction="J7" end="240" vehsPerHour="38.708953847296854" departLane="free"/>
  <flow id="JF19434" begin="180" fromJunction="J3" toJunction="J4" end="240" vehsPerHour="111.43534317622282" departLane="free"/>
  <flow id="JF19435" begin="180" fromJunction="J3" toJunction="J5" end="240" vehsPerHour="32.18968191686121" departLane="free"/>
  <flow id="JF19436" begin="180" fromJunction="J0" toJunction="J6" end="240" vehsPerHour="129.92328130735388" departLane="free"/>
  <flow id="JF19437" begin="180" fromJunction="J0" toJunction="J7" end="240" vehsPerHour="81.98194197783576" departLane="free"/>
  <flow id="JF19438" begin="180" fromJunction="J0" toJunction="J4" end="240" vehsPerHour="128.302893721345" departLane="free"/>
  <flow id="JF19439" begin="180" fromJunction="J0" toJunction="J5" end="240" vehsPerHour="81.22955224055302" departLane="free"/>
  <flow id="JF19440" begin="240" fromJunction="J3" toJunction="J0" end="300" vehsPerHour="75.23359626662139" departLane="free"/>
  <flow id="JF19441" begin="240" fromJunction="J0" toJunction="J3" end="300" vehsPerHour="43.053350961226016" departLane="free"/>
  <flow id="JF19442" begin="240" fromJunction="J3" toJunction="J6" end="300" vehsPerHour="113.99412290038855" departLane="free"/>
  <flow id="JF19443" begin="240" fromJunction="J3" toJunction="J7" end="300" vehsPerHour="120.35107688388631" departLane="free"/>
  <flow id="JF19444" begin="240" fromJunction="J3" toJunction="J4" end="300" vehsPerHour="28.301628455949473" departLane="free"/>
  <flow id="JF19445" begin="240" fromJunction="J3" toJunction="J5" end="300" vehsPerHour="52.67161352199293" departLane="free"/>
  <flow id="JF19446" begin="240" fromJunction="J0" toJunction="J6" end="300" vehsPerHour="5.379396188374995" departLane="free"/>
  <flow id="JF19447" begin="240" fromJunction="J0" toJunction="J7" end="300" vehsPerHour="99.11691469902681" departLane="free"/>
  <flow id="JF19448" begin="240" fromJunction="J0" toJunction="J4" end="300" vehsPerHour="136.42330023812693" departLane="free"/>
  <flow id="JF19449" begin="240" fromJunction="J0" toJunction="J5" end="300" vehsPerHour="49.77121062750787" departLane="free"/>
  <flow id="JF19450" begin="240" fromJunction="J6" toJunction="J7" end="300" vehsPerHour="6.373791387677811" departLane="free"/>
  <flow id="JF19451" begin="240" fromJunction="J6" toJunction="J4" end="300" vehsPerHour="12.939667396812712" departLane="free"/>
  <flow id="JF19452" begin="240" fromJunction="J6" toJunction="J5" end="300" vehsPerHour="26.60364977286437" departLane="free"/>
  <flow id="JF19453" begin="240" fromJunction="J7" toJunction="J6" end="300" vehsPerHour="7.367224737518397" departLane="free"/>
  <flow id="JF19454" begin="240" fromJunction="J7" toJunction="J4" end="300" vehsPerHour="8.919002610055708" departLane="free"/>
  <flow id="JF19455" begin="240" fromJunction="J7" toJunction="J5" end="300" vehsPerHour="6.170556695147732" departLane="free"/>
  <flow id="JF19456" begin="240" fromJunction="J4" toJunction="J6" end="300" vehsPerHour="18.254282681215305" departLane="free"/>
  <flow id="JF19457" begin="240" fromJunction="J4" toJunction="J7" end="300" vehsPerHour="14.897536597385052" departLane="free"/>
  <flow id="JF19458" begin="240" fromJunction="J4" toJunction="J5" end="300" vehsPerHour="43.17473563917548" departLane="free"/>
  <flow id="JF19459" begin="240" fromJunction="J5" toJunction="J6" end="300" vehsPerHour="5.733425685793433" departLane="free"/>
  <flow id="JF19460" begin="240" fromJunction="J5" toJunction="J7" end="300" vehsPerHour="52.89237555505114" departLane="free"/>
  <flow id="JF19461" begin="240" fromJunction="J5" toJunction="J4" end="300" vehsPerHour="3.278215111786233" departLane="free"/>
  <flow id="JF19462" begin="240" fromJunction="J6" toJunction="J3" end="300" vehsPerHour="18.987365308292706" departLane="free"/>
  <flow id="JF19463" begin="240" fromJunction="J6" toJunction="J0" end="300" vehsPerHour="29.45182155855005" departLane="free"/>
  <flow id="JF19464" begin="240" fromJunction="J7" toJunction="J3" end="300" vehsPerHour="23.860942586827964" departLane="free"/>
  <flow id="JF19465" begin="240" fromJunction="J7" toJunction="J0" end="300" vehsPerHour="60.17940811609296" departLane="free"/>
  <flow id="JF19466" begin="240" fromJunction="J4" toJunction="J3" end="300" vehsPerHour="5.20223182752223" departLane="free"/>
  <flow id="JF19467" begin="240" fromJunction="J4" toJunction="J0" end="300" vehsPerHour="9.619704678963215" departLane="free"/>
  <flow id="JF19468" begin="240" fromJunction="J5" toJunction="J3" end="300" vehsPerHour="27.491292756695838" departLane="free"/>
  <flow id="JF19469" begin="240" fromJunction="J5" toJunction="J0" end="300" vehsPerHour="33.33815831095053" departLane="free"/>
  <flow id="JF19470" begin="300" fromJunction="J3" toJunction="J0" end="360" vehsPerHour="107.22577612175569" departLane="free"/>
  <flow id="JF19471" begin="300" fromJunction="J0" toJunction="J3" end="360" vehsPerHour="86.35774384275449" departLane="free"/>
  <flow id="JF19472" begin="300" fromJunction="J3" toJunction="J6" end="360" vehsPerHour="75.54438603919787" departLane="free"/>
  <flow id="JF19473" begin="300" fromJunction="J3" toJunction="J7" end="360" vehsPerHour="53.64162613566426" departLane="free"/>
  <flow id="JF19474" begin="300" fromJunction="J3" toJunction="J4" end="360" vehsPerHour="103.32457020727448" departLane="free"/>
  <flow id="JF19475" begin="300" fromJunction="J3" toJunction="J5" end="360" vehsPerHour="82.70624288102735" departLane="free"/>
  <flow id="JF19476" begin="300" fromJunction="J0" toJunction="J6" end="360" vehsPerHour="69.93581128615665" departLane="free"/>
  <flow id="JF19477" begin="300" fromJunction="J0" toJunction="J7" end="360" vehsPerHour="70.18573391517933" departLane="free"/>
  <flow id="JF19478" begin="300" fromJunction="J0" toJunction="J4" end="360" vehsPerHour="5.922255857849488" departLane="free"/>
  <flow id="JF19479" begin="300" fromJunction="J0" toJunction="J5" end="360" vehsPerHour="54.704021973642334" departLane="free"/>
  <flow id="JF19480" begin="300" fromJunction="J6" toJunction="J7" end="360" vehsPerHour="37.219377692137606" departLane="free"/>
  <flow id="JF19481" begin="300" fromJunction="J6" toJunction="J4" end="360" vehsPerHour="59.17669316553792" departLane="free"/>
  <flow id="JF19482" begin="300" fromJunction="J6" toJunction="J5" end="360" vehsPerHour="6.405582711542779" departLane="free"/>
  <flow id="JF19483" begin="300" fromJunction="J7" toJunction="J6" end="360" vehsPerHour="8.808866082174042" departLane="free"/>
  <flow id="JF19484" begin="300" fromJunction="J7" toJunction="J4" end="360" vehsPerHour="55.87645334935734" departLane="free"/>
  <flow id="JF19485" begin="300" fromJunction="J7" toJunction="J5" end="360" vehsPerHour="2.255600845195757" departLane="free"/>
  <flow id="JF19486" begin="300" fromJunction="J4" toJunction="J6" end="360" vehsPerHour="13.543685108612438" departLane="free"/>
  <flow id="JF19487" begin="300" fromJunction="J4" toJunction="J7" end="360" vehsPerHour="26.97431448800668" departLane="free"/>
  <flow id="JF19488" begin="300" fromJunction="J4" toJunction="J5" end="360" vehsPerHour="24.83515145445018" departLane="free"/>
  <flow id="JF19489" begin="300" fromJunction="J5" toJunction="J6" end="360" vehsPerHour="14.07078185825259" departLane="free"/>
  <flow id="JF19490" begin="300" fromJunction="J5" toJunction="J7" end="360" vehsPerHour="20.07754436330433" departLane="free"/>
  <flow id="JF19491" begin="300" fromJunction="J5" toJunction="J4" end="360" vehsPerHour="52.116106772536575" departLane="free"/>
  <flow id="JF19492" begin="300" fromJunction="J6" toJunction="J3" end="360" vehsPerHour="35.03571166507155" departLane="free"/>
  <flow id="JF19493" begin="300" fromJunction="J6" toJunction="J0" end="360" vehsPerHour="6.117899242753617" departLane="free"/>
  <flow id="JF19494" begin="300" fromJunction="J7" toJunction="J3" end="360" vehsPerHour="11.104682980471587" departLane="free"/>
  <flow id="JF19495" begin="300" fromJunction="J7" toJunction="J0" end="360" vehsPerHour="35.21585509329483" departLane="free"/>
  <flow id="JF19496" begin="300" fromJunction="J4" toJunction="J3" end="360" vehsPerHour="19.339191495743194" departLane="free"/>
  <flow id="JF19497" begin="300" fromJunction="J4" toJunction="J0" end="360" vehsPerHour="10.398573162593484" departLane="free"/>
  <flow id="JF19498" begin="300" fromJunction="J5" toJunction="J3" end="360" vehsPerHour="5.189747600402768" departLane="free"/>
  <flow id="JF19499" begin="300" fromJunction="J5" toJunction="J0" end="360" vehsPerHour="61.272758700155755" departLane="free"/>
  <flow id="JF19500" begin="360" fromJunction="J3" toJunction="J0" end="420" vehsPerHour="8.401987563923532" departLane="free"/>
  <flow id="JF19501" begin="360" fromJunction="J0" toJunction="J3" end="420" vehsPerHour="26.040252414388725" departLane="free"/>
  <flow id="JF19502" begin="360" fromJunction="J3" toJunction="J6" end="420" vehsPerHour="118.87030203686628" departLane="free"/>
  <flow id="JF19503" begin="360" fromJunction="J3" toJunction="J7" end="420" vehsPerHour="47.38805032793045" departLane="free"/>
  <flow id="JF19504" begin="360" fromJunction="J3" toJunction="J4" end="420" vehsPerHour="45.21425276492891" departLane="free"/>
  <flow id="JF19505" begin="360" fromJunction="J3" toJunction="J5" end="420" vehsPerHour="122.4601608660869" departLane="free"/>
  <flow id="JF19506" begin="360" fromJunction="J0" toJunction="J6" end="420" vehsPerHour="101.13419802643661" departLane="free"/>
  <flow id="JF19507" begin="360" fromJunction="J0" toJunction="J7" end="420" vehsPerHour="64.22634520576612" departLane="free"/>
  <flow id="JF19508" begin="360" fromJunction="J0" toJunction="J4" end="420" vehsPerHour="117.74034323881197" departLane="free"/>
  <flow id="JF19509" begin="360" fromJunction="J0" toJunction="J5" end="420" vehsPerHour="98.24969867201608" departLane="free"/>
  <flow id="JF19510" begin="360" fromJunction="J6" toJunction="J7" end="420" vehsPerHour="7.676063715903483" departLane="free"/>
  <flow id="JF19511" begin="360" fromJunction="J6" toJunction="J4" end="420" vehsPerHour="65.46172434975142" departLane="free"/>
  <flow id="JF19512" begin="360" fromJunction="J6" toJunction="J5" end="420" vehsPerHour="36.21912967687462" departLane="free"/>
  <flow id="JF19513" begin="360" fromJunction="J7" toJunction="J6" end="420" vehsPerHour="2.3036013973213203" departLane="free"/>
  <flow id="JF19514" begin="360" fromJunction="J7" toJunction="J4" end="420" vehsPerHour="48.75994438257752" departLane="free"/>
  <flow id="JF19515" begin="360" fromJunction="J7" toJunction="J5" end="420" vehsPerHour="25.3565828884949" departLane="free"/>
  <flow id="JF19516" begin="360" fromJunction="J4" toJunction="J6" end="420" vehsPerHour="41.96898126177918" departLane="free"/>
  <flow id="JF19517" begin="360" fromJunction="J4" toJunction="J7" end="420" vehsPerHour="25.172509581342588" departLane="free"/>
  <flow id="JF19518" begin="360" fromJunction="J4" toJunction="J5" end="420" vehsPerHour="42.34303730326582" departLane="free"/>
  <flow id="JF19519" begin="360" fromJunction="J5" toJunction="J6" end="420" vehsPerHour="1.7683899627424586" departLane="free"/>
  <flow id="JF19520" begin="360" fromJunction="J5" toJunction="J7" end="420" vehsPerHour="36.03610158675332" departLane="free"/>
  <flow id="JF19521" begin="360" fromJunction="J5" toJunction="J4" end="420" vehsPerHour="48.72132575304952" departLane="free"/>
  <flow id="JF19522" begin="360" fromJunction="J6" toJunction="J3" end="420" vehsPerHour="24.046183670050702" departLane="free"/>
  <flow id="JF19523" begin="360" fromJunction="J6" toJunction="J0" end="420" vehsPerHour="4.580511512731363" departLane="free"/>
  <flow id="JF19524" begin="360" fromJunction="J7" toJunction="J3" end="420" vehsPerHour="33.314805001028176" departLane="free"/>
  <flow id="JF19525" begin="360" fromJunction="J7" toJunction="J0" end="420" vehsPerHour="5.618124713554768" departLane="free"/>
  <flow id="JF19526" begin="360" fromJunction="J4" toJunction="J3" end="420" vehsPerHour="25.395846094110272" departLane="free"/>
  <flow id="JF19527" begin="360" fromJunction="J4" toJunction="J0" end="420" vehsPerHour="33.66146906333915" departLane="free"/>
  <flow id="JF19528" begin="360" fromJunction="J5" toJunction="J3" end="420" vehsPerHour="40.90099380315449" departLane="free"/>
  <flow id="JF19529" begin="360" fromJunction="J5" toJunction="J0" end="420" vehsPerHour="51.31816443504106" departLane="free"/>
  <flow id="JF19530" begin="420" fromJunction="J3" toJunction="J0" end="480" vehsPerHour="91.4983349358607" departLane="free"/>
  <flow id="JF19531" begin="420" fromJunction="J0" toJunction="J3" end="480" vehsPerHour="136.4186477737305" departLane="free"/>
  <flow id="JF19532" begin="420" fromJunction="J3" toJunction="J6" end="480" vehsPerHour="99.07489972171255" departLane="free"/>
  <flow id="JF19533" begin="420" fromJunction="J3" toJunction="J7" end="480" vehsPerHour="30.309994795148402" departLane="free"/>
  <flow id="JF19534" begin="420" fromJunction="J3" toJunction="J4" end="480" vehsPerHour="88.2124011442416" departLane="free"/>
  <flow id="JF19535" begin="420" fromJunction="J3" toJunction="J5" end="480" vehsPerHour="92.04820059807058" departLane="free"/>
  <flow id="JF19536" begin="420" fromJunction="J0" toJunction="J6" end="480" vehsPerHour="52.70454523586528" departLane="free"/>
  <flow id="JF19537" begin="420" fromJunction="J0" toJunction="J7" end="480" vehsPerHour="65.78105172791965" departLane="free"/>
  <flow id="JF19538" begin="420" fromJunction="J0" toJunction="J4" end="480" vehsPerHour="74.28603153143767" departLane="free"/>
  <flow id="JF19539" begin="420" fromJunction="J0" toJunction="J5" end="480" vehsPerHour="47.634255834384724" departLane="free"/>
  <flow id="JF19540" begin="420" fromJunction="J6" toJunction="J7" end="480" vehsPerHour="21.584168773172802" departLane="free"/>
  <flow id="JF19541" begin="420" fromJunction="J6" toJunction="J4" end="480" vehsPerHour="28.25939721474697" departLane="free"/>
  <flow id="JF19542" begin="420" fromJunction="J6" toJunction="J5" end="480" vehsPerHour="25.92268444481582" departLane="free"/>
  <flow id="JF19543" begin="420" fromJunction="J7" toJunction="J6" end="480" vehsPerHour="65.3766315797083" departLane="free"/>
  <flow id="JF19544" begin="420" fromJunction="J7" toJunction="J4" end="480" vehsPerHour="29.01635598738568" departLane="free"/>
  <flow id="JF19545" begin="420" fromJunction="J7" toJunction="J5" end="480" vehsPerHour="6.147636742314196" departLane="free"/>
  <flow id="JF19546" begin="420" fromJunction="J4" toJunction="J6" end="480" vehsPerHour="17.345594672569636" departLane="free"/>
  <flow id="JF19547" begin="420" fromJunction="J4" toJunction="J7" end="480" vehsPerHour="24.00702259681496" departLane="free"/>
  <flow id="JF19548" begin="420" fromJunction="J4" toJunction="J5" end="480" vehsPerHour="55.934453756892374" departLane="free"/>
  <flow id="JF19549" begin="420" fromJunction="J5" toJunction="J6" end="480" vehsPerHour="57.22005712031917" departLane="free"/>
  <flow id="JF19550" begin="420" fromJunction="J5" toJunction="J7" end="480" vehsPerHour="25.04137790975378" departLane="free"/>
  <flow id="JF19551" begin="420" fromJunction="J5" toJunction="J4" end="480" vehsPerHour="30.459805942877324" departLane="free"/>
  <flow id="JF19552" begin="420" fromJunction="J6" toJunction="J3" end="480" vehsPerHour="65.88084128709616" departLane="free"/>
  <flow id="JF19553" begin="420" fromJunction="J6" toJunction="J0" end="480" vehsPerHour="42.14016787310833" departLane="free"/>
  <flow id="JF19554" begin="420" fromJunction="J7" toJunction="J3" end="480" vehsPerHour="15.326674391279727" departLane="free"/>
  <flow id="JF19555" begin="420" fromJunction="J7" toJunction="J0" end="480" vehsPerHour="13.939845966684103" departLane="free"/>
  <flow id="JF19556" begin="420" fromJunction="J4" toJunction="J3" end="480" vehsPerHour="48.893597329110996" departLane="free"/>
  <flow id="JF19557" begin="420" fromJunction="J4" toJunction="J0" end="480" vehsPerHour="39.09412725808034" departLane="free"/>
  <flow id="JF19558" begin="420" fromJunction="J5" toJunction="J3" end="480" vehsPerHour="20.85947227880274" departLane="free"/>
  <flow id="JF19559" begin="420" fromJunction="J5" toJunction="J0" end="480" vehsPerHour="60.79785398019779" departLane="free"/>
  <flow id="JF19560" begin="480" fromJunction="J3" toJunction="J0" end="540" vehsPerHour="118.95989041799001" departLane="free"/>
  <flow id="JF19561" begin="480" fromJunction="J0" toJunction="J3" end="540" vehsPerHour="72.22114263652679" departLane="free"/>
  <flow id="JF19562" begin="480" fromJunction="J3" toJunction="J6" end="540" vehsPerHour="94.38229059695176" departLane="free"/>
  <flow id="JF19563" begin="480" fromJunction="J3" toJunction="J7" end="540" vehsPerHour="74.72463357977456" departLane="free"/>
  <flow id="JF19564" begin="480" fromJunction="J3" toJunction="J4" end="540" vehsPerHour="49.971894972891484" departLane="free"/>
  <flow id="JF19565" begin="480" fromJunction="J3" toJunction="J5" end="540" vehsPerHour="26.360429271138976" departLane="free"/>
  <flow id="JF19566" begin="480" fromJunction="J0" toJunction="J6" end="540" vehsPerHour="85.96462236806202" departLane="free"/>
  <flow id="JF19567" begin="480" fromJunction="J0" toJunction="J7" end="540" vehsPerHour="31.088036776659457" departLane="free"/>
  <flow id="JF19568" begin="480" fromJunction="J0" toJunction="J4" end="540" vehsPerHour="25.500882595244462" departLane="free"/>
  <flow id="JF19569" begin="480" fromJunction="J0" toJunction="J5" end="540" vehsPerHour="32.18279632451189" departLane="free"/>
  <flow id="JF19570" begin="540" fromJunction="J3" toJunction="J0" end="600" vehsPerHour="88.07295770107204" departLane="free"/>