<?xml version="1.0" encoding="UTF-8"?>
<routes xmlns:xsi="http://www.w3.org/2001/XMLSchema-instance" xsi:noNamespaceSchemaLocation="http://sumo.dlr.de/xsd/routes_file.xsd">
  <flow id="JF21220" begin="0" fromJunction="J3" toJunction="J0" end="60" vehsPerHour="50.7565189925713" departLane="free"/>
  <flow id="JF21221" begin="0" fromJunction="J0" toJunction="J3" end="60" vehsPerHour="76.39776687236414" departLane="free"/>
  <flow id="JF21222" begin="0" fromJunction="J3" toJunction="J6" end="60" vehsPerHour="95.82909081146761" departLane="free"/>
  <flow id="JF21223" begin="0" fromJunction="J3" toJunction="J7" end="60" vehsPerHour="16.583522986115344" departLane="free"/>
  <flow id="JF21224" begin="0" fromJunction="J3" toJunction="J4" end="60" vehsPerHour="126.21485413484572" departLane="free"/>
  <flow id="JF21225" begin="0" fromJunction="J3" toJunction="J5" end="60" vehsPerHour="4.168613561099766" departLane="free"/>
  <flow id="JF21226" begin="0" fromJunction="J0" toJunction="J6" end="60" vehsPerHour="97.33406689286778" departLane="free"/>
  <flow id="JF21227" begin="0" fromJunction="J0" toJunction="J7" end="60" vehsPerHour="84.46855957962487" departLane="free"/>
  <flow id="JF21228" begin="0" fromJunction="J0" toJunction="J4" end="60" vehsPerHour="104.4386917927428" departLane="free"/>
  <flow id="JF21229" begin="0" fromJunction="J0" toJunction="J5" end="60" vehsPerHour="120.79453288462108" departLane="free"/>
  <flow id="JF21230" begin="0" fromJunction="J6" toJunction="J7" end="60" vehsPerHour="32.34743382123987" departLane="free"/>
  <flow id="JF21231" begin="0" fromJunction="J6" toJunction="J4" end="60" vehsPerHour="27.40411293830134" departLane="free"/>
  <flow id="JF21232" begin="0" fromJunction="J6" toJunction="J5" end="60" vehsPerHour="5.559027024271927" departLane="free"/>
  <flow id="JF21233" begin="0" fromJunction="J7" toJunction="J6" end="60" vehsPerHour="9.105972994382098" departLane="free"/>
  <flow id="JF21234" begin="0" fromJunction="J7" toJunction="J4" end="60" vehsPerHour="65.80842952110007" departLane="free"/>
  <flow id="JF21235" begin="0" fromJunction="J7" toJunction="J5" end="60" vehsPerHour="1.8302142750756476" departLane="free"/>
  <flow id="JF21236" begin="0" fromJunction="J4" toJunction="J6" end="60" vehsPerHour="2.0944153316185217" departLane="free"/>
  <flow id="JF21237" begin="0" fromJunction="J4" toJunction="J7" end="60" vehsPerHour="27.789576484272246" departLane="free"/>
  <flow id="JF21238" begin="0" fromJunction="J4" toJunction="J5" end="60" vehsPerHour="4.358561108696066" departLane="free"/>
  <flow id="JF21239" begin="0" fromJunction="J5" toJunction="J6" end="60" vehsPerHour="15.297968280926924" departLane="free"/>
  <flow id="JF21240" begin="0" fromJunction="J5" toJunction="J7" end="60" vehsPerHour="45.746117964716355" departLane="free"/>
  <flow id="JF21241" begin="0" fromJunction="J5" toJunction="J4" end="60" vehsPerHour="16.702128319962306" departLane="free"/>
  <flow id="JF21242" begin="0" fromJunction="J6" toJunction="J3" end="60" vehsPerHour="40.11899020178466" departLane="free"/>
  <flow id="JF21243" begin="0" fromJunction="J6" toJunction="J0" end="60" vehsPerHour="11.742898930471094" departLane="free"/>
  <flow id="JF21244" begin="0" fromJunction="J7" toJunction="J3" end="60" vehsPerHour="7.7169210033172595" departLane="free"/>
  <flow id="JF21245" begin="0" fromJunction="J7" toJunction="J0" end="60" vehsPerHour="35.87443415255332" departLane="free"/>
  <flow id="JF21246" begin="0" fromJunction="J4" toJunction="J3" end="60" vehsPerHour="9.59462663055903" departLane="free"/>
  <flow id="JF21247" begin="0" fromJunction="J4" toJunction="J0" end="60" vehsPerHour="11.895592649911707" departLane="free"/>
  <flow id="JF21248" begin="0" fromJunction="J5" toJunction="J3" end="60" vehsPerHour="46.95223137192802" departLane="free"/>
  <flow id="JF21249" begin="0" fromJunction="J5" toJunction="J0" end="60" vehsPerHour="36.891133757274304" departLane="free"/>
  <flow id="JF21250" begin="60" fromJunction="J3" toJunction="J0" end="120" vehsPerHour="131.96493922604157" departLane="free"/>
  <flow id="JF21251" begin="60" fromJunction="J0" toJunction="J3" end="120" vehsPerHour="93.4253522061411" departLane="free"/>
  <flow id="JF21252" begin="60" fromJunction="J3" toJunction="J6" end="120" vehsPerHour="113.2774714826038" departLane="free"/>
  <flow id="JF21253" begin="60" fromJunction="J3" toJunction="J7" end="120" vehsPerHour="3.5536325219739338" departLane="free"/>
  <flow id="JF21254" begin="60" fromJunction="J3" toJunction="J4" end="120" vehsPerHour="87.53299132840998" departLane="free"/>
  <flow id="JF21255" begin="60" fromJunction="J3" toJunction="J5" end="120" vehsPerHour="81.86628257152859" departLane="free"/>
  <flow id="JF21256" begin="60" fromJunction="J0" toJunction="J6" end="120" vehsPerHour="6.752937912125095" departLane="free"/>
  <flow id="JF21257" begin="60" fromJunction="J0" toJunction="J7" end="120" vehsPerHour="14.681616023914737" departLane="free"/>
  <flow id="JF21258" begin="60" fromJunction="J0" toJunction="J4" end="120" vehsPerHour="88.30861354785041" departLane="free"/>
  <flow id="JF21259" begin="60" fromJunction="J0" toJunction="J5" end="120" vehsPerHour="101.79749424650412" departLane="free"/>
  <flow id="JF21260" begin="60" fromJunction="J6" toJunction="J7" end="120" vehsPerHour="41.84718629137179" departLane="free"/>
  <flow id="JF21261" begin="60" fromJunction="J6" toJunction="J4" end="120" vehsPerHour="30.306829338490548" departLane="free"/>
  <flow id="JF21262" begin="60" fromJunction="J6" toJunction="J5" end="120" vehsPerHour="11.469075012523122" departLane="free"/>
  <flow id="JF21263" begin="60" fromJunction="J7" toJunction="J6" end="120" vehsPerHour="50.523440520517724" departLane="free"/>
  <flow id="JF21264" begin="60" fromJunction="J7" toJunction="J4" end="120" vehsPerHour="25.405937145858417" departLane="free"/>
  <flow id="JF21265" begin="60" fromJunction="J7" toJunction="J5" end="120" vehsPerHour="45.39634363034283" departLane="free"/>
  <flow id="JF21266" begin="60" fromJunction="J4" toJunction="J6" end="120" vehsPerHour="51.79987192828086" departLane="free"/>
  <flow id="JF21267" begin="60" fromJunction="J4" toJunction="J7" end="120" vehsPerHour="14.557941749262799" departLane="free"/>
  <flow id="JF21268" begin="60" fromJunction="J4" toJunction="J5" end="120" vehsPerHour="68.13755477842824" departLane="free"/>
  <flow id="JF21269" begin="60" fromJunction="J5" toJunction="J6" end="120" vehsPerHour="53.103925631812594" departLane="free"/>
  <flow id="JF21270" begin="60" fromJunction="J5" toJunction="J7" end="120" vehsPerHour="1.054213723196885" departLane="free"/>
  <flow id="JF21271" begin="60" fromJunction="J5" toJunction="J4" end="120" vehsPerHour="36.65294795580663" departLane="free"/>
  <flow id="JF21272" begin="60" fromJunction="J6" toJunction="J3" end="120" vehsPerHour="17.514761664137218" departLane="free"/>
  <flow id="JF21273" begin="60" fromJunction="J6" toJunction="J0" end="120" vehsPerHour="54.16000800434916" departLane="free"/>
  <flow id="JF21274" begin="60" fromJunction="J7" toJunction="J3" end="120" vehsPerHour="9.805349187903133" departLane="free"/>
  <flow id="JF21275" begin="60" fromJunction="J7" toJunction="J0" end="120" vehsPerHour="6.300716897780008" departLane="free"/>
  <flow id="JF21276" begin="60" fromJunction="J4" toJunction="J3" end="120" vehsPerHour="65.28877431415572" departLane="free"/>
  <flow id="JF21277" begin="60" fromJunction="J4" toJunction="J0" end="120" vehsPerHour="45.059725268132716" departLane="free"/>
  <flow id="JF21278" begin="60" fromJunction="J5" toJunction="J3" end="120" vehsPerHour="15.45720053173491" departLane="free"/>
  <flow id="JF21279" begin="60" fromJunction="J5" toJunction="J0" end="120" vehsPerHour="35.268283469081894" departLane="free"/>
  <flow id="JF21280" begin="120" fromJunction="J3" toJunction="J0" end="180" vehsPerHour="55.90544810577652" departLane="free"/>
  <flow id="JF21281" begin="120" fromJunction="J0" toJunction="J3" end="180" vehsPerHour="131.95868298503498" departLane="free"/>
  <flow id="JF21282" begin="120" fromJunction="J3" toJunction="J6" end="180" vehsPerHour="103.62216804233408" departLane="free"/>
  <flow id="JF21283" begin="120" fromJunction="J3" toJunction="J7" end="180" vehsPerHour="3.706575033139236" departLane="free"/>
  <flow id="JF21284" begin="120" fromJunction="J3" toJunction="J4" end="180" vehsPerHour="27.247703996920375" departLane="free"/>
  <flow id="JF21285" begin="120" fromJunction="J3" toJunction="J5" end="180" vehsPerHour="82.80580248037063" departLane="free"/>
  <flow id="JF21286" begin="120" fromJunction="J0" toJunction="J6" end="180" vehsPerHour="19.836737576139733" departLane="free"/>
  <flow id="JF21287" begin="120" fromJunction="J0" toJunction="J7" end="180" vehsPerHour="2.990205396306291" departLane="free"/>
  <flow id="JF21288" begin="120" fromJunction="J0" toJunction="J4" end="180" vehsPerHour="21.72537958547796" departLane="free"/>
  <flow id="JF21289" begin="120" fromJunction="J0" toJunction="J5" end="180" vehsPerHour="30.589198729478714" departLane="free"/>
  <flow id="JF21290" begin="120" fromJunction="J6" toJunction="J7" end="180" vehsPerHour="49.249824540469874" departLane="free"/>
  <flow id="JF21291" begin="120" fromJunction="J6" toJunction="J4" end="180" vehsPerHour="3.421931967550033" departLane="free"/>
  <flow id="JF21292" begin="120" fromJunction="J6" toJunction="J5" end="180" vehsPerHour="29.076393900799957" departLane="free"/>
  <flow id="JF21293" begin="120" fromJunction="J7" toJunction="J6" end="180" vehsPerHour="38.08786816810326" departLane="free"/>
  <flow id="JF21294" begin="120" fromJunction="J7" toJunction="J4" end="180" vehsPerHour="32.3362103478369" departLane="free"/>
  <flow id="JF21295" begin="120" fromJunction="J7" toJunction="J5" end="180" vehsPerHour="11.499454284449598" departLane="free"/>
  <flow id="JF21296" begin="120" fromJunction="J4" toJunction="J6" end="180" vehsPerHour="10.468584735686953" departLane="free"/>
  <flow id="JF21297" begin="120" fromJunction="J4" toJunction="J7" end="180" vehsPerHour="7.550524926418499" departLane="free"/>
  <flow id="JF21298" begin="120" fromJunction="J4" toJunction="J5" end="180" vehsPerHour="9.885778608142544" departLane="free"/>
  <flow id="JF21299" begin="120" fromJunction="J5" toJunction="J6" end="180" vehsPerHour="65.20017635164993" departLane="free"/>
  <flow id="JF21300" begin="120" fromJunction="J5" toJunction="J7" end="180" vehsPerHour="60.83520851539121" departLane="free"/>
  <flow id="JF21301" begin="120" fromJunction="J5" toJunction="J4" end="180" vehsPerHour="66.01742905911168" departLane="free"/>
  <flow id="JF21302" begin="120" fromJunction="J6" toJunction="J3" end="180" vehsPerHour="66.98727099956369" departLane="free"/>
  <flow id="JF21303" begin="120" fromJunction="J6" toJunction="J0" end="180" vehsPerHour="60.36263291309653" departLane="free"/>
  <flow id="JF21304" begin="120" fromJunction="J7" toJunction="J3" end="180" vehsPerHour="28.23659456453782" departLane="free"/>
  <flow id="JF21305" begin="120" fromJunction="J7" toJunction="J0" end="180" vehsPerHour="25.27675088889592" departLane="free"/>
  <flow id="JF21306" begin="120" fromJunction="J4" toJunction="J3" end="180" vehsPerHour="1.7437635445730113" departLane="free"/>
  <flow id="JF21307" begin="120" fromJunction="J4" toJunction="J0" end="180" vehsPerHour="41.754162763279766" departLane="free"/>
  <flow id="JF21308" begin="120" fromJunction="J5" toJunction="J3" end="180" vehsPerHour="47.078056519295735" departLane="free"/>
  <flow id="JF21309" begin="120" fromJunction="J5" toJunction="J0" end="180" vehsPerHour="62.35217228750399" departLane="free"/>
  <flow id="JF21310" begin="180" fromJunction="J3" toJunction="J0" end="240" vehsPerHour="101.7345509116308" departLane="free"/>
  <flow id="JF21311" begin="180" fromJunction="J0" toJunction="J3" end="240" vehsPerHour="128.07443862134912" departLane="free"/>
  <flow id="JF21312" begin="180" fromJunction="J3" toJunction="J6" end="240" vehsPerHour="49.64143748409248" departLane="free"/>
  <flow id="JF21313" begin="180" fromJunction="J3" toJunction="J7" end="240" vehsPerHour="96.67356028074454" departLane="free"/>
  <flow id="JF21314" begin="180" fromJunction="J3" toJunction="J4" end="240" vehsPerHour="65.31551189749875" departLane="free"/>
  <flow id="JF21315" begin="180" fromJunction="J3" toJunction="J5" end="240" vehsPerHour="133.9555242660391" departLane="free"/>
  <flow id="JF21316" begin="180" fromJunction="J0" toJunction="J6" end="240" vehsPerHour="130.26771656269904" departLane="free"/>
  <flow id="JF21317" begin="180" fromJunction="J0" toJunction="J7" end="240" vehsPerHour="88.70576307918353" departLane="free"/>
  <flow id="JF21318" begin="180" fromJunction="J0" toJunction="J4" end="240" vehsPerHour="26.499141551805387" departLane="free"/>
  <flow id="JF21319" begin="180" fromJunction="J0" toJunction="J5" end="240" vehsPerHour="101.17597170186612" departLane="free"/>
  <flow id="JF21320" begin="180" fromJunction="J6" toJunction="J7" end="240" vehsPerHour="52.30793419167833" departLane="free"/>
  <flow id="JF21321" begin="180" fromJunction="J6" toJunction="J4" end="240" vehsPerHour="52.5668634073741" departLane="free"/>
  <flow id="JF21322" begin="180" fromJunction="J6" toJunction="J5" end="240" vehsPerHour="60.360743895238144" departLane="free"/>
  <flow id="JF21323" begin="180" fromJunction="J7" toJunction="J6" end="240" vehsPerHour="44.41462607358957" departLane="free"/>
  <flow id="JF21324" begin="180" fromJunction="J7" toJunction="J4" end="240" vehsPerHour="39.06623402203773" departLane="free"/>
  <flow id="JF21325" begin="180" fromJunction="J7" toJunction="J5" end="240" vehsPerHour="2.320596735254645" departLane="free"/>
  <flow id="JF21326" begin="180" fromJunction="J4" toJunction="J6" end="240" vehsPerHour="32.998600238795426" departLane="free"/>
  <flow id="JF21327" begin="180" fromJunction="J4" toJunction="J7" end="240" vehsPerHour="54.81703767203748" departLane="free"/>
  <flow id="JF21328" begin="180" fromJunction="J4" toJunction="J5" end="240" vehsPerHour="35.758323183734596" departLane="free"/>
  <flow id="JF21329" begin="180" fromJunction="J5" toJunction="J6" end="240" vehsPerHour="54.62056391331197" departLane="free"/>
  <flow id="JF21330" begin="180" fromJunction="J5" toJunction="J7" end="240" vehsPerHour="63.42585498692643" departLane="free"/>
  <flow id="JF21331" begin="180" fromJunction="J5" toJunction="J4" end="240" vehsPerHour="24.400552030725315" departLane="free"/>
  <flow id="JF21332" begin="180" fromJunction="J6" toJunction="J3" end="240" vehsPerHour="66.59978464256231" departLane="free"/>
  <flow id="JF21333" begin="180" fromJunction="J6" toJunction="J0" end="240" vehsPerHour="65.45977187124309" departLane="free"/>
  <flow id="JF21334" begin="180" fromJunction="J7" toJunction="J3" end="240" vehsPerHour="54.90417055755927" departLane="free"/>
  <flow id="JF21335" begin="180" fromJunction="J7" toJunction="J0" end="240" vehsPerHour="50.53539226544532" departLane="free"/>
  <flow id="JF21336" begin="180" fromJunction="J4" toJunction="J3" end="240" vehsPerHour="65.62003313891304" departLane="free"/>
  <flow id="JF21337" begin="180" fromJunction="J4" toJunction="J0" end="240" vehsPerHour="59.29451929735291" departLane="free"/>
  <flow id="JF21338" begin="180" fromJunction="J5" toJunction="J3" end="240" vehsPerHour="47.2142248210132" departLane="free"/>
  <flow id="JF21339" begin="180" fromJunction="J5" toJunction="J0" end="240" vehsPerHour="17.595373057543362" departLane="free"/>
  <flow id="JF21340" begin="240" fromJunction="J3" toJunction="J0" end="300" vehsPerHour="78.71339956921256" departLane="free"/>
  <flow id="JF21341" begin="240" fromJunction="J0" toJunction="J3" end="300" vehsPerHour="113.51458827990172" departLane="free"/>
  <flow id="JF21342" begin="240" fromJunction="J3" toJunction="J6" end="300" vehsPerHour="84.63100161310891" departLane="free"/>
  <flow id="JF21343" begin="240" fromJunction="J3" toJunction="J7" end="300" vehsPerHour="81.64399872489311" departLane="free"/>
  <flow id="JF21344" begin="240" fromJunction="J3" toJunction="J4" end="300" vehsPerHour="21.957069987697604" departLane="free"/>
  <flow id="JF21345" begin="240" fromJunction="J3" toJunction="J5" end="300" vehsPerHour="76.21150383235917" departLane="free"/>
  <flow id="JF21346" begin="240" fromJunction="J0" toJunction="J6" end="300" vehsPerHour="93.77325555059431" departLane="free"/>
  <flow id="JF21347" begin="240" fromJunction="J0" toJunction="J7" end="300" vehsPerHour="6.482232019834582" departLane="free"/>
  <flow id="JF21348" begin="240" fromJunction="J0" toJunction="J4" end="300" vehsPerHour="15.372471227121599" departLane="free"/>
  <flow id="JF21349" begin="240" fromJunction="J0" toJunction="J5" end="300" vehsPerHour="30.023929530778044" departLane="free"/>
  <flow id="JF21350" begin="240" fromJunction="J6" toJunction="J7" end="300" vehsPerHour="22.574783099750523" departLane="free"/>
  <flow id="JF21351" begin="240" fromJunction="J6" toJunction="J4" end="300" vehsPerHour="54.17070456150722" departLane="free"/>
  <flow id="JF21352" begin="240" fromJunction="J6" toJunction="J5" end="300" vehsPerHour="36.30495336075059" departLane="free"/>
  <flow id="JF21353" begin="240" fromJunction="J7" toJunction="J6" end="300" vehsPerHour="49.418583759953066" departLane="free"/>
  <flow id="JF21354" begin="240" fromJunction="J7" toJunction="J4" end="300" vehsPerHour="65.81230475024253" departLane="free"/>
  <flow id="JF21355" begin="240" fromJunction="J7" toJunction="J5" end="300" vehsPerHour="64.74731290444248" departLane="free"/>
  <flow id="JF21356" begin="240" fromJunction="J4" toJunction="J6" end="300" vehsPerHour="7.90275747554149" departLane="free"/>
  <flow id="JF21357" begin="240" fromJunction="J4" toJunction="J7" end="300" vehsPerHour="48.83822562392676" departLane="free"/>
  <flow id="JF21358" begin="240" fromJunction="J4" toJunction="J5" end="300" vehsPerHour="38.62207555251804" departLane="free"/>
  <flow id="JF21359" begin="240" fromJunction="J5" toJunction="J6" end="300" vehsPerHour="42.09086613703073" departLane="free"/>
  <flow id="JF21360" begin="240" fromJunction="J5" toJunction="J7" end="300" vehsPerHour="21.329662327791656" departLane="free"/>
  <flow id="JF21361" begin="240" fromJunction="J5" toJunction="J4" end="300" vehsPerHour="56.22003225760981" departLane="free"/>
  <flow id="JF21362" begin="240" fromJunction="J6" toJunction="J3" end="300" vehsPerHour="1.4264886467558486" departLane="free"/>
  <flow id="JF21363" begin="240" fromJunction="J6" toJunction="J0" end="300" vehsPerHour="29.58322442062649" departLane="free"/>
  <flow id="JF21364" begin="240" fromJunction="J7" toJunction="J3" end="300" vehsPerHour="8.752960224769591" departLane="free"/>
  <flow id="JF21365" begin="240" fromJunction="J7" toJunction="J0" end="300" vehsPerHour="17.2507057235141" departLane="free"/>
  <flow id="JF21366" begin="240" fromJunction="J4" toJunction="J3" end="300" vehsPerHour="37.115129681240425" departLane="free"/>
  <flow id="JF21367" begin="240" fromJunction="J4" toJunction="J0" end="300" vehsPerHour="39.42860995705607" departLane="free"/>
  <flow id="JF21368" begin="240" fromJunction="J5" toJunction="J3" end="300" vehsPerHour="6.16663481202029" departLane="free"/>
  <flow id="JF21369" begin="240" fromJunction="J5" toJunction="J0" end="300" vehsPerHour="23.103207586758323" departLane="free"/>
  <flow id="JF21370" begin="300" fromJunction="J3" toJunction="J0" end="360" vehsPerHour="5.325677318712844" departLane="free"/>
  <flow id="JF21371" begin="300" fromJunction="J0" toJunction="J3" end="360" vehsPerHour="3.7637858775219164" departLane="free"/>
  <flow id="JF21372" begin="300" fromJunction="J3" toJunction="J6" end="360" vehsPerHour="10.56920258879979" departLane="free"/>
  <flow id="JF21373" begin="300" fromJunction="J3" toJunction="J7" end="360" vehsPerHour="80.38408468833529" departLane="free"/>
  <flow id="JF21374" begin="300" fromJunction="J3" toJunction="J4" end="360" vehsPerHour="47.777028271154016" departLane="free"/>
  <flow id="JF21375" begin="300" fromJunction="J3" toJunction="J5" end="360" vehsPerHour="123.39702196639857" departLane="free"/>
  <flow id="JF21376" begin="300" fromJunction="J0" toJunction="J6" end="360" vehsPerHour="30.34741640496602" departLane="free"/>
  <flow id="JF21377" begin="300" fromJunction="J0" toJunction="J7" end="360" vehsPerHour="12.46000638628141" departLane="free"/>
  <flow id="JF21378" begin="300" fromJunction="J0" toJunction="J4" end="360" vehsPerHour="80.40097320160199" departLane="free"/>
  <flow id="JF21379" begin="300" fromJunction="J0" toJunction="J5" end="360" vehsPerHour="93.99739496502107" departLane="free"/>
  <flow id="JF21380" begin="300" fromJunction="J6" toJunction="J7" end="360" vehsPerHour="63.435067280145816" departLane="free"/>
  <flow id="JF21381" begin="300" fromJunction="J6" toJunction="J4" end="360" vehsPerHour="51.43526929727688" departLane="free"/>
  <flow id="JF21382" begin="300" fromJunction="J6" toJunction="J5" end="360" vehsPerHour="26.946960614080595" departLane="free"/>
  <flow id="JF21383" begin="300" fromJunction="J7" toJunction="J6" end="360" vehsPerHour="26.483026578231133" departLane="free"/>
  <flow id="JF21384" begin="300" fromJunction="J7" toJunction="J4" end="360" vehsPerHour="46.963427760460256" departLane="free"/>
  <flow id="JF21385" begin="300" fromJunction="J7" toJunction="J5" end="360" vehsPerHour="21.785198917379198" departLane="free"/>
  <flow id="JF21386" begin="300" fromJunction="J4" toJunction="J6" end="360" vehsPerHour="9.559647865778786" departLane="free"/>
  <flow id="JF21387" begin="300" fromJunction="J4" toJunction="J7" end="360" vehsPerHour="33.67647061861483" departLane="free"/>
  <flow id="JF21388" begin="300" fromJunction="J4" toJunction="J5" end="360" vehsPerHour="49.39251715235597" departLane="free"/>
  <flow id="JF21389" begin="300" fromJunction="J5" toJunction="J6" end="360" vehsPerHour="54.09154200895305" departLane="free"/>
  <flow id="JF21390" begin="300" fromJunction="J5" toJunction="J7" end="360" vehsPerHour="14.263679133598085" departLane="free"/>
  <flow id="JF21391" begin="300" fromJunction="J5" toJunction="J4" end="360" vehsPerHour="3.750957045361207" departLane="free"/>
  <flow id="JF21392" begin="300" fromJunction="J6" toJunction="J3" end="360" vehsPerHour="25.778418274526214" departLane="free"/>
  <flow id="JF21393" begin="300" fromJunction="J6" toJunction="J0" end="360" vehsPerHour="14.347602250495532" departLane="free"/>
  <flow id="JF21394" begin="300" fromJunction="J7" toJunction="J3" end="360" vehsPerHour="10.145970851425993" departLane="free"/>
  <flow id="JF21395" begin="300" fromJunction="J7" toJunction="J0" end="360" vehsPerHour="43.59393345213959" departLane="free"/>
  <flow id="JF21396" begin="300" fromJunction="J4" toJunction="J3" end="360" vehsPerHour="51.51033893544629" departLane="free"/>
  <flow id="JF21397" begin="300" fromJunction="J4" toJunction="J0" end="360" vehsPerHour="45.14810563788859" departLane="free"/>
  <flow id="JF21398" begin="300" fromJunction="J5" toJunction="J3" end="360" vehsPerHour="14.404004771419011" departLane="free"/>
  <flow id="JF21399" begin="300" fromJunction="J5" toJunction="J0" end="360" vehsPerHour="27.91588128829852" departLane="free"/>
  <flow id="JF21400" begin="360" fromJunction="J3" toJunction="J0" end="420" vehsPerHour="30.524340444587047" departLane="free"/>
  <flow id="JF21401" begin="360" fromJunction="J0" toJunction="J3" end="420" vehsPerHour="31.581021622536888" departLane="free"/>
  <flow id="JF21402" begin="360" fromJunction="J3" toJunction="J6" end="420" vehsPerHour="96.32814231792702" departLane="free"/>
  <flow id="JF21403" begin="360" fromJunction="J3" toJunction="J7" end="420" vehsPerHour="55.459791266374964" departLane="free"/>
  <flow id="JF21404" begin="360" fromJunction="J3" toJunction="J4" end="420" vehsPerHour="43.34802771284959" departLane="free"/>
  <flow id="JF21405" begin="360" fromJunction="J3" toJunction="J5" end="420" vehsPerHour="50.899676636592" departLane="free"/>
  <flow id="JF21406" begin="360" fromJunction="J0" toJunction="J6" end="420" vehsPerHour="119.91066540043089" departLane="free"/>
  <flow id="JF21407" begin="360" fromJunction="J0" toJunction="J7" end="420" vehsPerHour="69.71219137818751" departLane="free"/>
  <flow id="JF21408" begin="360" fromJunction="J0" toJunction="J4" end="420" vehsPerHour="35.04305170668866" departLane="free"/>
  <flow id="JF21409" begin="360" fromJunction="J0" toJunction="J5" end="420" vehsPerHour="58.27831440991915" departLane="free"/>
  <flow id="JF21410" begin="420" fromJunction="J3" toJunction="J0" end="480" vehsPerHour="34.818494914361985" departLane="free"/>
  <flow id="JF21411" begin="420" fromJunction="J0" toJunction="J3" end="480" vehsPerHour="109.05262743455862" departLane="free"/>
  <flow id="JF21412" begin="420" fromJunction="J3" toJunction="J6" end="480" vehsPerHour="46.96815911708029" departLane="free"/>
  <flow id="JF21413" begin="420" fromJunction="J3" toJunction="J7" end="480" vehsPerHour="12.60829617734199" departLane="free"/>
  <flow id="JF21414" begin="420" fromJunction="J3" toJunction="J4" end="480" vehsPerHour="103.1393993598427" departLane="free"/>
  <flow id="JF21415" begin="420" fromJunction="J3" toJunction="J5" end="480" vehsPerHour="104.55871045905185" departLane="free"/>
  <flow id="JF21416" begin="420" fromJunction="J0" toJunction="J6" end="480" vehsPerHour="122.07617774576927" departLane="free"/>
  <flow id="JF21417" begin="420" fromJunction="J0" toJunction="J7" end="480" vehsPerHour="22.534367313702923" departLane="free"/>
  <flow id="JF21418" begin="420" fromJunction="J0" toJunction="J4" end="480" vehsPerHour="32.15912972290839" departLane="free"/>
  <flow id="JF21419" begin="420" fromJunction="J0" toJunction="J5" end="480" vehsPerHour="81.39745907681932" departLane="free"/>
  <flow id="JF21420" begin="420" fromJunction="J6" toJunction="J7" end="480" vehsPerHour="28.264965032656917" departLane="free"/>
  <flow id="JF21421" begin="420" fromJunction="J6" toJunction="J4" end="480" vehsPerHour="67.22011797471544" departLane="free"/>
  <flow id="JF21422" begin="420" fromJunction="J6" toJunction="J5" end="480" vehsPerHour="51.56213826570353" departLane="free"/>
  <flow id="JF21423" begin="420" fromJunction="J7" toJunction="J6" end="480" vehsPerHour="59.76938979338814" departLane="free"/>
  <flow id="JF21424" begin="420" fromJunction="J7" toJunction="J4" end="480" vehsPerHour="31.718945915686582" departLane="free"/>
  <flow id="JF21425" begin="420" fromJunction="J7" toJunction="J5" end="480" vehsPerHour="1.5004792498473896" departLane="free"/>
  <flow id="JF21426" begin="420" fromJunction="J4" toJunction="J6" end="480" vehsPerHour="3.9146959912878665" departLane="free"/>
  <flow id="JF21427" begin="420" fromJunction="J4" toJunction="J7" end="480" vehsPerHour="6.016643351413015" departLane="free"/>
  <flow id="JF21428" begin="420" fromJunction="J4" toJunction="J5" end="480" vehsPerHour="25.569406475093" departLane="free"/>
  <flow id="JF21429" begin="420" fromJunction="J5" toJunction="J6" end="480" vehsPerHour="16.466110282378708" departLane="free"/>
  <flow id="JF21430" begin="420" fromJunction="J5" toJunction="J7" end="480" vehsPerHour="57.777470840342026" departLane="free"/>
  <flow id="JF21431" begin="420" fromJunction="J5" toJunction="J4" end="480" vehsPerHour="22.83385076764155" departLane="free"/>
  <flow id="JF21432" begin="420" fromJunction="J6" toJunction="J3" end="480" vehsPerHour="48.48943597669669" departLane="free"/>
  <flow id="JF21433" begin="420" fromJunction="J6" toJunction="J0" end="480" vehsPerHour="45.481445626374146" departLane="free"/>
  <flow id="JF21434" begin="420" fromJunction="J7" toJunction="J3" end="480" vehsPerHour="64.86468353729292" departLane="free"/>
  <flow id="JF21435" begin="420" fromJunction="J7" toJunction="J0" end="480" vehsPerHour="4.234983542526246" departLane="free"/>
  <flow id="JF21436" begin="420" fromJunction="J4" toJunction="J3" end="480" vehsPerHour="64.13739234034065" departLane="free"/>
  <flow id="JF21437" begin="420" fromJunction="J4" toJunction="J0" end="480" vehsPerHour="16.481007369515034" departLane="free"/>
  <flow id="JF21438" begin="420" fromJunction="J5" toJunction="J3" end="480" vehsPerHour="24.755048011138108" departLane="free"/>
  <flow id="JF21439" begin="420" fromJunction="J5" toJunction="J0" end="480" vehsPerHour="68.53095458460604" departLane="free"/>
  <flow id="JF21440" begin="480" fromJunction="J3" toJunction="J0" end="540" vehsPerHour="51.21074428801136" departLane="free"/>
  <flow id="JF21441" begin="480" fromJunction="J0" toJunction="J3" end="540" vehsPerHour="76.38495167871791" departLane="free"/>
  <flow id="JF21442" begin="480" fromJunction="J3" toJunction="J6" end="540" vehsPerHour="130.0477812965783" departLane="free"/>
  <flow id="JF21443" begin="480" fromJunction="J3" toJunction="J7" end="540" vehsPerHour="80.19196853466222" departLane="free"/>
  <flow id="JF21444" begin="480" fromJunction="J3" toJunction="J4" end="540" vehsPerHour="127.1814595104135" departLane="free"/>
  <flow id="JF21445" begin="480" fromJunction="J3" toJunction="J5" end="540" vehsPerHour="99.5001068928251" departLane="free"/>
  <flow id="JF21446" begin="480" fromJunction="J0" toJunction="J6" end="540" vehsPerHour="132.6856614110764" departLane="free"/>
  <flow id="JF21447" begin="480" fromJunction="J0" toJunction="J7" end="540" vehsPerHour="4.069248904165897" departLane="free"/>
  <flow id="JF21448" begin="480" fromJunction="J0" toJunction="J4" end="540" vehsPerHour="54.510617335922895" departLane="free"/>
  <flow id="JF21449" begin="480" fromJunction="J0" toJunction="J5" end="540" vehsPerHour="133.08734785536296" departLane="free"/>
  <flow id="JF21450" begin="540" fromJunction="J3" toJunction="J0" end="600" vehsPerHour="14.478110044396189" departLane="free"/>