<?xml version="1.0" encoding="UTF-8"?>
<routes xmlns:xsi="http://www.w3.org/2001/XMLSchema-instance" xsi:noNamespaceSchemaLocation="http://sumo.dlr.de/xsd/routes_file.xsd">
  <flow id="JF25200" begin="0" fromJunction="J3" toJunction="J0" end="60" vehsPerHour="77.76320265906966" departLane="free"/>
  <flow id="JF25201" begin="0" fromJunction="J0" toJunction="J3" end="60" vehsPerHour="53.19187880585791" departLane="free"/>
  <flow id="JF25202" begin="0" fromJunction="J3" toJunction="J6" end="60" vehsPerHour="56.797014944828646" departLane="free"/>
  <flow id="JF25203" begin="0" fromJunction="J3" toJunction="J7" end="60" vehsPerHour="14.141682535550084" departLane="free"/>
  <flow id="JF25204" begin="0" fromJunction="J3" toJunction="J4" end="60" vehsPerHour="67.85781938995258" departLane="free"/>
  <flow id="JF25205" begin="0" fromJunction="J3" toJunction="J5" end="60" vehsPerHour="111.1219048130025" departLane="free"/>
  <flow id="JF25206" begin="0" fromJunction="J0" toJunction="J6" end="60" vehsPerHour="30.579918372076964" departLane="free"/>
  <flow id="JF25207" begin="0" fromJunction="J0" toJunction="J7" end="60" vehsPerHour="111.53345584340467" departLane="free"/>
  <flow id="JF25208" begin="0" fromJunction="J0" toJunction="J4" end="60" vehsPerHour="127.42378629719167" departLane="free"/>
  <flow id="JF25209" begin="0" fromJunction="J0" toJunction="J5" end="60" vehsPerHour="42.005187028525604" departLane="free"/>
  <flow id="JF25210" begin="0" fromJunction="J6" toJunction="J7" end="60" vehsPerHour="7.683247758338812" departLane="free"/>
  <flow id="JF25211" begin="0" fromJunction="J6" toJunction="J4" end="60" vehsPerHour="35.738585908932386" departLane="free"/>
  <flow id="JF25212" begin="0" fromJunction="J6" toJunction="J5" end="60" vehsPerHour="17.14417105633884" departLane="free"/>
  <flow id="JF25213" begin="0" fromJunction="J7" toJunction="J6" end="60" vehsPerHour="29.97734872172037" departLane="free"/>
  <flow id="JF25214" begin="0" fromJunction="J7" toJunction="J4" end="60" vehsPerHour="46.34552509203342" departLane="free"/>
  <flow id="JF25215" begin="0" fromJunction="J7" toJunction="J5" end="60" vehsPerHour="19.28065312870673" departLane="free"/>
  <flow id="JF25216" begin="0" fromJunction="J4" toJunction="J6" end="60" vehsPerHour="6.203105706284557" departLane="free"/>
  <flow id="JF25217" begin="0" fromJunction="J4" toJunction="J7" end="60" vehsPerHour="18.562390528083885" departLane="free"/>
  <flow id="JF25218" begin="0" fromJunction="J4" toJunction="J5" end="60" vehsPerHour="29.273360475058684" departLane="free"/>
  <flow id="JF25219" begin="0" fromJunction="J5" toJunction="J6" end="60" vehsPerHour="9.40850406206292" departLane="free"/>
  <flow id="JF25220" begin="0" fromJunction="J5" toJunction="J7" end="60" vehsPerHour="17.842539889800538" departLane="free"/>
  <flow id="JF25221" begin="0" fromJunction="J5" toJunction="J4" end="60" vehsPerHour="66.95663806506224" departLane="free"/>
  <flow id="JF25222" begin="0" fromJunction="J6" toJunction="J3" end="60" vehsPerHour="25.510988005110644" departLane="free"/>
  <flow id="JF25223" begin="0" fromJunction="J6" toJunction="J0" end="60" vehsPerHour="19.446311101413222" departLane="free"/>
  <flow id="JF25224" begin="0" fromJunction="J7" toJunction="J3" end="60" vehsPerHour="1.3860957963713003" departLane="free"/>
  <flow id="JF25225" begin="0" fromJunction="J7" toJunction="J0" end="60" vehsPerHour="61.018720613310514" departLane="free"/>
  <flow id="JF25226" begin="0" fromJunction="J4" toJunction="J3" end="60" vehsPerHour="11.32013239444449" departLane="free"/>
  <flow id="JF25227" begin="0" fromJunction="J4" toJunction="J0" end="60" vehsPerHour="65.69974612180138" departLane="free"/>
  <flow id="JF25228" begin="0" fromJunction="J5" toJunction="J3" end="60" vehsPerHour="52.895918502105125" departLane="free"/>
  <flow id="JF25229" begin="0" fromJunction="J5" toJunction="J0" end="60" vehsPerHour="42.75991104208197" departLane="free"/>
  <flow id="JF25230" begin="60" fromJunction="J3" toJunction="J0" end="120" vehsPerHour="63.98687150925417" departLane="free"/>
  <flow id="JF25231" begin="60" fromJunction="J0" toJunction="J3" end="120" vehsPerHour="34.15260926530662" departLane="free"/>
  <flow id="JF25232" begin="60" fromJunction="J3" toJunction="J6" end="120" vehsPerHour="130.18448125236682" departLane="free"/>
  <flow id="JF25233" begin="60" fromJunction="J3" toJunction="J7" end="120" vehsPerHour="36.06384918871458" departLane="free"/>
  <flow id="JF25234" begin="60" fromJunction="J3" toJunction="J4" end="120" vehsPerHour="117.37121723450342" departLane="free"/>
  <flow id="JF25235" begin="60" fromJunction="J3" toJunction="J5" end="120" vehsPerHour="55.08948892271019" departLane="free"/>
  <flow id="JF25236" begin="60" fromJunction="J0" toJunction="J6" end="120" vehsPerHour="50.38749737673661" departLane="free"/>
  <flow id="JF25237" begin="60" fromJunction="J0" toJunction="J7" end="120" vehsPerHour="76.1290256068177" departLane="free"/>
  <flow id="JF25238" begin="60" fromJunction="J0" toJunction="J4" end="120" vehsPerHour="72.89039318424794" departLane="free"/>
  <flow id="JF25239" begin="60" fromJunction="J0" toJunction="J5" end="120" vehsPerHour="12.029867824466898" departLane="free"/>
  <flow id="JF25240" begin="60" fromJunction="J6" toJunction="J7" end="120" vehsPerHour="50.02973900093956" departLane="free"/>
  <flow id="JF25241" begin="60" fromJunction="J6" toJunction="J4" end="120" vehsPerHour="68.37994713740865" departLane="free"/>
  <flow id="JF25242" begin="60" fromJunction="J6" toJunction="J5" end="120" vehsPerHour="67.38036248370298" departLane="free"/>
  <flow id="JF25243" begin="60" fromJunction="J7" toJunction="J6" end="120" vehsPerHour="62.22739110779134" departLane="free"/>
  <flow id="JF25244" begin="60" fromJunction="J7" toJunction="J4" end="120" vehsPerHour="48.50215475489448" departLane="free"/>
  <flow id="JF25245" begin="60" fromJunction="J7" toJunction="J5" end="120" vehsPerHour="16.03210468068994" departLane="free"/>
  <flow id="JF25246" begin="60" fromJunction="J4" toJunction="J6" end="120" vehsPerHour="56.62072181521886" departLane="free"/>
  <flow id="JF25247" begin="60" fromJunction="J4" toJunction="J7" end="120" vehsPerHour="23.459765006655786" departLane="free"/>
  <flow id="JF25248" begin="60" fromJunction="J4" toJunction="J5" end="120" vehsPerHour="33.67537417680227" departLane="free"/>
  <flow id="JF25249" begin="60" fromJunction="J5" toJunction="J6" end="120" vehsPerHour="30.08554387888103" departLane="free"/>
  <flow id="JF25250" begin="60" fromJunction="J5" toJunction="J7" end="120" vehsPerHour="36.87303028889711" departLane="free"/>
  <flow id="JF25251" begin="60" fromJunction="J5" toJunction="J4" end="120" vehsPerHour="7.49494914355579" departLane="free"/>
  <flow id="JF25252" begin="60" fromJunction="J6" toJunction="J3" end="120" vehsPerHour="66.50422561945977" departLane="free"/>
  <flow id="JF25253" begin="60" fromJunction="J6" toJunction="J0" end="120" vehsPerHour="57.43814099826768" departLane="free"/>
  <flow id="JF25254" begin="60" fromJunction="J7" toJunction="J3" end="120" vehsPerHour="12.446982959347045" departLane="free"/>
  <flow id="JF25255" begin="60" fromJunction="J7" toJunction="J0" end="120" vehsPerHour="12.936520276517587" departLane="free"/>
  <flow id="JF25256" begin="60" fromJunction="J4" toJunction="J3" end="120" vehsPerHour="34.913142160253706" departLane="free"/>
  <flow id="JF25257" begin="60" fromJunction="J4" toJunction="J0" end="120" vehsPerHour="12.394404974174861" departLane="free"/>
  <flow id="JF25258" begin="60" fromJunction="J5" toJunction="J3" end="120" vehsPerHour="0.8791793549341353" departLane="free"/>
  <flow id="JF25259" begin="60" fromJunction="J5" toJunction="J0" end="120" vehsPerHour="63.853396771893834" departLane="free"/>
  <flow id="JF25260" begin="120" fromJunction="J3" toJunction="J0" end="180" vehsPerHour="34.053495949323974" departLane="free"/>
  <flow id="JF25261" begin="120" fromJunction="J0" toJunction="J3" end="180" vehsPerHour="119.32737018409843" departLane="free"/>
  <flow id="JF25262" begin="120" fromJunction="J3" toJunction="J6" end="180" vehsPerHour="37.19506204288293" departLane="free"/>
  <flow id="JF25263" begin="120" fromJunction="J3" toJunction="J7" end="180" vehsPerHour="102.66166038098675" departLane="free"/>
  <flow id="JF25264" begin="120" fromJunction="J3" toJunction="J4" end="180" vehsPerHour="125.70724294267262" departLane="free"/>
  <flow id="JF25265" begin="120" fromJunction="J3" toJunction="J5" end="180" vehsPerHour="12.397912944104938" departLane="free"/>
  <flow id="JF25266" begin="120" fromJunction="J0" toJunction="J6" end="180" vehsPerHour="119.34160657307147" departLane="free"/>
  <flow id="JF25267" begin="120" fromJunction="J0" toJunction="J7" end="180" vehsPerHour="111.22385929506092" departLane="free"/>
  <flow id="JF25268" begin="120" fromJunction="J0" toJunction="J4" end="180" vehsPerHour="106.72305043872484" departLane="free"/>
  <flow id="JF25269" begin="120" fromJunction="J0" toJunction="J5" end="180" vehsPerHour="45.90687070301429" departLane="free"/>
  <flow id="JF25270" begin="120" fromJunction="J6" toJunction="J7" end="180" vehsPerHour="52.04477176126766" departLane="free"/>
  <flow id="JF25271" begin="120" fromJunction="J6" toJunction="J4" end="180" vehsPerHour="56.479998741407655" departLane="free"/>
  <flow id="JF25272" begin="120" fromJunction="J6" toJunction="J5" end="180" vehsPerHour="16.932213021749114" departLane="free"/>
  <flow id="JF25273" begin="120" fromJunction="J7" toJunction="J6" end="180" vehsPerHour="9.422118177329363" departLane="free"/>
  <flow id="JF25274" begin="120" fromJunction="J7" toJunction="J4" end="180" vehsPerHour="48.55173760531807" departLane="free"/>
  <flow id="JF25275" begin="120" fromJunction="J7" toJunction="J5" end="180" vehsPerHour="41.96130296584062" departLane="free"/>
  <flow id="JF25276" begin="120" fromJunction="J4" toJunction="J6" end="180" vehsPerHour="14.525387317746993" departLane="free"/>
  <flow id="JF25277" begin="120" fromJunction="J4" toJunction="J7" end="180" vehsPerHour="55.68099735551021" departLane="free"/>
  <flow id="JF25278" begin="120" fromJunction="J4" toJunction="J5" end="180" vehsPerHour="59.880272736322425" departLane="free"/>
  <flow id="JF25279" begin="120" fromJunction="J5" toJunction="J6" end="180" vehsPerHour="13.077101657291673" departLane="free"/>
  <flow id="JF25280" begin="120" fromJunction="J5" toJunction="J7" end="180" vehsPerHour="31.40167986734594" departLane="free"/>
  <flow id="JF25281" begin="120" fromJunction="J5" toJunction="J4" end="180" vehsPerHour="52.799959853664035" departLane="free"/>
  <flow id="JF25282" begin="120" fromJunction="J6" toJunction="J3" end="180" vehsPerHour="49.44248237339664" departLane="free"/>
  <flow id="JF25283" begin="120" fromJunction="J6" toJunction="J0" end="180" vehsPerHour="27.920255718272966" departLane="free"/>
  <flow id="JF25284" begin="120" fromJunction="J7" toJunction="J3" end="180" vehsPerHour="0.8653371316055346" departLane="free"/>
  <flow id="JF25285" begin="120" fromJunction="J7" toJunction="J0" end="180" vehsPerHour="17.225900474558646" departLane="free"/>
  <flow id="JF25286" begin="120" fromJunction="J4" toJunction="J3" end="180" vehsPerHour="55.93353609235951" departLane="free"/>
  <flow id="JF25287" begin="120" fromJunction="J4" toJunction="J0" end="180" vehsPerHour="2.3793439297569603" departLane="free"/>
  <flow id="JF25288" begin="120" fromJunction="J5" toJunction="J3" end="180" vehsPerHour="58.67491818970638" departLane="free"/>
  <flow id="JF25289" begin="120" fromJunction="J5" toJunction="J0" end="180" vehsPerHour="45.14716672244269" departLane="free"/>
  <flow id="JF25290" begin="180" fromJunction="J3" toJunction="J0" end="240" vehsPerHour="1.3137459346533358" departLane="free"/>
  <flow id="JF25291" begin="180" fromJunction="J0" toJunction="J3" end="240" vehsPerHour="69.96621827468446" departLane="free"/>
  <flow id="JF25292" begin="180" fromJunction="J3" toJunction="J6" end="240" vehsPerHour="125.55357493579682" departLane="free"/>
  <flow id="JF25293" begin="180" fromJunction="J3" toJunction="J7" end="240" vehsPerHour="131.86028223537824" departLane="free"/>
  <flow id="JF25294" begin="180" fromJunction="J3" toJunction="J4" end="240" vehsPerHour="96.65320556659024" departLane="free"/>
  <flow id="JF25295" begin="180" fromJunction="J3" toJunction="J5" end="240" vehsPerHour="25.668597634301516" departLane="free"/>
  <flow id="JF25296" begin="180" fromJunction="J0" toJunction="J6" end="240" vehsPerHour="12.724998095265212" departLane="free"/>
  <flow id="JF25297" begin="180" fromJunction="J0" toJunction="J7" end="240" vehsPerHour="62.06995987162137" departLane="free"/>
  <flow id="JF25298" begin="180" fromJunction="J0" toJunction="J4" end="240" vehsPerHour="124.53144462733958" departLane="free"/>
  <flow id="JF25299" begin="180" fromJunction="J0" toJunction="J5" end="240" vehsPerHour="107.01087149963907" departLane="free"/>
  <flow id="JF25300" begin="180" fromJunction="J6" toJunction="J7" end="240" vehsPerHour="34.93210104925838" departLane="free"/>
  <flow id="JF25301" begin="180" fromJunction="J6" toJunction="J4" end="240" vehsPerHour="25.00382488772163" departLane="free"/>
  <flow id="JF25302" begin="180" fromJunction="J6" toJunction="J5" end="240" vehsPerHour="43.15230873561961" departLane="free"/>
  <flow id="JF25303" begin="180" fromJunction="J7" toJunction="J6" end="240" vehsPerHour="51.43169838757413" departLane="free"/>
  <flow id="JF25304" begin="180" fromJunction="J7" toJunction="J4" end="240" vehsPerHour="67.71584759457694" departLane="free"/>
  <flow id="JF25305" begin="180" fromJunction="J7" toJunction="J5" end="240" vehsPerHour="22.181171063607394" departLane="free"/>
  <flow id="JF25306" begin="180" fromJunction="J4" toJunction="J6" end="240" vehsPerHour="11.708813150264104" departLane="free"/>
  <flow id="JF25307" begin="180" fromJunction="J4" toJunction="J7" end="240" vehsPerHour="10.927485516596937" departLane="free"/>
  <flow id="JF25308" begin="180" fromJunction="J4" toJunction="J5" end="240" vehsPerHour="62.583969540153866" departLane="free"/>
  <flow id="JF25309" begin="180" fromJunction="J5" toJunction="J6" end="240" vehsPerHour="31.68632267366608" departLane="free"/>
  <flow id="JF25310" begin="180" fromJunction="J5" toJunction="J7" end="240" vehsPerHour="16.87667209270879" departLane="free"/>
  <flow id="JF25311" begin="180" fromJunction="J5" toJunction="J4" end="240" vehsPerHour="37.980998054337206" departLane="free"/>
  <flow id="JF25312" begin="180" fromJunction="J6" toJunction="J3" end="240" vehsPerHour="29.189173572413473" departLane="free"/>
  <flow id="JF25313" begin="180" fromJunction="J6" toJunction="J0" end="240" vehsPerHour="25.09779133485586" departLane="free"/>
  <flow id="JF25314" begin="180" fromJunction="J7" toJunction="J3" end="240" vehsPerHour="36.17887993525486" departLane="free"/>
  <flow id="JF25315" begin="180" fromJunction="J7" toJunction="J0" end="240" vehsPerHour="45.122060709500936" departLane="free"/>
  <flow id="JF25316" begin="180" fromJunction="J4" toJunction="J3" end="240" vehsPerHour="5.984355685442186" departLane="free"/>
  <flow id="JF25317" begin="180" fromJunction="J4" toJunction="J0" end="240" vehsPerHour="42.508934574550906" departLane="free"/>
  <flow id="JF25318" begin="180" fromJunction="J5" toJunction="J3" end="240" vehsPerHour="33.152557238553165" departLane="free"/>
  <flow id="JF25319" begin="180" fromJunction="J5" toJunction="J0" end="240" vehsPerHour="8.63924332614833" departLane="free"/>
  <flow id="JF25320" begin="240" fromJunction="J3" toJunction="J0" end="300" vehsPerHour="101.33097374741635" departLane="free"/>
  <flow id="JF25321" begin="240" fromJunction="J0" toJunction="J3" end="300" vehsPerHour="92.37065302687286" departLane="free"/>
  <flow id="JF25322" begin="240" fromJunction="J3" toJunction="J6" end="300" vehsPerHour="43.4205691219451" departLane="free"/>
  <flow id="JF25323" begin="240" fromJunction="J3" toJunction="J7" end="300" vehsPerHour="89.24277446166968" departLane="free"/>
  <flow id="JF25324" begin="240" fromJunction="J3" toJunction="J4" end="300" vehsPerHour="53.44910951515937" departLane="free"/>
  <flow id="JF25325" begin="240" fromJunction="J3" toJunction="J5" end="300" vehsPerHour="33.38106700493352" departLane="free"/>
  <flow id="JF25326" begin="240" fromJunction="J0" toJunction="J6" end="300" vehsPerHour="49.31794169386505" departLane="free"/>
  <flow id="JF25327" begin="240" fromJunction="J0" toJunction="J7" end="300" vehsPerHour="33.917205862837434" departLane="free"/>
  <flow id="JF25328" begin="240" fromJunction="J0" toJunction="J4" end="300" vehsPerHour="46.5775505422767" departLane="free"/>
  <flow id="JF25329" begin="240" fromJunction="J0" toJunction="J5" end="300" vehsPerHour="89.45669809693797" departLane="free"/>
  <flow id="JF25330" begin="240" fromJunction="J6" toJunction="J7" end="300" vehsPerHour="34.95084863703535" departLane="free"/>
  <flow id="JF25331" begin="240" fromJunction="J6" toJunction="J4" end="300" vehsPerHour="65.6012110787387" departLane="free"/>
  <flow id="JF25332" begin="240" fromJunction="J6" toJunction="J5" end="300" vehsPerHour="59.32841339582035" departLane="free"/>
  <flow id="JF25333" begin="240" fromJunction="J7" toJunction="J6" end="300" vehsPerHour="68.2884826572145" departLane="free"/>
  <flow id="JF25334" begin="240" fromJunction="J7" toJunction="J4" end="300" vehsPerHour="28.778555978786944" departLane="free"/>
  <flow id="JF25335" begin="240" fromJunction="J7" toJunction="J5" end="300" vehsPerHour="67.58881482421705" departLane="free"/>
  <flow id="JF25336" begin="240" fromJunction="J4" toJunction="J6" end="300" vehsPerHour="34.285753741343825" departLane="free"/>
  <flow id="JF25337" begin="240" fromJunction="J4" toJunction="J7" end="300" vehsPerHour="59.5390092552236" departLane="free"/>
  <flow id="JF25338" begin="240" fromJunction="J4" toJunction="J5" end="300" vehsPerHour="38.46324342912776" departLane="free"/>
  <flow id="JF25339" begin="240" fromJunction="J5" toJunction="J6" end="300" vehsPerHour="50.50144020564581" departLane="free"/>
  <flow id="JF25340" begin="240" fromJunction="J5" toJunction="J7" end="300" vehsPerHour="40.39846555423232" departLane="free"/>
  <flow id="JF25341" begin="240" fromJunction="J5" toJunction="J4" end="300" vehsPerHour="64.63342361438761" departLane="free"/>
  <flow id="JF25342" begin="240" fromJunction="J6" toJunction="J3" end="300" vehsPerHour="58.84342508879791" departLane="free"/>
  <flow id="JF25343" begin="240" fromJunction="J6" toJunction="J0" end="300" vehsPerHour="33.92261147475358" departLane="free"/>
  <flow id="JF25344" begin="240" fromJunction="J7" toJunction="J3" end="300" vehsPerHour="68.23224692055877" departLane="free"/>
  <flow id="JF25345" begin="240" fromJunction="J7" toJunction="J0" end="300" vehsPerHour="30.086736511646787" departLane="free"/>
  <flow id="JF25346" begin="240" fromJunction="J4" toJunction="J3" end="300" vehsPerHour="37.528772728722295" departLane="free"/>
  <flow id="JF25347" begin="240" fromJunction="J4" toJunction="J0" end="300" vehsPerHour="0.6438477940703667" departLane="free"/>
  <flow id="JF25348" begin="240" fromJunction="J5" toJunction="J3" end="300" vehsPerHour="47.865079787937326" departLane="free"/>
  <flow id="JF25349" begin="240" fromJunction="J5" toJunction="J0" end="300" vehsPerHour="10.729775518515064" departLane="free"/>
  <flow id="JF25350" begin="300" fromJunction="J3" toJunction="J0" end="360" vehsPerHour="8.66337358137817" departLane="free"/>
  <flow id="JF25351" begin="300" fromJunction="J0" toJunction="J3" end="360" vehsPerHour="117.10489813577112" departLane="free"/>
  <flow id="JF25352" begin="300" fromJunction="J3" toJunction="J6" end="360" vehsPerHour="61.78498428480669" departLane="free"/>
  <flow id="JF25353" begin="300" fromJunction="J3" toJunction="J7" end="360" vehsPerHour="70.28765590141599" departLane="free"/>
  <flow id="JF25354" begin="300" fromJunction="J3" toJunction="J4" end="360" vehsPerHour="125.21757586240376" departLane="free"/>
  <flow id="JF25355" begin="300" fromJunction="J3" toJunction="J5" end="360" vehsPerHour="32.245048068924724" departLane="free"/>
  <flow id="JF25356" begin="300" fromJunction="J0" toJunction="J6" end="360" vehsPerHour="59.00345040116114" departLane="free"/>
  <flow id="JF25357" begin="300" fromJunction="J0" toJunction="J7" end="360" vehsPerHour="123.50899713149747" departLane="free"/>
  <flow id="JF25358" begin="300" fromJunction="J0" toJunction="J4" end="360" vehsPerHour="15.210073830094776" departLane="free"/>
  <flow id="JF25359" begin="300" fromJunction="J0" toJunction="J5" end="360" vehsPerHour="105.83699507497492" departLane="free"/>
  <flow id="JF25360" begin="360" fromJunction="J3" toJunction="J0" end="420" vehsPerHour="133.5496498168305" departLane="free"/>
  <flow id="JF25361" begin="360" fromJunction="J0" toJunction="J3" end="420" vehsPerHour="133.70012473380325" departLane="free"/>
  <flow id="JF25362" begin="360" fromJunction="J3" toJunction="J6" end="420" vehsPerHour="8.454340720749396" departLane="free"/>
  <flow id="JF25363" begin="360" fromJunction="J3" toJunction="J7" end="420" vehsPerHour="20.491556385610902" departLane="free"/>
  <flow id="JF25364" begin="360" fromJunction="J3" toJunction="J4" end="420" vehsPerHour="91.92684827744432" departLane="free"/>
  <flow id="JF25365" begin="360" fromJunction="J3" toJunction="J5" end="420" vehsPerHour="128.7301507102246" departLane="free"/>
  <flow id="JF25366" begin="360" fromJunction="J0" toJunction="J6" end="420" vehsPerHour="73.06383199945986" departLane="free"/>
  <flow id="JF25367" begin="360" fromJunction="J0" toJunction="J7" end="420" vehsPerHour="84.81717530050761" departLane="free"/>
  <flow id="JF25368" begin="360" fromJunction="J0" toJunction="J4" end="420" vehsPerHour="91.55170224621045" departLane="free"/>
  <flow id="JF25369" begin="360" fromJunction="J0" toJunction="J5" end="420" vehsPerHour="122.94659955718852" departLane="free"/>
  <flow id="JF25370" begin="360" fromJunction="J6" toJunction="J7" end="420" vehsPerHour="67.85542927865534" departLane="free"/>
  <flow id="JF25371" begin="360" fromJunction="J6" toJunction="J4" end="420" vehsPerHour="3.0972252117559247" departLane="free"/>
  <flow id="JF25372" begin="360" fromJunction="J6" toJunction="J5" end="420" vehsPerHour="2.9094539283389724" departLane="free"/>
  <flow id="JF25373" begin="360" fromJunction="J7" toJunction="J6" end="420" vehsPerHour="12.034230435529146" departLane="free"/>
  <flow id="JF25374" begin="360" fromJunction="J7" toJunction="J4" end="420" vehsPerHour="58.64855104709772" departLane="free"/>
  <flow id="JF25375" begin="360" fromJunction="J7" toJunction="J5" end="420" vehsPerHour="55.88382882092592" departLane="free"/>
  <flow id="JF25376" begin="360" fromJunction="J4" toJunction="J6" end="420" vehsPerHour="46.71412752783282" departLane="free"/>
  <flow id="JF25377" begin="360" fromJunction="J4" toJunction="J7" end="420" vehsPerHour="49.62644150900598" departLane="free"/>
  <flow id="JF25378" begin="360" fromJunction="J4" toJunction="J5" end="420" vehsPerHour="57.746978468520425" departLane="free"/>
  <flow id="JF25379" begin="360" fromJunction="J5" toJunction="J6" end="420" vehsPerHour="47.91502448765194" departLane="free"/>
  <flow id="JF25380" begin="360" fromJunction="J5" toJunction="J7" end="420" vehsPerHour="58.90150286372104" departLane="free"/>
  <flow id="JF25381" begin="360" fromJunction="J5" toJunction="J4" end="420" vehsPerHour="6.324991123415319" departLane="free"/>
  <flow id="JF25382" begin="360" fromJunction="J6" toJunction="J3" end="420" vehsPerHour="40.86075092769713" departLane="free"/>
  <flow id="JF25383" begin="360" fromJunction="J6" toJunction="J0" end="420" vehsPerHour="63.32830346459239" departLane="free"/>
  <flow id="JF25384" begin="360" fromJunction="J7" toJunction="J3" end="420" vehsPerHour="40.199533868518806" departLane="free"/>
  <flow id="JF25385" begin="360" fromJunction="J7" toJunction="J0" end="420" vehsPerHour="54.991346788005316" departLane="free"/>
  <flow id="JF25386" begin="360" fromJunction="J4" toJunction="J3" end="420" vehsPerHour="15.011932065749365" departLane="free"/>
  <flow id="JF25387" begin="360" fromJunction="J4" toJunction="J0" end="420" vehsPerHour="27.251585670267044" departLane="free"/>
  <flow id="JF25388" begin="360" fromJunction="J5" toJunction="J3" end="420" vehsPerHour="38.90232191664788" departLane="free"/>
  <flow id="JF25389" begin="360" fromJunction="J5" toJunction="J0" end="420" vehsPerHour="5.522207220551768" departLane="free"/>
  <flow id="JF25390" begin="420" fromJunction="J3" toJunction="J0" end="480" vehsPerHour="40.61260632019696" departLane="free"/>
  <flow id="JF25391" begin="420" fromJunction="J0" toJunction="J3" end="480" vehsPerHour="31.198421270869673" departLane="free"/>
  <flow id="JF25392" begin="420" fromJunction="J3" toJunction="J6" end="480" vehsPerHour="54.751587184405984" departLane="free"/>
  <flow id="JF25393" begin="420" fromJunction="J3" toJunction="J7" end="480" vehsPerHour="23.539953037109182" departLane="free"/>
  <flow id="JF25394" begin="420" fromJunction="J3" toJunction="J4" end="480" vehsPerHour="8.609866941508988" departLane="free"/>
  <flow id="JF25395" begin="420" fromJunction="J3" toJunction="J5" end="480" vehsPerHour="122.82013635384982" departLane="free"/>
  <flow id="JF25396" begin="420" fromJunction="J0" toJunction="J6" end="480" vehsPerHour="112.27532184638014" departLane="free"/>
  <flow id="JF25397" begin="420" fromJunction="J0" toJunction="J7" end="480" vehsPerHour="94.6598220739413" departLane="free"/>
  <flow id="JF25398" begin="420" fromJunction="J0" toJunction="J4" end="480" vehsPerHour="4.8980722287456215" departLane="free"/>
  <flow id="JF25399" begin="420" fromJunction="J0" toJunction="J5" end="480" vehsPerHour="63.59327692946009" departLane="free"/>
  <flow id="JF25400" begin="420" fromJunction="J6" toJunction="J7" end="480" vehsPerHour="28.893081832560505" departLane="free"/>
  <flow id="JF25401" begin="420" fromJunction="J6" toJunction="J4" end="480" vehsPerHour="39.76032531010011" departLane="free"/>
  <flow id="JF25402" begin="420" fromJunction="J6" toJunction="J5" end="480" vehsPerHour="26.493898095791387" departLane="free"/>
  <flow id="JF25403" begin="420" fromJunction="J7" toJunction="J6" end="480" vehsPerHour="40.94808535582292" departLane="free"/>
  <flow id="JF25404" begin="420" fromJunction="J7" toJunction="J4" end="480" vehsPerHour="60.50173392592866" departLane="free"/>
  <flow id="JF25405" begin="420" fromJunction="J7" toJunction="J5" end="480" vehsPerHour="28.185256073292418" departLane="free"/>
  <flow id="JF25406" begin="420" fromJunction="J4" toJunction="J6" end="480" vehsPerHour="50.73418782954861" departLane="free"/>
  <flow id="JF25407" begin="420" fromJunction="J4" toJunction="J7" end="480" vehsPerHour="57.26333379224163" departLane="free"/>
  <flow id="JF25408" begin="420" fromJunction="J4" toJunction="J5" end="480" vehsPerHour="30.19623696761196" departLane="free"/>
  <flow id="JF25409" begin="420" fromJunction="J5" toJunction="J6" end="480" vehsPerHour="41.253607089570856" departLane="free"/>
  <flow id="JF25410" begin="420" fromJunction="J5" toJunction="J7" end="480" vehsPerHour="59.369152496687654" departLane="free"/>
  <flow id="JF25411" begin="420" fromJunction="J5" toJunction="J4" end="480" vehsPerHour="2.354044655306503" departLane="free"/>
  <flow id="JF25412" begin="420" fromJunction="J6" toJunction="J3" end="480" vehsPerHour="25.779432455829763" departLane="free"/>
  <flow id="JF25413" begin="420" fromJunction="J6" toJunction="J0" end="480" vehsPerHour="37.182344956382515" departLane="free"/>
  <flow id="JF25414" begin="420" fromJunction="J7" toJunction="J3" end="480" vehsPerHour="61.5770818488083" departLane="free"/>
  <flow id="JF25415" begin="420" fromJunction="J7" toJunction="J0" end="480" vehsPerHour="25.439335417327158" departLane="free"/>
  <flow id="JF25416" begin="420" fromJunction="J4" toJunction="J3" end="480" vehsPerHour="32.203055506643736" departLane="free"/>
  <flow id="JF25417" begin="420" fromJunction="J4" toJunction="J0" end="480" vehsPerHour="60.74681102452692" departLane="free"/>
  <flow id="JF25418" begin="420" fromJunction="J5" toJunction="J3" end="480" vehsPerHour="34.87797325102833" departLane="free"/>
  <flow id="JF25419" begin="420" fromJunction="J5" toJunction="J0" end="480" vehsPerHour="15.430761807359573" departLane="free"/>
  <flow id="JF25420" begin="480" fromJunction="J3" toJunction="J0" end="540" vehsPerHour="31.560448305537147" departLane="free"/>
  <flow id="JF25421" begin="480" fromJunction="J0" toJunction="J3" end="540" vehsPerHour="54.81458368394946" departLane="free"/>
  <flow id="JF25422" begin="480" fromJunction="J3" toJunction="J6" end="540" vehsPerHour="3.993025489435673" departLane="free"/>
  <flow id="JF25423" begin="480" fromJunction="J3" toJunction="J7" end="540" vehsPerHour="119.76996932019874" departLane="free"/>
  <flow id="JF25424" begin="480" fromJunction="J3" toJunction="J4" end="540" vehsPerHour="61.96824650373184" departLane="free"/>
  <flow id="JF25425" begin="480" fromJunction="J3" toJunction="J5" end="540" vehsPerHour="68.57182934761855" departLane="free"/>
  <flow id="JF25426" begin="480" fromJunction="J0" toJunction="J6" end="540" vehsPerHour="59.04043075456902" departLane="free"/>
  <flow id="JF25427" begin="480" fromJunction="J0" toJunction="J7" end="540" vehsPerHour="5.369664804500475" departLane="free"/>
  <flow id="JF25428" begin="480" fromJunction="J0" toJunction="J4" end="540" vehsPerHour="46.63039203481228" departLane="free"/>
  <flow id="JF25429" begin="480" fromJunction="J0" toJunction="J5" end="540" vehsPerHour="52.86743996863241" departLane="free"/>
  <flow id="JF25430" begin="540" fromJunction="J3" toJunction="J0" end="600" vehsPerHour="26.115579383543366" departLane="free"/>