<?xml version="1.0" encoding="UTF-8"?>
<routes xmlns:xsi="http://www.w3.org/2001/XMLSchema-instance" xsi:noNamespaceSchemaLocation="http://sumo.dlr.de/xsd/routes_file.xsd">
  <flow id="JF23300" begin="0" fromJunction="J3" toJunction="J0" end="60" vehsPerHour="58.41634203944894" departLane="free"/>
  <flow id="JF23301" begin="0" fromJunction="J0" toJunction="J3" end="60" vehsPerHour="72.11383257980778" departLane="free"/>
  <flow id="JF23302" begin="0" fromJunction="J3" toJunction="J6" end="60" vehsPerHour="71.87888561897812" departLane="free"/>
  <flow id="JF23303" begin="0" fromJunction="J3" toJunction="J7" end="60" vehsPerHour="57.777985665885474" departLane="free"/>
  <flow id="JF23304" begin="0" fromJunction="J3" toJunction="J4" end="60" vehsPerHour="38.69053347544814" departLane="free"/>
  <flow id="JF23305" begin="0" fromJunction="J3" toJunction="J5" end="60" vehsPerHour="89.29459022786008" departLane="free"/>
  <flow id="JF23306" begin="0" fromJunction="J0" toJunction="J6" end="60" vehsPerHour="68.2326361146006" departLane="free"/>
  <flow id="JF23307" begin="0" fromJunction="J0" toJunction="J7" end="60" vehsPerHour="61.14236689254292" departLane="free"/>
  <flow id="JF23308" begin="0" fromJunction="J0" toJunction="J4" end="60" vehsPerHour="33.63981037249557" departLane="free"/>
  <flow id="JF23309" begin="0" fromJunction="J0" toJunction="J5" end="60" vehsPerHour="10.680963347763928" departLane="free"/>
  <flow id="JF23310" begin="60" fromJunction="J3" toJunction="J0" end="120" vehsPerHour="78.84556097400694" departLane="free"/>
  <flow id="JF23311" begin="60" fromJunction="J0" toJunction="J3" end="120" vehsPerHour="63.74624944295106" departLane="free"/>
  <flow id="JF23312" begin="60" fromJunction="J3" toJunction="J6" end="120" vehsPerHour="69.19518595761076" departLane="free"/>
  <flow id="JF23313" begin="60" fromJunction="J3" toJunction="J7" end="120" vehsPerHour="29.36444752179829" departLane="free"/>
  <flow id="JF23314" begin="60" fromJunction="J3" toJunction="J4" end="120" vehsPerHour="54.265697286360876" departLane="free"/>
  <flow id="JF23315" begin="60" fromJunction="J3" toJunction="J5" end="120" vehsPerHour="68.77013556149313" departLane="free"/>
  <flow id="JF23316" begin="60" fromJunction="J0" toJunction="J6" end="120" vehsPerHour="45.42778276312337" departLane="free"/>
  <flow id="JF23317" begin="60" fromJunction="J0" toJunction="J7" end="120" vehsPerHour="102.62666345462004" departLane="free"/>
  <flow id="JF23318" begin="60" fromJunction="J0" toJunction="J4" end="120" vehsPerHour="109.94496351015687" departLane="free"/>
  <flow id="JF23319" begin="60" fromJunction="J0" toJunction="J5" end="120" vehsPerHour="119.06772981934309" departLane="free"/>
  <flow id="JF23320" begin="120" fromJunction="J3" toJunction="J0" end="180" vehsPerHour="89.2450619144996" departLane="free"/>
  <flow id="JF23321" begin="120" fromJunction="J0" toJunction="J3" end="180" vehsPerHour="110.06303736963424" departLane="free"/>
  <flow id="JF23322" begin="120" fromJunction="J3" toJunction="J6" end="180" vehsPerHour="24.754844907675245" departLane="free"/>
  <flow id="JF23323" begin="120" fromJunction="J3" toJunction="J7" end="180" vehsPerHour="70.51002768957632" departLane="free"/>
  <flow id="JF23324" begin="120" fromJunction="J3" toJunction="J4" end="180" vehsPerHour="15.547273018217725" departLane="free"/>
  <flow id="JF23325" begin="120" fromJunction="J3" toJunction="J5" end="180" vehsPerHour="6.058962604235081" departLane="free"/>
  <flow id="JF23326" begin="120" fromJunction="J0" toJunction="J6" end="180" vehsPerHour="41.70492883013023" departLane="free"/>
  <flow id="JF23327" begin="120" fromJunction="J0" toJunction="J7" end="180" vehsPerHour="62.581684485584965" departLane="free"/>
  <flow id="JF23328" begin="120" fromJunction="J0" toJunction="J4" end="180" vehsPerHour="128.3669745477111" departLane="free"/>
  <flow id="JF23329" begin="120" fromJunction="J0" toJunction="J5" end="180" vehsPerHour="78.17910435177573" departLane="free"/>
  <flow id="JF23330" begin="120" fromJunction="J6" toJunction="J7" end="180" vehsPerHour="44.00516026803608" departLane="free"/>
  <flow id="JF23331" begin="120" fromJunction="J6" toJunction="J4" end="180" vehsPerHour="65.97114066433424" departLane="free"/>
  <flow id="JF23332" begin="120" fromJunction="J6" toJunction="J5" end="180" vehsPerHour="22.300855027744277" departLane="free"/>
  <flow id="JF23333" begin="120" fromJunction="J7" toJunction="J6" end="180" vehsPerHour="45.83106509122693" departLane="free"/>
  <flow id="JF23334" begin="120" fromJunction="J7" toJunction="J4" end="180" vehsPerHour="52.569492126945605" departLane="free"/>
  <flow id="JF23335" begin="120" fromJunction="J7" toJunction="J5" end="180" vehsPerHour="5.27249639413504" departLane="free"/>
  <flow id="JF23336" begin="120" fromJunction="J4" toJunction="J6" end="180" vehsPerHour="56.056864549771944" departLane="free"/>
  <flow id="JF23337" begin="120" fromJunction="J4" toJunction="J7" end="180" vehsPerHour="51.74886508123946" departLane="free"/>
  <flow id="JF23338" begin="120" fromJunction="J4" toJunction="J5" end="180" vehsPerHour="20.100620063505367" departLane="free"/>
  <flow id="JF23339" begin="120" fromJunction="J5" toJunction="J6" end="180" vehsPerHour="43.30300739426465" departLane="free"/>
  <flow id="JF23340" begin="120" fromJunction="J5" toJunction="J7" end="180" vehsPerHour="53.58811509858306" departLane="free"/>
  <flow id="JF23341" begin="120" fromJunction="J5" toJunction="J4" end="180" vehsPerHour="15.997884047730592" departLane="free"/>
  <flow id="JF23342" begin="120" fromJunction="J6" toJunction="J3" end="180" vehsPerHour="39.015151573369174" departLane="free"/>
  <flow id="JF23343" begin="120" fromJunction="J6" toJunction="J0" end="180" vehsPerHour="56.04537857702486" departLane="free"/>
  <flow id="JF23344" begin="120" fromJunction="J7" toJunction="J3" end="180" vehsPerHour="61.387911462188185" departLane="free"/>
  <flow id="JF23345" begin="120" fromJunction="J7" toJunction="J0" end="180" vehsPerHour="48.47631439282946" departLane="free"/>
  <flow id="JF23346" begin="120" fromJunction="J4" toJunction="J3" end="180" vehsPerHour="20.34965480718813" departLane="free"/>
  <flow id="JF23347" begin="120" fromJunction="J4" toJunction="J0" end="180" vehsPerHour="38.18177471512573" departLane="free"/>
  <flow id="JF23348" begin="120" fromJunction="J5" toJunction="J3" end="180" vehsPerHour="14.644189803768244" departLane="free"/>
  <flow id="JF23349" begin="120" fromJunction="J5" toJunction="J0" end="180" vehsPerHour="9.104462902559879" departLane="free"/>
  <flow id="JF23350" begin="180" fromJunction="J3" toJunction="J0" end="240" vehsPerHour="88.71835408474803" departLane="free"/>
  <flow id="JF23351" begin="180" fromJunction="J0" toJunction="J3" end="240" vehsPerHour="130.47953638957154" departLane="free"/>
  <flow id="JF23352" begin="180" fromJunction="J3" toJunction="J6" end="240" vehsPerHour="29.905996640380284" departLane="free"/>
  <flow id="JF23353" begin="180" fromJunction="J3" toJunction="J7" end="240" vehsPerHour="100.4285663291669" departLane="free"/>
  <flow id="JF23354" begin="180" fromJunction="J3" toJunction="J4" end="240" vehsPerHour="58.99588423630969" departLane="free"/>
  <flow id="JF23355" begin="180" fromJunction="J3" toJunction="J5" end="240" vehsPerHour="11.506684993314437" departLane="free"/>
  <flow id="JF23356" begin="180" fromJunction="J0" toJunction="J6" end="240" vehsPerHour="113.52951594860136" departLane="free"/>
  <flow id="JF23357" begin="180" fromJunction="J0" toJunction="J7" end="240" vehsPerHour="76.72792800971958" departLane="free"/>
  <flow id="JF23358" begin="180" fromJunction="J0" toJunction="J4" end="240" vehsPerHour="130.79713413913137" departLane="free"/>
  <flow id="JF23359" begin="180" fromJunction="J0" toJunction="J5" end="240" vehsPerHour="74.58428085828136" departLane="free"/>
  <flow id="JF23360" begin="180" fromJunction="J6" toJunction="J7" end="240" vehsPerHour="2.482087823441509" departLane="free"/>
  <flow id="JF23361" begin="180" fromJunction="J6" toJunction="J4" end="240" vehsPerHour="43.84529359812471" departLane="free"/>
  <flow id="JF23362" begin="180" fromJunction="J6" toJunction="J5" end="240" vehsPerHour="49.46895554907538" departLane="free"/>
  <flow id="JF23363" begin="180" fromJunction="J7" toJunction="J6" end="240" vehsPerHour="4.970222974139921" departLane="free"/>
  <flow id="JF23364" begin="180" fromJunction="J7" toJunction="J4" end="240" vehsPerHour="22.016557982258345" departLane="free"/>
  <flow id="JF23365" begin="180" fromJunction="J7" toJunction="J5" end="240" vehsPerHour="52.73026852249" departLane="free"/>
  <flow id="JF23366" begin="180" fromJunction="J4" toJunction="J6" end="240" vehsPerHour="36.38480118302093" departLane="free"/>
  <flow id="JF23367" begin="180" fromJunction="J4" toJunction="J7" end="240" vehsPerHour="22.822107258643925" departLane="free"/>
  <flow id="JF23368" begin="180" fromJunction="J4" toJunction="J5" end="240" vehsPerHour="58.29966383648241" departLane="free"/>
  <flow id="JF23369" begin="180" fromJunction="J5" toJunction="J6" end="240" vehsPerHour="9.71611560476726" departLane="free"/>
  <flow id="JF23370" begin="180" fromJunction="J5" toJunction="J7" end="240" vehsPerHour="3.274863395879909" departLane="free"/>
  <flow id="JF23371" begin="180" fromJunction="J5" toJunction="J4" end="240" vehsPerHour="8.20784109061641" departLane="free"/>
  <flow id="JF23372" begin="180" fromJunction="J6" toJunction="J3" end="240" vehsPerHour="53.48935190628729" departLane="free"/>
  <flow id="JF23373" begin="180" fromJunction="J6" toJunction="J0" end="240" vehsPerHour="37.98328378122163" departLane="free"/>
  <flow id="JF23374" begin="180" fromJunction="J7" toJunction="J3" end="240" vehsPerHour="10.733520873230566" departLane="free"/>
  <flow id="JF23375" begin="180" fromJunction="J7" toJunction="J0" end="240" vehsPerHour="34.37976430430434" departLane="free"/>
  <flow id="JF23376" begin="180" fromJunction="J4" toJunction="J3" end="240" vehsPerHour="1.2182778956924007" departLane="free"/>
  <flow id="JF23377" begin="180" fromJunction="J4" toJunction="J0" end="240" vehsPerHour="58.54830370703674" departLane="free"/>
  <flow id="JF23378" begin="180" fromJunction="J5" toJunction="J3" end="240" vehsPerHour="55.148084255342106" departLane="free"/>
  <flow id="JF23379" begin="180" fromJunction="J5" toJunction="J0" end="240" vehsPerHour="14.405363408446574" departLane="free"/>
  <flow id="JF23380" begin="240" fromJunction="J3" toJunction="J0" end="300" vehsPerHour="44.15242137388304" departLane="free"/>
  <flow id="JF23381" begin="240" fromJunction="J0" toJunction="J3" end="300" vehsPerHour="62.95187798484917" departLane="free"/>
  <flow id="JF23382" begin="240" fromJunction="J3" toJunction="J6" end="300" vehsPerHour="92.27891432105783" departLane="free"/>
  <flow id="JF23383" begin="240" fromJunction="J3" toJunction="J7" end="300" vehsPerHour="60.22325548201404" departLane="free"/>
  <flow id="JF23384" begin="240" fromJunction="J3" toJunction="J4" end="300" vehsPerHour="97.84056251860052" departLane="free"/>
  <flow id="JF23385" begin="240" fromJunction="J3" toJunction="J5" end="300" vehsPerHour="54.20220057319872" departLane="free"/>
  <flow id="JF23386" begin="240" fromJunction="J0" toJunction="J6" end="300" vehsPerHour="57.156325416635084" departLane="free"/>
  <flow id="JF23387" begin="240" fromJunction="J0" toJunction="J7" end="300" vehsPerHour="15.574906499968588" departLane="free"/>
  <flow id="JF23388" begin="240" fromJunction="J0" toJunction="J4" end="300" vehsPerHour="53.60810165369396" departLane="free"/>
  <flow id="JF23389" begin="240" fromJunction="J0" toJunction="J5" end="300" vehsPerHour="88.47291790410435" departLane="free"/>
  <flow id="JF23390" begin="300" fromJunction="J3" toJunction="J0" end="360" vehsPerHour="80.3390229136716" departLane="free"/>
  <flow id="JF23391" begin="300" fromJunction="J0" toJunction="J3" end="360" vehsPerHour="129.42748408026054" departLane="free"/>
  <flow id="JF23392" begin="300" fromJunction="J3" toJunction="J6" end="360" vehsPerHour="3.573772058858638" departLane="free"/>
  <flow id="JF23393" begin="300" fromJunction="J3" toJunction="J7" end="360" vehsPerHour="23.87103583806328" departLane="free"/>
  <flow id="JF23394" begin="300" fromJunction="J3" toJunction="J4" end="360" vehsPerHour="37.21459598568055" departLane="free"/>
  <flow id="JF23395" begin="300" fromJunction="J3" toJunction="J5" end="360" vehsPerHour="7.20363174086976" departLane="free"/>
  <flow id="JF23396" begin="300" fromJunction="J0" toJunction="J6" end="360" vehsPerHour="135.56040092037665" departLane="free"/>
  <flow id="JF23397" begin="300" fromJunction="J0" toJunction="J7" end="360" vehsPerHour="40.312528147838115" departLane="free"/>
  <flow id="JF23398" begin="300" fromJunction="J0" toJunction="J4" end="360" vehsPerHour="126.12581330562548" departLane="free"/>
  <flow id="JF23399" begin="300" fromJunction="J0" toJunction="J5" end="360" vehsPerHour="112.6533726731227" departLane="free"/>
  <flow id="JF23400" begin="300" fromJunction="J6" toJunction="J7" end="360" vehsPerHour="15.833757697319188" departLane="free"/>
  <flow id="JF23401" begin="300" fromJunction="J6" toJunction="J4" end="360" vehsPerHour="51.24728863606956" departLane="free"/>
  <flow id="JF23402" begin="300" fromJunction="J6" toJunction="J5" end="360" vehsPerHour="51.11374416005925" departLane="free"/>
  <flow id="JF23403" begin="300" fromJunction="J7" toJunction="J6" end="360" vehsPerHour="26.020764316486936" departLane="free"/>
  <flow id="JF23404" begin="300" fromJunction="J7" toJunction="J4" end="360" vehsPerHour="29.560183783777486" departLane="free"/>
  <flow id="JF23405" begin="300" fromJunction="J7" toJunction="J5" end="360" vehsPerHour="9.573870904549926" departLane="free"/>
  <flow id="JF23406" begin="300" fromJunction="J4" toJunction="J6" end="360" vehsPerHour="40.33379880772793" departLane="free"/>
  <flow id="JF23407" begin="300" fromJunction="J4" toJunction="J7" end="360" vehsPerHour="47.19724061937936" departLane="free"/>
  <flow id="JF23408" begin="300" fromJunction="J4" toJunction="J5" end="360" vehsPerHour="46.42343804464619" departLane="free"/>
  <flow id="JF23409" begin="300" fromJunction="J5" toJunction="J6" end="360" vehsPerHour="35.957749707071585" departLane="free"/>
  <flow id="JF23410" begin="300" fromJunction="J5" toJunction="J7" end="360" vehsPerHour="27.28715060090898" departLane="free"/>
  <flow id="JF23411" begin="300" fromJunction="J5" toJunction="J4" end="360" vehsPerHour="30.431323816692718" departLane="free"/>
  <flow id="JF23412" begin="300" fromJunction="J6" toJunction="J3" end="360" vehsPerHour="38.76998923098701" departLane="free"/>
  <flow id="JF23413" begin="300" fromJunction="J6" toJunction="J0" end="360" vehsPerHour="39.1253870539022" departLane="free"/>
  <flow id="JF23414" begin="300" fromJunction="J7" toJunction="J3" end="360" vehsPerHour="9.234801589161581" departLane="free"/>
  <flow id="JF23415" begin="300" fromJunction="J7" toJunction="J0" end="360" vehsPerHour="41.14598685177934" departLane="free"/>
  <flow id="JF23416" begin="300" fromJunction="J4" toJunction="J3" end="360" vehsPerHour="1.4874379691159072" departLane="free"/>
  <flow id="JF23417" begin="300" fromJunction="J4" toJunction="J0" end="360" vehsPerHour="25.719301454930616" departLane="free"/>
  <flow id="JF23418" begin="300" fromJunction="J5" toJunction="J3" end="360" vehsPerHour="11.917708047257822" departLane="free"/>
  <flow id="JF23419" begin="300" fromJunction="J5" toJunction="J0" end="360" vehsPerHour="3.5826096795304965" departLane="free"/>
  <flow id="JF23420" begin="360" fromJunction="J3" toJunction="J0" end="420" vehsPerHour="44.34768911177557" departLane="free"/>
  <flow id="JF23421" begin="360" fromJunction="J0" toJunction="J3" end="420" vehsPerHour="26.08023440603547" departLane="free"/>
  <flow id="JF23422" begin="360" fromJunction="J3" toJunction="J6" end="420" vehsPerHour="70.05797457597639" departLane="free"/>
  <flow id="JF23423" begin="360" fromJunction="J3" toJunction="J7" end="420" vehsPerHour="42.054423517558476" departLane="free"/>
  <flow id="JF23424" begin="360" fromJunction="J3" toJunction="J4" end="420" vehsPerHour="111.18807613988626" departLane="free"/>
  <flow id="JF23425" begin="360" fromJunction="J3" toJunction="J5" end="420" vehsPerHour="37.274794802447396" departLane="free"/>
  <flow id="JF23426" begin="360" fromJunction="J0" toJunction="J6" end="420" vehsPerHour="81.25471392382148" departLane="free"/>
  <flow id="JF23427" begin="360" fromJunction="J0" toJunction="J7" end="420" vehsPerHour="43.234815870557476" departLane="free"/>
  <flow id="JF23428" begin="360" fromJunction="J0" toJunction="J4" end="420" vehsPerHour="117.57918879378305" departLane="free"/>
  <flow id="JF23429" begin="360" fromJunction="J0" toJunction="J5" end="420" vehsPerHour="125.45755444579339" departLane="free"/>
  <flow id="JF23430" begin="360" fromJunction="J6" toJunction="J7" end="420" vehsPerHour="2.4734473068472824" departLane="free"/>
  <flow id="JF23431" begin="360" fromJunction="J6" toJunction="J4" end="420" vehsPerHour="31.216661407483205" departLane="free"/>
  <flow id="JF23432" begin="360" fromJunction="J6" toJunction="J5" end="420" vehsPerHour="10.963203660248412" departLane="free"/>
  <flow id="JF23433" begin="360" fromJunction="J7" toJunction="J6" end="420" vehsPerHour="30.969332219529395" departLane="free"/>
  <flow id="JF23434" begin="360" fromJunction="J7" toJunction="J4" end="420" vehsPerHour="17.765403664213398" departLane="free"/>
  <flow id="JF23435" begin="360" fromJunction="J7" toJunction="J5" end="420" vehsPerHour="60.87944184765311" departLane="free"/>
  <flow id="JF23436" begin="360" fromJunction="J4" toJunction="J6" end="420" vehsPerHour="31.570347821267166" departLane="free"/>
  <flow id="JF23437" begin="360" fromJunction="J4" toJunction="J7" end="420" vehsPerHour="17.229500135516687" departLane="free"/>
  <flow id="JF23438" begin="360" fromJunction="J4" toJunction="J5" end="420" vehsPerHour="18.680562895425115" departLane="free"/>
  <flow id="JF23439" begin="360" fromJunction="J5" toJunction="J6" end="420" vehsPerHour="31.34307834648102" departLane="free"/>
  <flow id="JF23440" begin="360" fromJunction="J5" toJunction="J7" end="420" vehsPerHour="3.0296457513512034" departLane="free"/>
  <flow id="JF23441" begin="360" fromJunction="J5" toJunction="J4" end="420" vehsPerHour="25.340628617645358" departLane="free"/>
  <flow id="JF23442" begin="360" fromJunction="J6" toJunction="J3" end="420" vehsPerHour="33.980539432637215" departLane="free"/>
  <flow id="JF23443" begin="360" fromJunction="J6" toJunction="J0" end="420" vehsPerHour="42.19817613876919" departLane="free"/>
  <flow id="JF23444" begin="360" fromJunction="J7" toJunction="J3" end="420" vehsPerHour="18.278825192033757" departLane="free"/>
  <flow id="JF23445" begin="360" fromJunction="J7" toJunction="J0" end="420" vehsPerHour="26.661778070841518" departLane="free"/>
  <flow id="JF23446" begin="360" fromJunction="J4" toJunction="J3" end="420" vehsPerHour="50.363841966181084" departLane="free"/>
  <flow id="JF23447" begin="360" fromJunction="J4" toJunction="J0" end="420" vehsPerHour="28.269467669747577" departLane="free"/>
  <flow id="JF23448" begin="360" fromJunction="J5" toJunction="J3" end="420" vehsPerHour="26.770199060380133" departLane="free"/>
  <flow id="JF23449" begin="360" fromJunction="J5" toJunction="J0" end="420" vehsPerHour="26.309157944471877" departLane="free"/>
  <flow id="JF23450" begin="420" fromJunction="J3" toJunction="J0" end="480" vehsPerHour="30.526739970639422" departLane="free"/>
  <flow id="JF23451" begin="420" fromJunction="J0" toJunction="J3" end="480" vehsPerHour="124.67885327053118" departLane="free"/>
  <flow id="JF23452" begin="420" fromJunction="J3" toJunction="J6" end="480" vehsPerHour="7.908934262211856" departLane="free"/>
  <flow id="JF23453" begin="420" fromJunction="J3" toJunction="J7" end="480" vehsPerHour="12.727950497396636" departLane="free"/>
  <flow id="JF23454" begin="420" fromJunction="J3" toJunction="J4" end="480" vehsPerHour="27.474364007406887" departLane="free"/>
  <flow id="JF23455" begin="420" fromJunction="J3" toJunction="J5" end="480" vehsPerHour="67.42146390156311" departLane="free"/>
  <flow id="JF23456" begin="420" fromJunction="J0" toJunction="J6" end="480" vehsPerHour="32.00442015659907" departLane="free"/>
  <flow id="JF23457" begin="420" fromJunction="J0" toJunction="J7" end="480" vehsPerHour="118.31010894717424" departLane="free"/>
  <flow id="JF23458" begin="420" fromJunction="J0" toJunction="J4" end="480" vehsPerHour="12.859003958586456" departLane="free"/>
  <flow id="JF23459" begin="420" fromJunction="J0" toJunction="J5" end="480" vehsPerHour="84.75171136952694" departLane="free"/>
  <flow id="JF23460" begin="420" fromJunction="J6" toJunction="J7" end="480" vehsPerHour="0.7615438451259657" departLane="free"/>
  <flow id="JF23461" begin="420" fromJunction="J6" toJunction="J4" end="480" vehsPerHour="0.7780781303276654" departLane="free"/>
  <flow id="JF23462" begin="420" fromJunction="J6" toJunction="J5" end="480" vehsPerHour="46.13800733042807" departLane="free"/>
  <flow id="JF23463" begin="420" fromJunction="J7" toJunction="J6" end="480" vehsPerHour="44.29184912313741" departLane="free"/>
  <flow id="JF23464" begin="420" fromJunction="J7" toJunction="J4" end="480" vehsPerHour="4.965207745046683" departLane="free"/>
  <flow id="JF23465" begin="420" fromJunction="J7" toJunction="J5" end="480" vehsPerHour="25.473404241918626" departLane="free"/>
  <flow id="JF23466" begin="420" fromJunction="J4" toJunction="J6" end="480" vehsPerHour="16.936747594552045" departLane="free"/>
  <flow id="JF23467" begin="420" fromJunction="J4" toJunction="J7" end="480" vehsPerHour="13.365512093419824" departLane="free"/>
  <flow id="JF23468" begin="420" fromJunction="J4" toJunction="J5" end="480" vehsPerHour="30.52389426936234" departLane="free"/>
  <flow id="JF23469" begin="420" fromJunction="J5" toJunction="J6" end="480" vehsPerHour="36.26714374354045" departLane="free"/>
  <flow id="JF23470" begin="420" fromJunction="J5" toJunction="J7" end="480" vehsPerHour="60.07418662776358" departLane="free"/>
  <flow id="JF23471" begin="420" fromJunction="J5" toJunction="J4" end="480" vehsPerHour="10.096862508865295" departLane="free"/>
  <flow id="JF23472" begin="420" fromJunction="J6" toJunction="J3" end="480" vehsPerHour="3.276620815805337" departLane="free"/>
  <flow id="JF23473" begin="420" fromJunction="J6" toJunction="J0" end="480" vehsPerHour="56.38816363094367" departLane="free"/>
  <flow id="JF23474" begin="420" fromJunction="J7" toJunction="J3" end="480" vehsPerHour="44.5149455926714" departLane="free"/>
  <flow id="JF23475" begin="420" fromJunction="J7" toJunction="J0" end="480" vehsPerHour="31.162293406882494" departLane="free"/>
  <flow id="JF23476" begin="420" fromJunction="J4" toJunction="J3" end="480" vehsPerHour="56.68827014114155" departLane="free"/>
  <flow id="JF23477" begin="420" fromJunction="J4" toJunction="J0" end="480" vehsPerHour="44.12988728170854" departLane="free"/>
  <flow id="JF23478" begin="420" fromJunction="J5" toJunction="J3" end="480" vehsPerHour="28.432148085786217" departLane="free"/>
  <flow id="JF23479" begin="420" fromJunction="J5" toJunction="J0" end="480" vehsPerHour="1.528047050436389" departLane="free"/>
  <flow id="JF23480" begin="480" fromJunction="J3" toJunction="J0" end="540" vehsPerHour="136.35247566736086" departLane="free"/>
  <flow id="JF23481" begin="480" fromJunction="J0" toJunction="J3" end="540" vehsPerHour="117.53221045853108" departLane="free"/>
  <flow id="JF23482" begin="480" fromJunction="J3" toJunction="J6" end="540" vehsPerHour="36.96233929457755" departLane="free"/>
  <flow id="JF23483" begin="480" fromJunction="J3" toJunction="J7" end="540" vehsPerHour="22.593823816022656" departLane="free"/>
  <flow id="JF23484" begin="480" fromJunction="J3" toJunction="J4" end="540" vehsPerHour="121.14950088694809" departLane="free"/>
  <flow id="JF23485" begin="480" fromJunction="J3" toJunction="J5" end="540" vehsPerHour="56.9006539333271" departLane="free"/>
  <flow id="JF23486" begin="480" fromJunction="J0" toJunction="J6" end="540" vehsPerHour="102.16634408925823" departLane="free"/>
  <flow id="JF23487" begin="480" fromJunction="J0" toJunction="J7" end="540" vehsPerHour="44.81202672136746" departLane="free"/>
  <flow id="JF23488" begin="480" fromJunction="J0" toJunction="J4" end="540" vehsPerHour="27.28362810152217" departLane="free"/>
  <flow id="JF23489" begin="480" fromJunction="J0" toJunction="J5" end="540" vehsPerHour="94.56276335005685" departLane="free"/>
  <flow id="JF23490" begin="540" fromJunction="J3" toJunction="J0" end="600" vehsPerHour="50.74349726209236" departLane="free"/>
  <flow id="JF23491" begin="540" fromJunction="J0" toJunction="J3" end="600" vehsPerHour="79.75390370198168" departLane="free"/>
  <flow id="JF23492" begin="540" fromJunction="J3" toJunction="J6" end="600" vehsPerHour="129.70645509556076" departLane="free"/>
  <flow id="JF23493" begin="540" fromJunction="J3" toJunction="J7" end="600" vehsPerHour="62.39937267402381" departLane="free"/>
  <flow id="JF23494" begin="540" fromJunction="J3" toJunction="J4" end="600" vehsPerHour="118.1360658277148" departLane="free"/>
  <flow id="JF23495" begin="540" fromJunction="J3" toJunction="J5" end="600" vehsPerHour="92.84361791718972" departLane="free"/>
  <flow id="JF23496" begin="540" fromJunction="J0" toJunction="J6" end="600" vehsPerHour="87.28583438525415" departLane="free"/>
  <flow id="JF23497" begin="540" fromJunction="J0" toJunction="J7" end="600" vehsPerHour="69.65988516961924" departLane="free"/>
  <flow id="JF23498" begin="540" fromJunction="J0" toJunction="J4" end="600" vehsPerHour="101.6095059721899" departLane="free"/>
  <flow id="JF23499" begin="540" fromJunction="J0" toJunction="J5" end="600" vehsPerHour="118.82739213737369" departLane="free"/>
  <flow id="JF23500" begin="600" fromJunction="J3" toJunction="J0" end="660" vehsPerHour="52.74686270785002" departLane="free"/>
  <flow id="JF23501" begin="600" fromJunction="J0" toJunction="J3" end="660" vehsPerHour="96.60187302384811" departLane="free"/>
  <flow id="JF23502" begin="600" fromJunction="J3" toJunction="J6" end="660" vehsPerHour="12.651651659420676" departLane="free"/>
  <flow id="JF23503" begin="600" fromJunction="J3" toJunction="J7" end="660" vehsPerHour="93.321093481852" departLane="free"/>
  <flow id="JF23504" begin="600" fromJunction="J3" toJunction="J4" end="660" vehsPerHour="81.39653604508938" departLane="free"/>
  <flow id="JF23505" begin="600" fromJunction="J3" toJunction="J5" end="660" vehsPerHour="115.08030464324868" departLane="free"/>
  <flow id="JF23506" begin="600" fromJunction="J0" toJunction="J6" end="660" vehsPerHour="75.2320770429134" departLane="free"/>
  <flow id="JF23507" begin="600" fromJunction="J0" toJunction="J7" end="660" vehsPerHour="96.37920009612955" departLane="free"/>
  <flow id="JF23508" begin="600" fromJunction="J0" toJunction="J4" end="660" vehsPerHour="46.19024646318616" departLane="free"/>
  <flow id="JF23509" begin="600" fromJunction="J0" toJunction="J5" end="660" vehsPerHour="133.9325761554744" departLane="free"/>
  <flow id="JF23510" begin="600" fromJunction="J6" toJunction="J7" end="660" vehsPerHour="16.717275346107442" departLane="free"/>
  <flow id="JF23511" begin="600" fromJunction="J6" toJunction="J4" end="660" vehsPerHour="47.00730804144947" departLane="free"/>
  <flow id="JF23512" begin="600" fromJunction="J6" toJunction="J5" end="660" vehsPerHour="53.80224497616018" departLane="free"/>
  <flow id="JF23513" begin="600" fromJunction="J7" toJunction="J6" end="660" vehsPerHour="7.235594990321805" departLane="free"/>
  <flow id="JF23514" begin="600" fromJunction="J7" toJunction="J4" end="660" vehsPerHour="62.79487210081017" departLane="free"/>
  <flow id="JF23515" begin="600" fromJunction="J7" toJunction="J5" end="660" vehsPerHour="45.52443360366294" departLane="free"/>
  <flow id="JF23516" begin="600" fromJunction="J4" toJunction="J6" end="660" vehsPerHour="62.09227051670142" departLane="free"/>
  <flow id="JF23517" begin="600" fromJunction="J4" toJunction="J7" end="660" vehsPerHour="29.630549927123205" departLane="free"/>
  <flow id="JF23518" begin="600" fromJunction="J4" toJunction="J5" end="660" vehsPerHour="44.323729855625146" departLane="free"/>
  <flow id="JF23519" begin="600" fromJunction="J5" toJunction="J6" end="660" vehsPerHour="40.64399296744863" departLane="free"/>
  <flow id="JF23520" begin="600" fromJunction="J5" toJunction="J7" end="660" vehsPerHour="64.11504232244725" departLane="free"/>
  <flow id="JF23521" begin="600" fromJunction="J5" toJunction="J4" end="660" vehsPerHour="27.786552451341286" departLane="free"/>
  <flow id="JF23522" begin="600" fromJunction="J6" toJunction="J3" end="660" vehsPerHour="59.32573614561505" departLane="free"/>
  <flow id="JF23523" begin="600" fromJunction="J6" toJunction="J0" end="660" vehsPerHour="43.80033993236506" departLane="free"/>
  <flow id="JF23524" begin="600" fromJunction="J7" toJunction="J3" end="660" vehsPerHour="58.397179437256945" departLane="free"/>
  <flow id="JF23525" begin="600" fromJunction="J7" toJunction="J0" end="660" vehsPerHour="54.40813782814441" departLane="free"/>
  <flow id="JF23526" begin="600" fromJunction="J4" toJunction="J3" end="660" vehsPerHour="57.71619855580644" departLane="free"/>
  <flow id="JF23527" begin="600" fromJunction="J4" toJunction="J0" end="660" vehsPerHour="11.958156993548112" departLane="free"/>
  <flow id="JF23528" begin="600" fromJunction="J5" toJunction="J3" end="660" vehsPerHour="59.500638518564585" departLane="free"/>
  <flow id="JF23529" begin="600" fromJunction="J5" toJunction="J0" end="660" vehsPerHour="40.02909066307369" departLane="free"/>