<?xml version="1.0" encoding="UTF-8"?>
<routes xmlns:xsi="http://www.w3.org/2001/XMLSchema-instance" xsi:noNamespaceSchemaLocation="http://sumo.dlr.de/xsd/routes_file.xsd">
  <flow id="JF27040" begin="0" fromJunction="J3" toJunction="J0" end="60" vehsPerHour="25.86354766053692" departLane="free"/>
  <flow id="JF27041" begin="0" fromJunction="J0" toJunction="J3" end="60" vehsPerHour="71.27870305250731" departLane="free"/>
  <flow id="JF27042" begin="0" fromJunction="J3" toJunction="J6" end="60" vehsPerHour="18.419517610747093" departLane="free"/>
  <flow id="JF27043" begin="0" fromJunction="J3" toJunction="J7" end="60" vehsPerHour="23.72152625524945" departLane="free"/>
  <flow id="JF27044" begin="0" fromJunction="J3" toJunction="J4" end="60" vehsPerHour="116.82083363370852" departLane="free"/>
  <flow id="JF27045" begin="0" fromJunction="J3" toJunction="J5" end="60" vehsPerHour="45.151204205861504" departLane="free"/>
  <flow id="JF27046" begin="0" fromJunction="J0" toJunction="J6" end="60" vehsPerHour="90.31320665920356" departLane="free"/>
  <flow id="JF27047" begin="0" fromJunction="J0" toJunction="J7" end="60" vehsPerHour="50.80487785118752" departLane="free"/>
  <flow id="JF27048" begin="0" fromJunction="J0" toJunction="J4" end="60" vehsPerHour="9.844340733275049" departLane="free"/>
  <flow id="JF27049" begin="0" fromJunction="J0" toJunction="J5" end="60" vehsPerHour="119.77847782136492" departLane="free"/>
  <flow id="JF27050" begin="0" fromJunction="J6" toJunction="J7" end="60" vehsPerHour="38.021208661252956" departLane="free"/>
  <flow id="JF27051" begin="0" fromJunction="J6" toJunction="J4" end="60" vehsPerHour="49.886220564335616" departLane="free"/>
  <flow id="JF27052" begin="0" fromJunction="J6" toJunction="J5" end="60" vehsPerHour="45.6194514657974" departLane="free"/>
  <flow id="JF27053" begin="0" fromJunction="J7" toJunction="J6" end="60" vehsPerHour="45.30347095310742" departLane="free"/>
  <flow id="JF27054" begin="0" fromJunction="J7" toJunction="J4" end="60" vehsPerHour="40.369299884529894" departLane="free"/>
  <flow id="JF27055" begin="0" fromJunction="J7" toJunction="J5" end="60" vehsPerHour="26.05214775194821" departLane="free"/>
  <flow id="JF27056" begin="0" fromJunction="J4" toJunction="J6" end="60" vehsPerHour="58.11866427723808" departLane="free"/>
  <flow id="JF27057" begin="0" fromJunction="J4" toJunction="J7" end="60" vehsPerHour="44.76391948753001" departLane="free"/>
  <flow id="JF27058" begin="0" fromJunction="J4" toJunction="J5" end="60" vehsPerHour="30.988714472479554" departLane="free"/>
  <flow id="JF27059" begin="0" fromJunction="J5" toJunction="J6" end="60" vehsPerHour="24.09014601317597" departLane="free"/>
  <flow id="JF27060" begin="0" fromJunction="J5" toJunction="J7" end="60" vehsPerHour="59.08725802765226" departLane="free"/>
  <flow id="JF27061" begin="0" fromJunction="J5" toJunction="J4" end="60" vehsPerHour="53.02725632544578" departLane="free"/>
  <flow id="JF27062" begin="0" fromJunction="J6" toJunction="J3" end="60" vehsPerHour="42.4551012588933" departLane="free"/>
  <flow id="JF27063" begin="0" fromJunction="J6" toJunction="J0" end="60" vehsPerHour="1.5073405718127442" departLane="free"/>
  <flow id="JF27064" begin="0" fromJunction="J7" toJunction="J3" end="60" vehsPerHour="61.26764026167625" departLane="free"/>
  <flow id="JF27065" begin="0" fromJunction="J7" toJunction="J0" end="60" vehsPerHour="26.956755578582825" departLane="free"/>
  <flow id="JF27066" begin="0" fromJunction="J4" toJunction="J3" end="60" vehsPerHour="64.92312516888632" departLane="free"/>
  <flow id="JF27067" begin="0" fromJunction="J4" toJunction="J0" end="60" vehsPerHour="39.091346294769195" departLane="free"/>
  <flow id="JF27068" begin="0" fromJunction="J5" toJunction="J3" end="60" vehsPerHour="1.3057017517074554" departLane="free"/>
  <flow id="JF27069" begin="0" fromJunction="J5" toJunction="J0" end="60" vehsPerHour="46.07133670833624" departLane="free"/>
  <flow id="JF27070" begin="60" fromJunction="J3" toJunction="J0" end="120" vehsPerHour="80.95318913022639" departLane="free"/>
  <flow id="JF27071" begin="60" fromJunction="J0" toJunction="J3" end="120" vehsPerHour="114.69301044199557" departLane="free"/>
  <flow id="JF27072" begin="60" fromJunction="J3" toJunction="J6" end="120" vehsPerHour="80.06193918128102" departLane="free"/>
  <flow id="JF27073" begin="60" fromJunction="J3" toJunction="J7" end="120" vehsPerHour="109.87857632103244" departLane="free"/>
  <flow id="JF27074" begin="60" fromJunction="J3" toJunction="J4" end="120" vehsPerHour="66.94322810264376" departLane="free"/>
  <flow id="JF27075" begin="60" fromJunction="J3" toJunction="J5" end="120" vehsPerHour="81.64642053135852" departLane="free"/>
  <flow id="JF27076" begin="60" fromJunction="J0" toJunction="J6" end="120" vehsPerHour="12.327709879054744" departLane="free"/>
  <flow id="JF27077" begin="60" fromJunction="J0" toJunction="J7" end="120" vehsPerHour="34.68511890244058" departLane="free"/>
  <flow id="JF27078" begin="60" fromJunction="J0" toJunction="J4" end="120" vehsPerHour="77.24384390006213" departLane="free"/>
  <flow id="JF27079" begin="60" fromJunction="J0" toJunction="J5" end="120" vehsPerHour="30.867538035551924" departLane="free"/>
  <flow id="JF27080" begin="120" fromJunction="J3" toJunction="J0" end="180" vehsPerHour="96.1833152910719" departLane="free"/>
  <flow id="JF27081" begin="120" fromJunction="J0" toJunction="J3" end="180" vehsPerHour="125.81184976426839" departLane="free"/>
  <flow id="JF27082" begin="120" fromJunction="J3" toJunction="J6" end="180" vehsPerHour="10.528549110814406" departLane="free"/>
  <flow id="JF27083" begin="120" fromJunction="J3" toJunction="J7" end="180" vehsPerHour="125.5177333823371" departLane="free"/>
  <flow id="JF27084" begin="120" fromJunction="J3" toJunction="J4" end="180" vehsPerHour="7.736563251972188" departLane="free"/>
  <flow id="JF27085" begin="120" fromJunction="J3" toJunction="J5" end="180" vehsPerHour="63.02925137174225" departLane="free"/>
  <flow id="JF27086" begin="120" fromJunction="J0" toJunction="J6" end="180" vehsPerHour="109.65094963273911" departLane="free"/>
  <flow id="JF27087" begin="120" fromJunction="J0" toJunction="J7" end="180" vehsPerHour="79.02208171166525" departLane="free"/>
  <flow id="JF27088" begin="120" fromJunction="J0" toJunction="J4" end="180" vehsPerHour="130.14367731941434" departLane="free"/>
  <flow id="JF27089" begin="120" fromJunction="J0" toJunction="J5" end="180" vehsPerHour="125.94532857199847" departLane="free"/>
  <flow id="JF27090" begin="120" fromJunction="J6" toJunction="J7" end="180" vehsPerHour="44.920435577879466" departLane="free"/>
  <flow id="JF27091" begin="120" fromJunction="J6" toJunction="J4" end="180" vehsPerHour="67.40408855244955" departLane="free"/>
  <flow id="JF27092" begin="120" fromJunction="J6" toJunction="J5" end="180" vehsPerHour="63.859016430097725" departLane="free"/>
  <flow id="JF27093" begin="120" fromJunction="J7" toJunction="J6" end="180" vehsPerHour="25.180726708677806" departLane="free"/>
  <flow id="JF27094" begin="120" fromJunction="J7" toJunction="J4" end="180" vehsPerHour="28.655606809133925" departLane="free"/>
  <flow id="JF27095" begin="120" fromJunction="J7" toJunction="J5" end="180" vehsPerHour="39.92965018635949" departLane="free"/>
  <flow id="JF27096" begin="120" fromJunction="J4" toJunction="J6" end="180" vehsPerHour="25.228152317318195" departLane="free"/>
  <flow id="JF27097" begin="120" fromJunction="J4" toJunction="J7" end="180" vehsPerHour="55.98991310513486" departLane="free"/>
  <flow id="JF27098" begin="120" fromJunction="J4" toJunction="J5" end="180" vehsPerHour="3.029458477817862" departLane="free"/>
  <flow id="JF27099" begin="120" fromJunction="J5" toJunction="J6" end="180" vehsPerHour="37.74158871953851" departLane="free"/>
  <flow id="JF27100" begin="120" fromJunction="J5" toJunction="J7" end="180" vehsPerHour="5.357306989489837" departLane="free"/>
  <flow id="JF27101" begin="120" fromJunction="J5" toJunction="J4" end="180" vehsPerHour="4.679798196674502" departLane="free"/>
  <flow id="JF27102" begin="120" fromJunction="J6" toJunction="J3" end="180" vehsPerHour="0.6949824972639237" departLane="free"/>
  <flow id="JF27103" begin="120" fromJunction="J6" toJunction="J0" end="180" vehsPerHour="23.344846084086388" departLane="free"/>
  <flow id="JF27104" begin="120" fromJunction="J7" toJunction="J3" end="180" vehsPerHour="63.313883661000496" departLane="free"/>
  <flow id="JF27105" begin="120" fromJunction="J7" toJunction="J0" end="180" vehsPerHour="8.163825405476588" departLane="free"/>
  <flow id="JF27106" begin="120" fromJunction="J4" toJunction="J3" end="180" vehsPerHour="19.516855601792265" departLane="free"/>
  <flow id="JF27107" begin="120" fromJunction="J4" toJunction="J0" end="180" vehsPerHour="15.752488185020985" departLane="free"/>
  <flow id="JF27108" begin="120" fromJunction="J5" toJunction="J3" end="180" vehsPerHour="56.131446284545504" departLane="free"/>
  <flow id="JF27109" begin="120" fromJunction="J5" toJunction="J0" end="180" vehsPerHour="2.6202802759247588" departLane="free"/>
  <flow id="JF27110" begin="180" fromJunction="J3" toJunction="J0" end="240" vehsPerHour="38.67619536392276" departLane="free"/>
  <flow id="JF27111" begin="180" fromJunction="J0" toJunction="J3" end="240" vehsPerHour="54.71415087660084" departLane="free"/>
  <flow id="JF27112" begin="180" fromJunction="J3" toJunction="J6" end="240" vehsPerHour="46.67441948701655" departLane="free"/>
  <flow id="JF27113" begin="180" fromJunction="J3" toJunction="J7" end="240" vehsPerHour="92.18424527881446" departLane="free"/>
  <flow id="JF27114" begin="180" fromJunction="J3" toJunction="J4" end="240" vehsPerHour="109.2981201935858" departLane="free"/>
  <flow id="JF27115" begin="180" fromJunction="J3" toJunction="J5" end="240" vehsPerHour="91.31198412245631" departLane="free"/>
  <flow id="JF27116" begin="180" fromJunction="J0" toJunction="J6" end="240" vehsPerHour="0.26466931665865084" departLane="free"/>
  <flow id="JF27117" begin="180" fromJunction="J0" toJunction="J7" end="240" vehsPerHour="98.06276994019088" departLane="free"/>
  <flow id="JF27118" begin="180" fromJunction="J0" toJunction="J4" end="240" vehsPerHour="105.94372250423368" departLane="free"/>
  <flow id="JF27119" begin="180" fromJunction="J0" toJunction="J5" end="240" vehsPerHour="50.341372406300025" departLane="free"/>
  <flow id="JF27120" begin="180" fromJunction="J6" toJunction="J7" end="240" vehsPerHour="58.24509655629993" departLane="free"/>
  <flow id="JF27121" begin="180" fromJunction="J6" toJunction="J4" end="240" vehsPerHour="27.389374698494187" departLane="free"/>
  <flow id="JF27122" begin="180" fromJunction="J6" toJunction="J5" end="240" vehsPerHour="51.576201100364884" departLane="free"/>
  <flow id="JF27123" begin="180" fromJunction="J7" toJunction="J6" end="240" vehsPerHour="65.04554888091933" departLane="free"/>
  <flow id="JF27124" begin="180" fromJunction="J7" toJunction="J4" end="240" vehsPerHour="20.8986569206785" departLane="free"/>
  <flow id="JF27125" begin="180" fromJunction="J7" toJunction="J5" end="240" vehsPerHour="43.4120207335125" departLane="free"/>
  <flow id="JF27126" begin="180" fromJunction="J4" toJunction="J6" end="240" vehsPerHour="48.67427347091059" departLane="free"/>
  <flow id="JF27127" begin="180" fromJunction="J4" toJunction="J7" end="240" vehsPerHour="32.25610417208863" departLane="free"/>
  <flow id="JF27128" begin="180" fromJunction="J4" toJunction="J5" end="240" vehsPerHour="63.96520964983796" departLane="free"/>
  <flow id="JF27129" begin="180" fromJunction="J5" toJunction="J6" end="240" vehsPerHour="35.735040965663735" departLane="free"/>
  <flow id="JF27130" begin="180" fromJunction="J5" toJunction="J7" end="240" vehsPerHour="44.99259859507298" departLane="free"/>
  <flow id="JF27131" begin="180" fromJunction="J5" toJunction="J4" end="240" vehsPerHour="27.685770571641577" departLane="free"/>
  <flow id="JF27132" begin="180" fromJunction="J6" toJunction="J3" end="240" vehsPerHour="18.103540513908083" departLane="free"/>
  <flow id="JF27133" begin="180" fromJunction="J6" toJunction="J0" end="240" vehsPerHour="0.8070053900394393" departLane="free"/>
  <flow id="JF27134" begin="180" fromJunction="J7" toJunction="J3" end="240" vehsPerHour="51.96033312931687" departLane="free"/>
  <flow id="JF27135" begin="180" fromJunction="J7" toJunction="J0" end="240" vehsPerHour="35.77243032306076" departLane="free"/>
  <flow id="JF27136" begin="180" fromJunction="J4" toJunction="J3" end="240" vehsPerHour="58.500617100730125" departLane="free"/>
  <flow id="JF27137" begin="180" fromJunction="J4" toJunction="J0" end="240" vehsPerHour="4.447591425903887" departLane="free"/>
  <flow id="JF27138" begin="180" fromJunction="J5" toJunction="J3" end="240" vehsPerHour="1.3498043818954741" departLane="free"/>
  <flow id="JF27139" begin="180" fromJunction="J5" toJunction="J0" end="240" vehsPerHour="14.04261346120172" departLane="free"/>
  <flow id="JF27140" begin="240" fromJunction="J3" toJunction="J0" end="300" vehsPerHour="22.794466604533948" departLane="free"/>
  <flow id="JF27141" begin="240" fromJunction="J0" toJunction="J3" end="300" vehsPerHour="129.12781534389825" departLane="free"/>
  <flow id="JF27142" begin="240" fromJunction="J3" toJunction="J6" end="300" vehsPerHour="23.371538531685868" departLane="free"/>
  <flow id="JF27143" begin="240" fromJunction="J3" toJunction="J7" end="300" vehsPerHour="33.64615703361539" departLane="free"/>
  <flow id="JF27144" begin="240" fromJunction="J3" toJunction="J4" end="300" vehsPerHour="2.59841303259782" departLane="free"/>
  <flow id="JF27145" begin="240" fromJunction="J3" toJunction="J5" end="300" vehsPerHour="31.80909815451084" departLane="free"/>
  <flow id="JF27146" begin="240" fromJunction="J0" toJunction="J6" end="300" vehsPerHour="9.640964136374832" departLane="free"/>
  <flow id="JF27147" begin="240" fromJunction="J0" toJunction="J7" end="300" vehsPerHour="11.79900683704843" departLane="free"/>
  <flow id="JF27148" begin="240" fromJunction="J0" toJunction="J4" end="300" vehsPerHour="32.17192750515043" departLane="free"/>
  <flow id="JF27149" begin="240" fromJunction="J0" toJunction="J5" end="300" vehsPerHour="18.046986513586575" departLane="free"/>
  <flow id="JF27150" begin="300" fromJunction="J3" toJunction="J0" end="360" vehsPerHour="1.583571912171035" departLane="free"/>
  <flow id="JF27151" begin="300" fromJunction="J0" toJunction="J3" end="360" vehsPerHour="3.4367046437157933" departLane="free"/>
  <flow id="JF27152" begin="300" fromJunction="J3" toJunction="J6" end="360" vehsPerHour="58.04826653067896" departLane="free"/>
  <flow id="JF27153" begin="300" fromJunction="J3" toJunction="J7" end="360" vehsPerHour="7.758814484072171" departLane="free"/>
  <flow id="JF27154" begin="300" fromJunction="J3" toJunction="J4" end="360" vehsPerHour="66.57945855311881" departLane="free"/>
  <flow id="JF27155" begin="300" fromJunction="J3" toJunction="J5" end="360" vehsPerHour="4.281401161799852" departLane="free"/>
  <flow id="JF27156" begin="300" fromJunction="J0" toJunction="J6" end="360" vehsPerHour="104.97653274323162" departLane="free"/>
  <flow id="JF27157" begin="300" fromJunction="J0" toJunction="J7" end="360" vehsPerHour="31.43450646523185" departLane="free"/>
  <flow id="JF27158" begin="300" fromJunction="J0" toJunction="J4" end="360" vehsPerHour="68.77047592415184" departLane="free"/>
  <flow id="JF27159" begin="300" fromJunction="J0" toJunction="J5" end="360" vehsPerHour="6.232135085356194" departLane="free"/>
  <flow id="JF27160" begin="300" fromJunction="J6" toJunction="J7" end="360" vehsPerHour="43.33717032567747" departLane="free"/>
  <flow id="JF27161" begin="300" fromJunction="J6" toJunction="J4" end="360" vehsPerHour="51.65579023015546" departLane="free"/>
  <flow id="JF27162" begin="300" fromJunction="J6" toJunction="J5" end="360" vehsPerHour="4.888558676774931" departLane="free"/>
  <flow id="JF27163" begin="300" fromJunction="J7" toJunction="J6" end="360" vehsPerHour="55.8629414906607" departLane="free"/>
  <flow id="JF27164" begin="300" fromJunction="J7" toJunction="J4" end="360" vehsPerHour="8.540790480715172" departLane="free"/>
  <flow id="JF27165" begin="300" fromJunction="J7" toJunction="J5" end="360" vehsPerHour="60.76741331238301" departLane="free"/>
  <flow id="JF27166" begin="300" fromJunction="J4" toJunction="J6" end="360" vehsPerHour="41.38782971752924" departLane="free"/>
  <flow id="JF27167" begin="300" fromJunction="J4" toJunction="J7" end="360" vehsPerHour="58.562318126909794" departLane="free"/>
  <flow id="JF27168" begin="300" fromJunction="J4" toJunction="J5" end="360" vehsPerHour="19.976212110799707" departLane="free"/>
  <flow id="JF27169" begin="300" fromJunction="J5" toJunction="J6" end="360" vehsPerHour="5.389166756904806" departLane="free"/>
  <flow id="JF27170" begin="300" fromJunction="J5" toJunction="J7" end="360" vehsPerHour="32.68349154221852" departLane="free"/>
  <flow id="JF27171" begin="300" fromJunction="J5" toJunction="J4" end="360" vehsPerHour="31.49162733003695" departLane="free"/>
  <flow id="JF27172" begin="300" fromJunction="J6" toJunction="J3" end="360" vehsPerHour="47.19697458738001" departLane="free"/>
  <flow id="JF27173" begin="300" fromJunction="J6" toJunction="J0" end="360" vehsPerHour="49.72581370383424" departLane="free"/>
  <flow id="JF27174" begin="300" fromJunction="J7" toJunction="J3" end="360" vehsPerHour="14.975388012299549" departLane="free"/>
  <flow id="JF27175" begin="300" fromJunction="J7" toJunction="J0" end="360" vehsPerHour="68.23178726814402" departLane="free"/>
  <flow id="JF27176" begin="300" fromJunction="J4" toJunction="J3" end="360" vehsPerHour="56.30363934991833" departLane="free"/>
  <flow id="JF27177" begin="300" fromJunction="J4" toJunction="J0" end="360" vehsPerHour="58.667944299760926" departLane="free"/>
  <flow id="JF27178" begin="300" fromJunction="J5" toJunction="J3" end="360" vehsPerHour="58.42581740744199" departLane="free"/>
  <flow id="JF27179" begin="300" fromJunction="J5" toJunction="J0" end="360" vehsPerHour="27.124806265278416" departLane="free"/>
  <flow id="JF27180" begin="360" fromJunction="J3" toJunction="J0" end="420" vehsPerHour="131.1376412974653" departLane="free"/>
  <flow id="JF27181" begin="360" fromJunction="J0" toJunction="J3" end="420" vehsPerHour="122.75069895532229" departLane="free"/>
  <flow id="JF27182" begin="360" fromJunction="J3" toJunction="J6" end="420" vehsPerHour="39.102436082682686" departLane="free"/>
  <flow id="JF27183" begin="360" fromJunction="J3" toJunction="J7" end="420" vehsPerHour="97.57903571328748" departLane="free"/>
  <flow id="JF27184" begin="360" fromJunction="J3" toJunction="J4" end="420" vehsPerHour="87.19971202545146" departLane="free"/>
  <flow id="JF27185" begin="360" fromJunction="J3" toJunction="J5" end="420" vehsPerHour="82.35708930895086" departLane="free"/>
  <flow id="JF27186" begin="360" fromJunction="J0" toJunction="J6" end="420" vehsPerHour="99.91633319422905" departLane="free"/>
  <flow id="JF27187" begin="360" fromJunction="J0" toJunction="J7" end="420" vehsPerHour="126.40111227817147" departLane="free"/>
  <flow id="JF27188" begin="360" fromJunction="J0" toJunction="J4" end="420" vehsPerHour="1.8262743576924167" departLane="free"/>
  <flow id="JF27189" begin="360" fromJunction="J0" toJunction="J5" end="420" vehsPerHour="108.0104406584231" departLane="free"/>
  <flow id="JF27190" begin="360" fromJunction="J6" toJunction="J7" end="420" vehsPerHour="17.580247769373045" departLane="free"/>
  <flow id="JF27191" begin="360" fromJunction="J6" toJunction="J4" end="420" vehsPerHour="4.144812942305862" departLane="free"/>
  <flow id="JF27192" begin="360" fromJunction="J6" toJunction="J5" end="420" vehsPerHour="42.754878391506814" departLane="free"/>
  <flow id="JF27193" begin="360" fromJunction="J7" toJunction="J6" end="420" vehsPerHour="35.05607645038085" departLane="free"/>
  <flow id="JF27194" begin="360" fromJunction="J7" toJunction="J4" end="420" vehsPerHour="31.762752988391554" departLane="free"/>
  <flow id="JF27195" begin="360" fromJunction="J7" toJunction="J5" end="420" vehsPerHour="56.93439659268773" departLane="free"/>
  <flow id="JF27196" begin="360" fromJunction="J4" toJunction="J6" end="420" vehsPerHour="65.25706830092619" departLane="free"/>
  <flow id="JF27197" begin="360" fromJunction="J4" toJunction="J7" end="420" vehsPerHour="18.110932112292375" departLane="free"/>
  <flow id="JF27198" begin="360" fromJunction="J4" toJunction="J5" end="420" vehsPerHour="37.88818372560097" departLane="free"/>
  <flow id="JF27199" begin="360" fromJunction="J5" toJunction="J6" end="420" vehsPerHour="37.65809542725827" departLane="free"/>
  <flow id="JF27200" begin="360" fromJunction="J5" toJunction="J7" end="420" vehsPerHour="14.890626468475876" departLane="free"/>
  <flow id="JF27201" begin="360" fromJunction="J5" toJunction="J4" end="420" vehsPerHour="56.57482257905597" departLane="free"/>
  <flow id="JF27202" begin="360" fromJunction="J6" toJunction="J3" end="420" vehsPerHour="29.680661459263526" departLane="free"/>
  <flow id="JF27203" begin="360" fromJunction="J6" toJunction="J0" end="420" vehsPerHour="55.42754593779465" departLane="free"/>
  <flow id="JF27204" begin="360" fromJunction="J7" toJunction="J3" end="420" vehsPerHour="34.92741757944877" departLane="free"/>
  <flow id="JF27205" begin="360" fromJunction="J7" toJunction="J0" end="420" vehsPerHour="45.03504640104037" departLane="free"/>
  <flow id="JF27206" begin="360" fromJunction="J4" toJunction="J3" end="420" vehsPerHour="6.884015156182069" departLane="free"/>
  <flow id="JF27207" begin="360" fromJunction="J4" toJunction="J0" end="420" vehsPerHour="39.51297872363304" departLane="free"/>
  <flow id="JF27208" begin="360" fromJunction="J5" toJunction="J3" end="420" vehsPerHour="12.319811209170537" departLane="free"/>
  <flow id="JF27209" begin="360" fromJunction="J5" toJunction="J0" end="420" vehsPerHour="53.07554442225188" departLane="free"/>
  <flow id="JF27210" begin="420" fromJunction="J3" toJunction="J0" end="480" vehsPerHour="116.06865924802901" departLane="free"/>
  <flow id="JF27211" begin="420" fromJunction="J0" toJunction="J3" end="480" vehsPerHour="49.36468746848707" departLane="free"/>
  <flow id="JF27212" begin="420" fromJunction="J3" toJunction="J6" end="480" vehsPerHour="32.59040844906136" departLane="free"/>
  <flow id="JF27213" begin="420" fromJunction="J3" toJunction="J7" end="480" vehsPerHour="132.6909766165032" departLane="free"/>
  <flow id="JF27214" begin="420" fromJunction="J3" toJunction="J4" end="480" vehsPerHour="1.0170727716956538" departLane="free"/>
  <flow id="JF27215" begin="420" fromJunction="J3" toJunction="J5" end="480" vehsPerHour="46.48200186003131" departLane="free"/>
  <flow id="JF27216" begin="420" fromJunction="J0" toJunction="J6" end="480" vehsPerHour="38.17023755658549" departLane="free"/>
  <flow id="JF27217" begin="420" fromJunction="J0" toJunction="J7" end="480" vehsPerHour="65.73604322470625" departLane="free"/>
  <flow id="JF27218" begin="420" fromJunction="J0" toJunction="J4" end="480" vehsPerHour="47.00971486551193" departLane="free"/>
  <flow id="JF27219" begin="420" fromJunction="J0" toJunction="J5" end="480" vehsPerHour="70.50396272278469" departLane="free"/>
  <flow id="JF27220" begin="420" fromJunction="J6" toJunction="J7" end="480" vehsPerHour="65.27332565745743" departLane="free"/>
  <flow id="JF27221" begin="420" fromJunction="J6" toJunction="J4" end="480" vehsPerHour="14.390273153324529" departLane="free"/>
  <flow id="JF27222" begin="420" fromJunction="J6" toJunction="J5" end="480" vehsPerHour="7.732343857868295" departLane="free"/>
  <flow id="JF27223" begin="420" fromJunction="J7" toJunction="J6" end="480" vehsPerHour="37.4446624271087" departLane="free"/>
  <flow id="JF27224" begin="420" fromJunction="J7" toJunction="J4" end="480" vehsPerHour="1.4565304039907814" departLane="free"/>
  <flow id="JF27225" begin="420" fromJunction="J7" toJunction="J5" end="480" vehsPerHour="33.14860012669438" departLane="free"/>
  <flow id="JF27226" begin="420" fromJunction="J4" toJunction="J6" end="480" vehsPerHour="56.40037405661558" departLane="free"/>
  <flow id="JF27227" begin="420" fromJunction="J4" toJunction="J7" end="480" vehsPerHour="27.61412639227458" departLane="free"/>
  <flow id="JF27228" begin="420" fromJunction="J4" toJunction="J5" end="480" vehsPerHour="44.21010415923203" departLane="free"/>
  <flow id="JF27229" begin="420" fromJunction="J5" toJunction="J6" end="480" vehsPerHour="59.86064784807393" departLane="free"/>
  <flow id="JF27230" begin="420" fromJunction="J5" toJunction="J7" end="480" vehsPerHour="16.60831081591678" departLane="free"/>
  <flow id="JF27231" begin="420" fromJunction="J5" toJunction="J4" end="480" vehsPerHour="27.730444742780186" departLane="free"/>
  <flow id="JF27232" begin="420" fromJunction="J6" toJunction="J3" end="480" vehsPerHour="59.34488532237362" departLane="free"/>
  <flow id="JF27233" begin="420" fromJunction="J6" toJunction="J0" end="480" vehsPerHour="30.952168170021473" departLane="free"/>
  <flow id="JF27234" begin="420" fromJunction="J7" toJunction="J3" end="480" vehsPerHour="30.30128955764507" departLane="free"/>
  <flow id="JF27235" begin="420" fromJunction="J7" toJunction="J0" end="480" vehsPerHour="19.927953259537816" departLane="free"/>
  <flow id="JF27236" begin="420" fromJunction="J4" toJunction="J3" end="480" vehsPerHour="1.1214786636368186" departLane="free"/>
  <flow id="JF27237" begin="420" fromJunction="J4" toJunction="J0" end="480" vehsPerHour="57.40820498124404" departLane="free"/>
  <flow id="JF27238" begin="420" fromJunction="J5" toJunction="J3" end="480" vehsPerHour="13.178205533586265" departLane="free"/>
  <flow id="JF27239" begin="420" fromJunction="J5" toJunction="J0" end="480" vehsPerHour="31.71883287404786" departLane="free"/>
  <flow id="JF27240" begin="480" fromJunction="J3" toJunction="J0" end="540" vehsPerHour="84.96409170488523" departLane="free"/>
  <flow id="JF27241" begin="480" fromJunction="J0" toJunction="J3" end="540" vehsPerHour="15.265677580306038" departLane="free"/>
  <flow id="JF27242" begin="480" fromJunction="J3" toJunction="J6" end="540" vehsPerHour="118.53127869769432" departLane="free"/>
  <flow id="JF27243" begin="480" fromJunction="J3" toJunction="J7" end="540" vehsPerHour="41.05979860288194" departLane="free"/>
  <flow id="JF27244" begin="480" fromJunction="J3" toJunction="J4" end="540" vehsPerHour="125.43337542031034" departLane="free"/>
  <flow id="JF27245" begin="480" fromJunction="J3" toJunction="J5" end="540" vehsPerHour="86.670709173174" departLane="free"/>
  <flow id="JF27246" begin="480" fromJunction="J0" toJunction="J6" end="540" vehsPerHour="13.714337074584641" departLane="free"/>
  <flow id="JF27247" begin="480" fromJunction="J0" toJunction="J7" end="540" vehsPerHour="117.89001436178778" departLane="free"/>
  <flow id="JF27248" begin="480" fromJunction="J0" toJunction="J4" end="540" vehsPerHour="46.076519610235344" departLane="free"/>
  <flow id="JF27249" begin="480" fromJunction="J0" toJunction="J5" end="540" vehsPerHour="30.417085556204913" departLane="free"/>
  <flow id="JF27250" begin="480" fromJunction="J6" toJunction="J7" end="540" vehsPerHour="50.034878423235824" departLane="free"/>
  <flow id="JF27251" begin="480" fromJunction="J6" toJunction="J4" end="540" vehsPerHour="62.766586218792625" departLane="free"/>
  <flow id="JF27252" begin="480" fromJunction="J6" toJunction="J5" end="540" vehsPerHour="0.18065305751254174" departLane="free"/>
  <flow id="JF27253" begin="480" fromJunction="J7" toJunction="J6" end="540" vehsPerHour="31.279674418588623" departLane="free"/>
  <flow id="JF27254" begin="480" fromJunction="J7" toJunction="J4" end="540" vehsPerHour="32.86882681886849" departLane="free"/>
  <flow id="JF27255" begin="480" fromJunction="J7" toJunction="J5" end="540" vehsPerHour="12.547794747767057" departLane="free"/>
  <flow id="JF27256" begin="480" fromJunction="J4" toJunction="J6" end="540" vehsPerHour="43.01201277311562" departLane="free"/>
  <flow id="JF27257" begin="480" fromJunction="J4" toJunction="J7" end="540" vehsPerHour="12.026468857773743" departLane="free"/>
  <flow id="JF27258" begin="480" fromJunction="J4" toJunction="J5" end="540" vehsPerHour="66.97835918313594" departLane="free"/>
  <flow id="JF27259" begin="480" fromJunction="J5" toJunction="J6" end="540" vehsPerHour="47.84879257951468" departLane="free"/>
  <flow id="JF27260" begin="480" fromJunction="J5" toJunction="J7" end="540" vehsPerHour="20.926123782659015" departLane="free"/>
  <flow id="JF27261" begin="480" fromJunction="J5" toJunction="J4" end="540" vehsPerHour="8.723356875648834" departLane="free"/>
  <flow id="JF27262" begin="480" fromJunction="J6" toJunction="J3" end="540" vehsPerHour="7.650670670257239" departLane="free"/>
  <flow id="JF27263" begin="480" fromJunction="J6" toJunction="J0" end="540" vehsPerHour="41.12209469564837" departLane="free"/>
  <flow id="JF27264" begin="480" fromJunction="J7" toJunction="J3" end="540" vehsPerHour="61.53499389201953" departLane="free"/>
  <flow id="JF27265" begin="480" fromJunction="J7" toJunction="J0" end="540" vehsPerHour="50.44556590903571" departLane="free"/>
  <flow id="JF27266" begin="480" fromJunction="J4" toJunction="J3" end="540" vehsPerHour="12.755774521862776" departLane="free"/>
  <flow id="JF27267" begin="480" fromJunction="J4" toJunction="J0" end="540" vehsPerHour="56.602727887614066" departLane="free"/>
  <flow id="JF27268" begin="480" fromJunction="J5" toJunction="J3" end="540" vehsPerHour="56.51552925352929" departLane="free"/>
  <flow id="JF27269" begin="480" fromJunction="J5" toJunction="J0" end="540" vehsPerHour="0.09436131859594143" departLane="free"/>
  <flow id="JF27270" begin="540" fromJunction="J3" toJunction="J0" end="600" vehsPerHour="134.49307648733748" departLane="free"/>