<?xml version="1.0" encoding="UTF-8"?>
<routes xmlns:xsi="http://www.w3.org/2001/XMLSchema-instance" xsi:noNamespaceSchemaLocation="http://sumo.dlr.de/xsd/routes_file.xsd">
  <flow id="JF180" begin="0" fromJunction="J3" toJunction="J4" end="5000" vehsPerHour="1374.0"/>
  <flow id="JF181" begin="0" fromJunction="J3" toJunction="J5" end="5000" vehsPerHour="343.5"/>
  <flow id="JF182" begin="0" fromJunction="J3" toJunction="J6" end="5000" vehsPerHour="343.5"/>
  <flow id="JF183" begin="0" fromJunction="J3" toJunction="J7" end="5000" vehsPerHour="343.5"/>
  <flow id="JF184" begin="0" fromJunction="J3" toJunction="J0" end="5000" vehsPerHour="343.5"/>
  <flow id="JF185" begin="0" fromJunction="J4" toJunction="J0" end="5000" vehsPerHour="54.96000000000001"/>
  <flow id="JF186" begin="0" fromJunction="J4" toJunction="J3" end="5000" vehsPerHour="54.96000000000001"/>
  <flow id="JF187" begin="0" fromJunction="J4" toJunction="J5" end="5000" vehsPerHour="54.96000000000001"/>
  <flow id="JF188" begin="0" fromJunction="J4" toJunction="J6" end="5000" vehsPerHour="54.96000000000001"/>
  <flow id="JF189" begin="0" fromJunction="J4" toJunction="J7" end="5000" vehsPerHour="54.96000000000001"/>
  <flow id="JF190" begin="0" fromJunction="J5" toJunction="J0" end="5000" vehsPerHour="54.96000000000001"/>
  <flow id="JF191" begin="0" fromJunction="J5" toJunction="J3" end="5000" vehsPerHour="54.96000000000001"/>
  <flow id="JF192" begin="0" fromJunction="J5" toJunction="J4" end="5000" vehsPerHour="54.96000000000001"/>
  <flow id="JF193" begin="0" fromJunction="J5" toJunction="J6" end="5000" vehsPerHour="54.96000000000001"/>
  <flow id="JF194" begin="0" fromJunction="J5" toJunction="J7" end="5000" vehsPerHour="54.96000000000001"/>
  <flow id="JF195" begin="0" fromJunction="J6" toJunction="J0" end="5000" vehsPerHour="54.96000000000001"/>
  <flow id="JF196" begin="0" fromJunction="J6" toJunction="J3" end="5000" vehsPerHour="54.96000000000001"/>
  <flow id="JF197" begin="0" fromJunction="J6" toJunction="J4" end="5000" vehsPerHour="54.96000000000001"/>
  <flow id="JF198" begin="0" fromJunction="J6" toJunction="J5" end="5000" vehsPerHour="54.96000000000001"/>
  <flow id="JF199" begin="0" fromJunction="J6" toJunction="J7" end="5000" vehsPerHour="54.96000000000001"/>
  <flow id="JF200" begin="0" fromJunction="J7" toJunction="J0" end="5000" vehsPerHour="54.96000000000001"/>
  <flow id="JF201" begin="0" fromJunction="J7" toJunction="J3" end="5000" vehsPerHour="54.96000000000001"/>
  <flow id="JF202" begin="0" fromJunction="J7" toJunction="J4" end="5000" vehsPerHour="54.96000000000001"/>
  <flow id="JF203" begin="0" fromJunction="J7" toJunction="J5" end="5000" vehsPerHour="54.96000000000001"/>
  <flow id="JF204" begin="0" fromJunction="J7" toJunction="J6" end="5000" vehsPerHour="54.96000000000001"/>
  <flow id="JF205" begin="0" fromJunction="J0" toJunction="J7" end="5000" vehsPerHour="109.92000000000002"/>
  <flow id="JF206" begin="0" fromJunction="J0" toJunction="J6" end="5000" vehsPerHour="109.92000000000002"/>
  <flow id="JF207" begin="0" fromJunction="J0" toJunction="J5" end="5000" vehsPerHour="109.92000000000002"/>
  <flow id="JF208" begin="0" fromJunction="J0" toJunction="J4" end="5000" vehsPerHour="109.92000000000002"/>
  <flow id="JF209" begin="0" fromJunction="J0" toJunction="J3" end="5000" vehsPerHour="109.92000000000002"/>
</routes>