<?xml version="1.0" encoding="UTF-8"?>
<routes xmlns:xsi="http://www.w3.org/2001/XMLSchema-instance" xsi:noNamespaceSchemaLocation="http://sumo.dlr.de/xsd/routes_file.xsd">
  <flow id="JF330" begin="0" fromJunction="J3" toJunction="J7" end="3600" vehsPerHour="109.92000000000002"/>
  <flow id="JF331" begin="0" fromJunction="J3" toJunction="J6" end="3600" vehsPerHour="109.92000000000002"/>
  <flow id="JF332" begin="0" fromJunction="J3" toJunction="J5" end="3600" vehsPerHour="109.92000000000002"/>
  <flow id="JF333" begin="0" fromJunction="J3" toJunction="J4" end="3600" vehsPerHour="109.92000000000002"/>
  <flow id="JF334" begin="0" fromJunction="J3" toJunction="J0" end="3600" vehsPerHour="109.92000000000002"/>
  <flow id="JF335" begin="0" fromJunction="J4" toJunction="J3" end="3600" vehsPerHour="687.0"/>
  <flow id="JF336" begin="0" fromJunction="J4" toJunction="J5" end="3600" vehsPerHour="171.75"/>
  <flow id="JF337" begin="0" fromJunction="J4" toJunction="J6" end="3600" vehsPerHour="171.75"/>
  <flow id="JF338" begin="0" fromJunction="J4" toJunction="J7" end="3600" vehsPerHour="171.75"/>
  <flow id="JF339" begin="0" fromJunction="J4" toJunction="J0" end="3600" vehsPerHour="171.75"/>
  <flow id="JF340" begin="0" fromJunction="J5" toJunction="J0" end="3600" vehsPerHour="54.96000000000001"/>
  <flow id="JF341" begin="0" fromJunction="J5" toJunction="J3" end="3600" vehsPerHour="54.96000000000001"/>
  <flow id="JF342" begin="0" fromJunction="J5" toJunction="J4" end="3600" vehsPerHour="54.96000000000001"/>
  <flow id="JF343" begin="0" fromJunction="J5" toJunction="J6" end="3600" vehsPerHour="54.96000000000001"/>
  <flow id="JF344" begin="0" fromJunction="J5" toJunction="J7" end="3600" vehsPerHour="54.96000000000001"/>
  <flow id="JF345" begin="0" fromJunction="J6" toJunction="J0" end="3600" vehsPerHour="54.96000000000001"/>
  <flow id="JF346" begin="0" fromJunction="J6" toJunction="J3" end="3600" vehsPerHour="54.96000000000001"/>
  <flow id="JF347" begin="0" fromJunction="J6" toJunction="J4" end="3600" vehsPerHour="54.96000000000001"/>
  <flow id="JF348" begin="0" fromJunction="J6" toJunction="J5" end="3600" vehsPerHour="54.96000000000001"/>
  <flow id="JF349" begin="0" fromJunction="J6" toJunction="J7" end="3600" vehsPerHour="54.96000000000001"/>
  <flow id="JF350" begin="0" fromJunction="J7" toJunction="J0" end="3600" vehsPerHour="54.96000000000001"/>
  <flow id="JF351" begin="0" fromJunction="J7" toJunction="J3" end="3600" vehsPerHour="54.96000000000001"/>
  <flow id="JF352" begin="0" fromJunction="J7" toJunction="J4" end="3600" vehsPerHour="54.96000000000001"/>
  <flow id="JF353" begin="0" fromJunction="J7" toJunction="J5" end="3600" vehsPerHour="54.96000000000001"/>
  <flow id="JF354" begin="0" fromJunction="J7" toJunction="J6" end="3600" vehsPerHour="54.96000000000001"/>
  <flow id="JF355" begin="0" fromJunction="J0" toJunction="J7" end="3600" vehsPerHour="109.92000000000002"/>
  <flow id="JF356" begin="0" fromJunction="J0" toJunction="J6" end="3600" vehsPerHour="109.92000000000002"/>
  <flow id="JF357" begin="0" fromJunction="J0" toJunction="J5" end="3600" vehsPerHour="109.92000000000002"/>
  <flow id="JF358" begin="0" fromJunction="J0" toJunction="J4" end="3600" vehsPerHour="109.92000000000002"/>
  <flow id="JF359" begin="0" fromJunction="J0" toJunction="J3" end="3600" vehsPerHour="109.92000000000002"/>
</routes>