<?xml version="1.0" encoding="UTF-8"?>
<routes xmlns:xsi="http://www.w3.org/2001/XMLSchema-instance" xsi:noNamespaceSchemaLocation="http://sumo.dlr.de/xsd/routes_file.xsd">
  <flow id="JF390" begin="0" fromJunction="J3" toJunction="J7" end="5000" vehsPerHour="109.92000000000002"/>
  <flow id="JF391" begin="0" fromJunction="J3" toJunction="J6" end="5000" vehsPerHour="109.92000000000002"/>
  <flow id="JF392" begin="0" fromJunction="J3" toJunction="J5" end="5000" vehsPerHour="109.92000000000002"/>
  <flow id="JF393" begin="0" fromJunction="J3" toJunction="J4" end="5000" vehsPerHour="109.92000000000002"/>
  <flow id="JF394" begin="0" fromJunction="J3" toJunction="J0" end="5000" vehsPerHour="109.92000000000002"/>
  <flow id="JF395" begin="0" fromJunction="J4" toJunction="J6" end="5000" vehsPerHour="687.0"/>
  <flow id="JF396" begin="0" fromJunction="J4" toJunction="J7" end="5000" vehsPerHour="171.75"/>
  <flow id="JF397" begin="0" fromJunction="J4" toJunction="J5" end="5000" vehsPerHour="171.75"/>
  <flow id="JF398" begin="0" fromJunction="J4" toJunction="J3" end="5000" vehsPerHour="171.75"/>
  <flow id="JF399" begin="0" fromJunction="J4" toJunction="J0" end="5000" vehsPerHour="171.75"/>
  <flow id="JF400" begin="0" fromJunction="J5" toJunction="J0" end="5000" vehsPerHour="54.96000000000001"/>
  <flow id="JF401" begin="0" fromJunction="J5" toJunction="J3" end="5000" vehsPerHour="54.96000000000001"/>
  <flow id="JF402" begin="0" fromJunction="J5" toJunction="J4" end="5000" vehsPerHour="54.96000000000001"/>
  <flow id="JF403" begin="0" fromJunction="J5" toJunction="J6" end="5000" vehsPerHour="54.96000000000001"/>
  <flow id="JF404" begin="0" fromJunction="J5" toJunction="J7" end="5000" vehsPerHour="54.96000000000001"/>
  <flow id="JF405" begin="0" fromJunction="J6" toJunction="J0" end="5000" vehsPerHour="54.96000000000001"/>
  <flow id="JF406" begin="0" fromJunction="J6" toJunction="J3" end="5000" vehsPerHour="54.96000000000001"/>
  <flow id="JF407" begin="0" fromJunction="J6" toJunction="J4" end="5000" vehsPerHour="54.96000000000001"/>
  <flow id="JF408" begin="0" fromJunction="J6" toJunction="J5" end="5000" vehsPerHour="54.96000000000001"/>
  <flow id="JF409" begin="0" fromJunction="J6" toJunction="J7" end="5000" vehsPerHour="54.96000000000001"/>
  <flow id="JF410" begin="0" fromJunction="J7" toJunction="J0" end="5000" vehsPerHour="54.96000000000001"/>
  <flow id="JF411" begin="0" fromJunction="J7" toJunction="J3" end="5000" vehsPerHour="54.96000000000001"/>
  <flow id="JF412" begin="0" fromJunction="J7" toJunction="J4" end="5000" vehsPerHour="54.96000000000001"/>
  <flow id="JF413" begin="0" fromJunction="J7" toJunction="J5" end="5000" vehsPerHour="54.96000000000001"/>
  <flow id="JF414" begin="0" fromJunction="J7" toJunction="J6" end="5000" vehsPerHour="54.96000000000001"/>
  <flow id="JF415" begin="0" fromJunction="J0" toJunction="J7" end="5000" vehsPerHour="109.92000000000002"/>
  <flow id="JF416" begin="0" fromJunction="J0" toJunction="J6" end="5000" vehsPerHour="109.92000000000002"/>
  <flow id="JF417" begin="0" fromJunction="J0" toJunction="J5" end="5000" vehsPerHour="109.92000000000002"/>
  <flow id="JF418" begin="0" fromJunction="J0" toJunction="J4" end="5000" vehsPerHour="109.92000000000002"/>
  <flow id="JF419" begin="0" fromJunction="J0" toJunction="J3" end="5000" vehsPerHour="109.92000000000002"/>
</routes>