<?xml version="1.0" encoding="UTF-8"?>
<routes xmlns:xsi="http://www.w3.org/2001/XMLSchema-instance" xsi:noNamespaceSchemaLocation="http://sumo.dlr.de/xsd/routes_file.xsd">
  <flow id="JF750" begin="0" fromJunction="J3" toJunction="J7" end="5000" vehsPerHour="109.92000000000002"/>
  <flow id="JF751" begin="0" fromJunction="J3" toJunction="J6" end="5000" vehsPerHour="109.92000000000002"/>
  <flow id="JF752" begin="0" fromJunction="J3" toJunction="J5" end="5000" vehsPerHour="109.92000000000002"/>
  <flow id="JF753" begin="0" fromJunction="J3" toJunction="J4" end="5000" vehsPerHour="109.92000000000002"/>
  <flow id="JF754" begin="0" fromJunction="J3" toJunction="J0" end="5000" vehsPerHour="109.92000000000002"/>
  <flow id="JF755" begin="0" fromJunction="J4" toJunction="J7" end="5000" vehsPerHour="54.96000000000001"/>
  <flow id="JF756" begin="0" fromJunction="J4" toJunction="J6" end="5000" vehsPerHour="54.96000000000001"/>
  <flow id="JF757" begin="0" fromJunction="J4" toJunction="J5" end="5000" vehsPerHour="54.96000000000001"/>
  <flow id="JF758" begin="0" fromJunction="J4" toJunction="J3" end="5000" vehsPerHour="54.96000000000001"/>
  <flow id="JF759" begin="0" fromJunction="J4" toJunction="J0" end="5000" vehsPerHour="54.96000000000001"/>
  <flow id="JF760" begin="0" fromJunction="J5" toJunction="J7" end="5000" vehsPerHour="54.96000000000001"/>
  <flow id="JF761" begin="0" fromJunction="J5" toJunction="J6" end="5000" vehsPerHour="54.96000000000001"/>
  <flow id="JF762" begin="0" fromJunction="J5" toJunction="J4" end="5000" vehsPerHour="54.96000000000001"/>
  <flow id="JF763" begin="0" fromJunction="J5" toJunction="J3" end="5000" vehsPerHour="54.96000000000001"/>
  <flow id="JF764" begin="0" fromJunction="J5" toJunction="J0" end="5000" vehsPerHour="54.96000000000001"/>
  <flow id="JF765" begin="0" fromJunction="J6" toJunction="J7" end="5000" vehsPerHour="54.96000000000001"/>
  <flow id="JF766" begin="0" fromJunction="J6" toJunction="J5" end="5000" vehsPerHour="54.96000000000001"/>
  <flow id="JF767" begin="0" fromJunction="J6" toJunction="J4" end="5000" vehsPerHour="54.96000000000001"/>
  <flow id="JF768" begin="0" fromJunction="J6" toJunction="J3" end="5000" vehsPerHour="54.96000000000001"/>
  <flow id="JF769" begin="0" fromJunction="J6" toJunction="J0" end="5000" vehsPerHour="54.96000000000001"/>
  <flow id="JF770" begin="0" fromJunction="J7" toJunction="J0" end="5000" vehsPerHour="687.0"/>
  <flow id="JF771" begin="0" fromJunction="J7" toJunction="J3" end="5000" vehsPerHour="171.75"/>
  <flow id="JF772" begin="0" fromJunction="J7" toJunction="J4" end="5000" vehsPerHour="171.75"/>
  <flow id="JF773" begin="0" fromJunction="J7" toJunction="J5" end="5000" vehsPerHour="171.75"/>
  <flow id="JF774" begin="0" fromJunction="J7" toJunction="J6" end="5000" vehsPerHour="171.75"/>
  <flow id="JF775" begin="0" fromJunction="J0" toJunction="J7" end="5000" vehsPerHour="109.92000000000002"/>
  <flow id="JF776" begin="0" fromJunction="J0" toJunction="J6" end="5000" vehsPerHour="109.92000000000002"/>
  <flow id="JF777" begin="0" fromJunction="J0" toJunction="J5" end="5000" vehsPerHour="109.92000000000002"/>
  <flow id="JF778" begin="0" fromJunction="J0" toJunction="J4" end="5000" vehsPerHour="109.92000000000002"/>
  <flow id="JF779" begin="0" fromJunction="J0" toJunction="J3" end="5000" vehsPerHour="109.92000000000002"/>
</routes>