<?xml version="1.0" encoding="UTF-8"?>
<routes xmlns:xsi="http://www.w3.org/2001/XMLSchema-instance" xsi:noNamespaceSchemaLocation="http://sumo.dlr.de/xsd/routes_file.xsd">
  <flow id="JF540" begin="0" fromJunction="J3" toJunction="J7" end="3600" vehsPerHour="109.92000000000002"/>
  <flow id="JF541" begin="0" fromJunction="J3" toJunction="J6" end="3600" vehsPerHour="109.92000000000002"/>
  <flow id="JF542" begin="0" fromJunction="J3" toJunction="J5" end="3600" vehsPerHour="109.92000000000002"/>
  <flow id="JF543" begin="0" fromJunction="J3" toJunction="J4" end="3600" vehsPerHour="109.92000000000002"/>
  <flow id="JF544" begin="0" fromJunction="J3" toJunction="J0" end="3600" vehsPerHour="109.92000000000002"/>
  <flow id="JF545" begin="0" fromJunction="J4" toJunction="J7" end="3600" vehsPerHour="54.96000000000001"/>
  <flow id="JF546" begin="0" fromJunction="J4" toJunction="J6" end="3600" vehsPerHour="54.96000000000001"/>
  <flow id="JF547" begin="0" fromJunction="J4" toJunction="J5" end="3600" vehsPerHour="54.96000000000001"/>
  <flow id="JF548" begin="0" fromJunction="J4" toJunction="J3" end="3600" vehsPerHour="54.96000000000001"/>
  <flow id="JF549" begin="0" fromJunction="J4" toJunction="J0" end="3600" vehsPerHour="54.96000000000001"/>
  <flow id="JF550" begin="0" fromJunction="J5" toJunction="J6" end="3600" vehsPerHour="687.0"/>
  <flow id="JF551" begin="0" fromJunction="J5" toJunction="J7" end="3600" vehsPerHour="171.75"/>
  <flow id="JF552" begin="0" fromJunction="J5" toJunction="J4" end="3600" vehsPerHour="171.75"/>
  <flow id="JF553" begin="0" fromJunction="J5" toJunction="J3" end="3600" vehsPerHour="171.75"/>
  <flow id="JF554" begin="0" fromJunction="J5" toJunction="J0" end="3600" vehsPerHour="171.75"/>
  <flow id="JF555" begin="0" fromJunction="J6" toJunction="J0" end="3600" vehsPerHour="54.96000000000001"/>
  <flow id="JF556" begin="0" fromJunction="J6" toJunction="J3" end="3600" vehsPerHour="54.96000000000001"/>
  <flow id="JF557" begin="0" fromJunction="J6" toJunction="J4" end="3600" vehsPerHour="54.96000000000001"/>
  <flow id="JF558" begin="0" fromJunction="J6" toJunction="J5" end="3600" vehsPerHour="54.96000000000001"/>
  <flow id="JF559" begin="0" fromJunction="J6" toJunction="J7" end="3600" vehsPerHour="54.96000000000001"/>
  <flow id="JF560" begin="0" fromJunction="J7" toJunction="J0" end="3600" vehsPerHour="54.96000000000001"/>
  <flow id="JF561" begin="0" fromJunction="J7" toJunction="J3" end="3600" vehsPerHour="54.96000000000001"/>
  <flow id="JF562" begin="0" fromJunction="J7" toJunction="J4" end="3600" vehsPerHour="54.96000000000001"/>
  <flow id="JF563" begin="0" fromJunction="J7" toJunction="J5" end="3600" vehsPerHour="54.96000000000001"/>
  <flow id="JF564" begin="0" fromJunction="J7" toJunction="J6" end="3600" vehsPerHour="54.96000000000001"/>
  <flow id="JF565" begin="0" fromJunction="J0" toJunction="J7" end="3600" vehsPerHour="109.92000000000002"/>
  <flow id="JF566" begin="0" fromJunction="J0" toJunction="J6" end="3600" vehsPerHour="109.92000000000002"/>
  <flow id="JF567" begin="0" fromJunction="J0" toJunction="J5" end="3600" vehsPerHour="109.92000000000002"/>
  <flow id="JF568" begin="0" fromJunction="J0" toJunction="J4" end="3600" vehsPerHour="109.92000000000002"/>
  <flow id="JF569" begin="0" fromJunction="J0" toJunction="J3" end="3600" vehsPerHour="109.92000000000002"/>
</routes>