<?xml version="1.0" encoding="UTF-8"?>
<routes xmlns:xsi="http://www.w3.org/2001/XMLSchema-instance" xsi:noNamespaceSchemaLocation="http://sumo.dlr.de/xsd/routes_file.xsd">
  <flow id="JF120" begin="0" fromJunction="J3" toJunction="J0" end="3600" vehsPerHour="109.92000000000002"/>
  <flow id="JF121" begin="0" fromJunction="J3" toJunction="J4" end="3600" vehsPerHour="109.92000000000002"/>
  <flow id="JF122" begin="0" fromJunction="J3" toJunction="J5" end="3600" vehsPerHour="109.92000000000002"/>
  <flow id="JF123" begin="0" fromJunction="J3" toJunction="J6" end="3600" vehsPerHour="109.92000000000002"/>
  <flow id="JF124" begin="0" fromJunction="J3" toJunction="J7" end="3600" vehsPerHour="109.92000000000002"/>
  <flow id="JF125" begin="0" fromJunction="J4" toJunction="J0" end="3600" vehsPerHour="54.96000000000001"/>
  <flow id="JF126" begin="0" fromJunction="J4" toJunction="J3" end="3600" vehsPerHour="54.96000000000001"/>
  <flow id="JF127" begin="0" fromJunction="J4" toJunction="J5" end="3600" vehsPerHour="54.96000000000001"/>
  <flow id="JF128" begin="0" fromJunction="J4" toJunction="J6" end="3600" vehsPerHour="54.96000000000001"/>
  <flow id="JF129" begin="0" fromJunction="J4" toJunction="J7" end="3600" vehsPerHour="54.96000000000001"/>
  <flow id="JF130" begin="0" fromJunction="J5" toJunction="J0" end="3600" vehsPerHour="54.96000000000001"/>
  <flow id="JF131" begin="0" fromJunction="J5" toJunction="J3" end="3600" vehsPerHour="54.96000000000001"/>
  <flow id="JF132" begin="0" fromJunction="J5" toJunction="J4" end="3600" vehsPerHour="54.96000000000001"/>
  <flow id="JF133" begin="0" fromJunction="J5" toJunction="J6" end="3600" vehsPerHour="54.96000000000001"/>
  <flow id="JF134" begin="0" fromJunction="J5" toJunction="J7" end="3600" vehsPerHour="54.96000000000001"/>
  <flow id="JF135" begin="0" fromJunction="J6" toJunction="J0" end="3600" vehsPerHour="54.96000000000001"/>
  <flow id="JF136" begin="0" fromJunction="J6" toJunction="J3" end="3600" vehsPerHour="54.96000000000001"/>
  <flow id="JF137" begin="0" fromJunction="J6" toJunction="J4" end="3600" vehsPerHour="54.96000000000001"/>
  <flow id="JF138" begin="0" fromJunction="J6" toJunction="J5" end="3600" vehsPerHour="54.96000000000001"/>
  <flow id="JF139" begin="0" fromJunction="J6" toJunction="J7" end="3600" vehsPerHour="54.96000000000001"/>
  <flow id="JF140" begin="0" fromJunction="J7" toJunction="J0" end="3600" vehsPerHour="54.96000000000001"/>
  <flow id="JF141" begin="0" fromJunction="J7" toJunction="J3" end="3600" vehsPerHour="54.96000000000001"/>
  <flow id="JF142" begin="0" fromJunction="J7" toJunction="J4" end="3600" vehsPerHour="54.96000000000001"/>
  <flow id="JF143" begin="0" fromJunction="J7" toJunction="J5" end="3600" vehsPerHour="54.96000000000001"/>
  <flow id="JF144" begin="0" fromJunction="J7" toJunction="J6" end="3600" vehsPerHour="54.96000000000001"/>
  <flow id="JF145" begin="0" fromJunction="J0" toJunction="J7" end="3600" vehsPerHour="1374.0"/>
  <flow id="JF146" begin="0" fromJunction="J0" toJunction="J6" end="3600" vehsPerHour="343.5"/>
  <flow id="JF147" begin="0" fromJunction="J0" toJunction="J5" end="3600" vehsPerHour="343.5"/>
  <flow id="JF148" begin="0" fromJunction="J0" toJunction="J4" end="3600" vehsPerHour="343.5"/>
  <flow id="JF149" begin="0" fromJunction="J0" toJunction="J3" end="3600" vehsPerHour="343.5"/>
</routes>