<?xml version="1.0" encoding="UTF-8"?>
<routes xmlns:xsi="http://www.w3.org/2001/XMLSchema-instance" xsi:noNamespaceSchemaLocation="http://sumo.dlr.de/xsd/routes_file.xsd">
  <flow id="JF0" begin="0" fromJunction="J3" toJunction="J0" end="5000" vehsPerHour="109.92000000000002"/>
  <flow id="JF1" begin="0" fromJunction="J3" toJunction="J4" end="5000" vehsPerHour="109.92000000000002"/>
  <flow id="JF2" begin="0" fromJunction="J3" toJunction="J5" end="5000" vehsPerHour="109.92000000000002"/>
  <flow id="JF3" begin="0" fromJunction="J3" toJunction="J6" end="5000" vehsPerHour="109.92000000000002"/>
  <flow id="JF4" begin="0" fromJunction="J3" toJunction="J7" end="5000" vehsPerHour="109.92000000000002"/>
  <flow id="JF5" begin="0" fromJunction="J4" toJunction="J0" end="5000" vehsPerHour="54.96000000000001"/>
  <flow id="JF6" begin="0" fromJunction="J4" toJunction="J3" end="5000" vehsPerHour="54.96000000000001"/>
  <flow id="JF7" begin="0" fromJunction="J4" toJunction="J5" end="5000" vehsPerHour="54.96000000000001"/>
  <flow id="JF8" begin="0" fromJunction="J4" toJunction="J6" end="5000" vehsPerHour="54.96000000000001"/>
  <flow id="JF9" begin="0" fromJunction="J4" toJunction="J7" end="5000" vehsPerHour="54.96000000000001"/>
  <flow id="JF10" begin="0" fromJunction="J5" toJunction="J0" end="5000" vehsPerHour="54.96000000000001"/>
  <flow id="JF11" begin="0" fromJunction="J5" toJunction="J3" end="5000" vehsPerHour="54.96000000000001"/>
  <flow id="JF12" begin="0" fromJunction="J5" toJunction="J4" end="5000" vehsPerHour="54.96000000000001"/>
  <flow id="JF13" begin="0" fromJunction="J5" toJunction="J6" end="5000" vehsPerHour="54.96000000000001"/>
  <flow id="JF14" begin="0" fromJunction="J5" toJunction="J7" end="5000" vehsPerHour="54.96000000000001"/>
  <flow id="JF15" begin="0" fromJunction="J6" toJunction="J0" end="5000" vehsPerHour="54.96000000000001"/>
  <flow id="JF16" begin="0" fromJunction="J6" toJunction="J3" end="5000" vehsPerHour="54.96000000000001"/>
  <flow id="JF17" begin="0" fromJunction="J6" toJunction="J4" end="5000" vehsPerHour="54.96000000000001"/>
  <flow id="JF18" begin="0" fromJunction="J6" toJunction="J5" end="5000" vehsPerHour="54.96000000000001"/>
  <flow id="JF19" begin="0" fromJunction="J6" toJunction="J7" end="5000" vehsPerHour="54.96000000000001"/>
  <flow id="JF20" begin="0" fromJunction="J7" toJunction="J0" end="5000" vehsPerHour="54.96000000000001"/>
  <flow id="JF21" begin="0" fromJunction="J7" toJunction="J3" end="5000" vehsPerHour="54.96000000000001"/>
  <flow id="JF22" begin="0" fromJunction="J7" toJunction="J4" end="5000" vehsPerHour="54.96000000000001"/>
  <flow id="JF23" begin="0" fromJunction="J7" toJunction="J5" end="5000" vehsPerHour="54.96000000000001"/>
  <flow id="JF24" begin="0" fromJunction="J7" toJunction="J6" end="5000" vehsPerHour="54.96000000000001"/>
  <flow id="JF25" begin="0" fromJunction="J0" toJunction="J3" end="5000" vehsPerHour="1374.0"/>
  <flow id="JF26" begin="0" fromJunction="J0" toJunction="J4" end="5000" vehsPerHour="343.5"/>
  <flow id="JF27" begin="0" fromJunction="J0" toJunction="J5" end="5000" vehsPerHour="343.5"/>
  <flow id="JF28" begin="0" fromJunction="J0" toJunction="J6" end="5000" vehsPerHour="343.5"/>
  <flow id="JF29" begin="0" fromJunction="J0" toJunction="J7" end="5000" vehsPerHour="343.5"/>
</routes>