<?xml version="1.0" encoding="UTF-8"?>
<routes xmlns:xsi="http://www.w3.org/2001/XMLSchema-instance" xsi:noNamespaceSchemaLocation="http://sumo.dlr.de/xsd/routes_file.xsd">
  <flow id="JF870" begin="0" fromJunction="J3" toJunction="J7" end="3600" vehsPerHour="109.92000000000002"/>
  <flow id="JF871" begin="0" fromJunction="J3" toJunction="J6" end="3600" vehsPerHour="109.92000000000002"/>
  <flow id="JF872" begin="0" fromJunction="J3" toJunction="J5" end="3600" vehsPerHour="109.92000000000002"/>
  <flow id="JF873" begin="0" fromJunction="J3" toJunction="J4" end="3600" vehsPerHour="109.92000000000002"/>
  <flow id="JF874" begin="0" fromJunction="J3" toJunction="J0" end="3600" vehsPerHour="109.92000000000002"/>
  <flow id="JF875" begin="0" fromJunction="J4" toJunction="J7" end="3600" vehsPerHour="54.96000000000001"/>
  <flow id="JF876" begin="0" fromJunction="J4" toJunction="J6" end="3600" vehsPerHour="54.96000000000001"/>
  <flow id="JF877" begin="0" fromJunction="J4" toJunction="J5" end="3600" vehsPerHour="54.96000000000001"/>
  <flow id="JF878" begin="0" fromJunction="J4" toJunction="J3" end="3600" vehsPerHour="54.96000000000001"/>
  <flow id="JF879" begin="0" fromJunction="J4" toJunction="J0" end="3600" vehsPerHour="54.96000000000001"/>
  <flow id="JF880" begin="0" fromJunction="J5" toJunction="J7" end="3600" vehsPerHour="54.96000000000001"/>
  <flow id="JF881" begin="0" fromJunction="J5" toJunction="J6" end="3600" vehsPerHour="54.96000000000001"/>
  <flow id="JF882" begin="0" fromJunction="J5" toJunction="J4" end="3600" vehsPerHour="54.96000000000001"/>
  <flow id="JF883" begin="0" fromJunction="J5" toJunction="J3" end="3600" vehsPerHour="54.96000000000001"/>
  <flow id="JF884" begin="0" fromJunction="J5" toJunction="J0" end="3600" vehsPerHour="54.96000000000001"/>
  <flow id="JF885" begin="0" fromJunction="J6" toJunction="J7" end="3600" vehsPerHour="54.96000000000001"/>
  <flow id="JF886" begin="0" fromJunction="J6" toJunction="J5" end="3600" vehsPerHour="54.96000000000001"/>
  <flow id="JF887" begin="0" fromJunction="J6" toJunction="J4" end="3600" vehsPerHour="54.96000000000001"/>
  <flow id="JF888" begin="0" fromJunction="J6" toJunction="J3" end="3600" vehsPerHour="54.96000000000001"/>
  <flow id="JF889" begin="0" fromJunction="J6" toJunction="J0" end="3600" vehsPerHour="54.96000000000001"/>
  <flow id="JF890" begin="0" fromJunction="J7" toJunction="J6" end="3600" vehsPerHour="687.0"/>
  <flow id="JF891" begin="0" fromJunction="J7" toJunction="J5" end="3600" vehsPerHour="171.75"/>
  <flow id="JF892" begin="0" fromJunction="J7" toJunction="J4" end="3600" vehsPerHour="171.75"/>
  <flow id="JF893" begin="0" fromJunction="J7" toJunction="J3" end="3600" vehsPerHour="171.75"/>
  <flow id="JF894" begin="0" fromJunction="J7" toJunction="J0" end="3600" vehsPerHour="171.75"/>
  <flow id="JF895" begin="0" fromJunction="J0" toJunction="J7" end="3600" vehsPerHour="109.92000000000002"/>
  <flow id="JF896" begin="0" fromJunction="J0" toJunction="J6" end="3600" vehsPerHour="109.92000000000002"/>
  <flow id="JF897" begin="0" fromJunction="J0" toJunction="J5" end="3600" vehsPerHour="109.92000000000002"/>
  <flow id="JF898" begin="0" fromJunction="J0" toJunction="J4" end="3600" vehsPerHour="109.92000000000002"/>
  <flow id="JF899" begin="0" fromJunction="J0" toJunction="J3" end="3600" vehsPerHour="109.92000000000002"/>
</routes>