<?xml version="1.0" encoding="UTF-8"?>
<routes xmlns:xsi="http://www.w3.org/2001/XMLSchema-instance" xsi:noNamespaceSchemaLocation="http://sumo.dlr.de/xsd/routes_file.xsd">
  <flow id="JF20863" begin="0" fromJunction="J0" toJunction="J3" end="60" vehsPerHour="126.07260840181272"/>
  <flow id="JF20864" begin="0" fromJunction="J0" toJunction="J5" end="60" vehsPerHour="91.20168275447449"/>
  <flow id="JF20865" begin="0" fromJunction="J3" toJunction="J4" end="60" vehsPerHour="72.36397312114153"/>
  <flow id="JF20866" begin="0" fromJunction="J3" toJunction="J5" end="60" vehsPerHour="81.48619163022852"/>
  <flow id="JF20867" begin="0" fromJunction="J3" toJunction="J6" end="60" vehsPerHour="19.760877576068754"/>
  <flow id="JF20868" begin="0" fromJunction="J3" toJunction="J7" end="60" vehsPerHour="71.5358733451068"/>
  <flow id="JF20869" begin="0" fromJunction="J4" toJunction="J3" end="60" vehsPerHour="50.707087147371524"/>
  <flow id="JF20870" begin="0" fromJunction="J4" toJunction="J6" end="60" vehsPerHour="62.29081954622861"/>
  <flow id="JF20871" begin="0" fromJunction="J5" toJunction="J3" end="60" vehsPerHour="35.645295264245036"/>
  <flow id="JF20872" begin="0" fromJunction="J5" toJunction="J4" end="60" vehsPerHour="25.694190126727985"/>
  <flow id="JF20873" begin="0" fromJunction="J5" toJunction="J7" end="60" vehsPerHour="9.710708466715582"/>
  <flow id="JF20874" begin="0" fromJunction="J6" toJunction="J0" end="60" vehsPerHour="57.164104007232964"/>
  <flow id="JF20875" begin="0" fromJunction="J6" toJunction="J3" end="60" vehsPerHour="46.19837814613465"/>
  <flow id="JF20876" begin="0" fromJunction="J6" toJunction="J4" end="60" vehsPerHour="60.09574412088285"/>
  <flow id="JF20877" begin="0" fromJunction="J6" toJunction="J7" end="60" vehsPerHour="44.423440964165586"/>
  <flow id="JF20878" begin="0" fromJunction="J7" toJunction="J0" end="60" vehsPerHour="49.75885571015762"/>
  <flow id="JF20879" begin="0" fromJunction="J7" toJunction="J3" end="60" vehsPerHour="17.30454671611895"/>
  <flow id="JF20880" begin="0" fromJunction="J7" toJunction="J5" end="60" vehsPerHour="32.21704448615455"/>
  <flow id="JF20881" begin="0" fromJunction="J7" toJunction="J6" end="60" vehsPerHour="44.289126266470795"/>
  <flow id="JF20882" begin="60" fromJunction="J0" toJunction="J4" end="120" vehsPerHour="24.015237442725248"/>
  <flow id="JF20883" begin="60" fromJunction="J0" toJunction="J5" end="120" vehsPerHour="22.35458974969497"/>
  <flow id="JF20884" begin="60" fromJunction="J0" toJunction="J6" end="120" vehsPerHour="42.3659343032803"/>
  <flow id="JF20885" begin="60" fromJunction="J0" toJunction="J7" end="120" vehsPerHour="39.90408694345068"/>
  <flow id="JF20886" begin="60" fromJunction="J3" toJunction="J5" end="120" vehsPerHour="108.16395720813779"/>
  <flow id="JF20887" begin="60" fromJunction="J4" toJunction="J0" end="120" vehsPerHour="66.32417925419499"/>
  <flow id="JF20888" begin="60" fromJunction="J4" toJunction="J3" end="120" vehsPerHour="21.621192789251282"/>
  <flow id="JF20889" begin="60" fromJunction="J4" toJunction="J5" end="120" vehsPerHour="19.086560177926618"/>
  <flow id="JF20890" begin="60" fromJunction="J4" toJunction="J7" end="120" vehsPerHour="48.01344322090678"/>
  <flow id="JF20891" begin="60" fromJunction="J5" toJunction="J0" end="120" vehsPerHour="39.67376708028024"/>
  <flow id="JF20892" begin="60" fromJunction="J5" toJunction="J7" end="120" vehsPerHour="28.536963934768508"/>
  <flow id="JF20893" begin="60" fromJunction="J6" toJunction="J3" end="120" vehsPerHour="13.939368158828268"/>
  <flow id="JF20894" begin="60" fromJunction="J6" toJunction="J4" end="120" vehsPerHour="29.587333690273503"/>
  <flow id="JF20895" begin="60" fromJunction="J6" toJunction="J5" end="120" vehsPerHour="35.17070622015676"/>
  <flow id="JF20896" begin="60" fromJunction="J6" toJunction="J7" end="120" vehsPerHour="63.25198898667162"/>
  <flow id="JF20897" begin="60" fromJunction="J7" toJunction="J0" end="120" vehsPerHour="13.747165430806175"/>
  <flow id="JF20898" begin="60" fromJunction="J7" toJunction="J5" end="120" vehsPerHour="38.08378375534155"/>
  <flow id="JF20899" begin="60" fromJunction="J7" toJunction="J6" end="120" vehsPerHour="28.68516185833299"/>
  <flow id="JF20900" begin="120" fromJunction="J0" toJunction="J4" end="180" vehsPerHour="70.17126138872298"/>
  <flow id="JF20901" begin="120" fromJunction="J0" toJunction="J7" end="180" vehsPerHour="44.20823861032573"/>
  <flow id="JF20902" begin="120" fromJunction="J3" toJunction="J5" end="180" vehsPerHour="94.87766883475548"/>
  <flow id="JF20903" begin="120" fromJunction="J3" toJunction="J6" end="180" vehsPerHour="125.90002737569054"/>
  <flow id="JF20904" begin="120" fromJunction="J3" toJunction="J7" end="180" vehsPerHour="11.775450256577821"/>
  <flow id="JF20905" begin="120" fromJunction="J4" toJunction="J0" end="180" vehsPerHour="63.11095356712835"/>
  <flow id="JF20906" begin="120" fromJunction="J5" toJunction="J0" end="180" vehsPerHour="47.5214839864713"/>
  <flow id="JF20907" begin="120" fromJunction="J5" toJunction="J4" end="180" vehsPerHour="42.45261223106795"/>
  <flow id="JF20908" begin="120" fromJunction="J5" toJunction="J7" end="180" vehsPerHour="3.6766498911552383"/>
  <flow id="JF20909" begin="120" fromJunction="J6" toJunction="J3" end="180" vehsPerHour="63.2115489229134"/>
  <flow id="JF20910" begin="120" fromJunction="J6" toJunction="J5" end="180" vehsPerHour="42.905813377902774"/>
  <flow id="JF20911" begin="120" fromJunction="J6" toJunction="J7" end="180" vehsPerHour="31.852368052915725"/>
  <flow id="JF20912" begin="120" fromJunction="J7" toJunction="J0" end="180" vehsPerHour="20.60927592733815"/>
  <flow id="JF20913" begin="120" fromJunction="J7" toJunction="J4" end="180" vehsPerHour="11.355002902364584"/>
  <flow id="JF20914" begin="120" fromJunction="J7" toJunction="J5" end="180" vehsPerHour="13.555545975447323"/>
  <flow id="JF20915" begin="120" fromJunction="J7" toJunction="J6" end="180" vehsPerHour="5.283285763519288"/>
  <flow id="JF20916" begin="180" fromJunction="J0" toJunction="J3" end="240" vehsPerHour="62.21822752034744"/>
  <flow id="JF20917" begin="180" fromJunction="J0" toJunction="J4" end="240" vehsPerHour="80.07562512876058"/>
  <flow id="JF20918" begin="180" fromJunction="J0" toJunction="J5" end="240" vehsPerHour="18.822260482309712"/>
  <flow id="JF20919" begin="180" fromJunction="J0" toJunction="J7" end="240" vehsPerHour="53.903941511676635"/>
  <flow id="JF20920" begin="180" fromJunction="J3" toJunction="J0" end="240" vehsPerHour="53.01614048284314"/>
  <flow id="JF20921" begin="180" fromJunction="J3" toJunction="J4" end="240" vehsPerHour="5.809509450739525"/>
  <flow id="JF20922" begin="180" fromJunction="J3" toJunction="J5" end="240" vehsPerHour="90.41197615626554"/>
  <flow id="JF20923" begin="180" fromJunction="J3" toJunction="J7" end="240" vehsPerHour="58.234758019708885"/>
  <flow id="JF20924" begin="180" fromJunction="J4" toJunction="J0" end="240" vehsPerHour="66.91495619537125"/>
  <flow id="JF20925" begin="180" fromJunction="J4" toJunction="J5" end="240" vehsPerHour="56.1968210790987"/>
  <flow id="JF20926" begin="180" fromJunction="J4" toJunction="J6" end="240" vehsPerHour="34.872356976275036"/>
  <flow id="JF20927" begin="180" fromJunction="J4" toJunction="J7" end="240" vehsPerHour="14.394940204595851"/>
  <flow id="JF20928" begin="180" fromJunction="J5" toJunction="J7" end="240" vehsPerHour="32.11258166904368"/>
  <flow id="JF20929" begin="180" fromJunction="J6" toJunction="J4" end="240" vehsPerHour="64.67642413668132"/>
  <flow id="JF20930" begin="180" fromJunction="J6" toJunction="J5" end="240" vehsPerHour="23.766631290599516"/>
  <flow id="JF20931" begin="180" fromJunction="J7" toJunction="J0" end="240" vehsPerHour="26.041428264076888"/>
  <flow id="JF20932" begin="180" fromJunction="J7" toJunction="J4" end="240" vehsPerHour="19.423811162838344"/>
  <flow id="JF20933" begin="180" fromJunction="J7" toJunction="J5" end="240" vehsPerHour="48.61833869510727"/>
  <flow id="JF20934" begin="240" fromJunction="J0" toJunction="J3" end="300" vehsPerHour="109.6179561165323"/>
  <flow id="JF20935" begin="240" fromJunction="J0" toJunction="J4" end="300" vehsPerHour="82.58431797078347"/>
  <flow id="JF20936" begin="240" fromJunction="J0" toJunction="J7" end="300" vehsPerHour="134.0229151262955"/>
  <flow id="JF20937" begin="240" fromJunction="J3" toJunction="J0" end="300" vehsPerHour="79.0874314723588"/>
  <flow id="JF20938" begin="240" fromJunction="J3" toJunction="J6" end="300" vehsPerHour="83.44268896349972"/>
  <flow id="JF20939" begin="240" fromJunction="J3" toJunction="J7" end="300" vehsPerHour="66.39729655052227"/>
  <flow id="JF20940" begin="240" fromJunction="J4" toJunction="J0" end="300" vehsPerHour="6.612046709384398"/>
  <flow id="JF20941" begin="240" fromJunction="J4" toJunction="J3" end="300" vehsPerHour="33.52846250927987"/>
  <flow id="JF20942" begin="240" fromJunction="J4" toJunction="J5" end="300" vehsPerHour="4.0767932857440465"/>
  <flow id="JF20943" begin="240" fromJunction="J4" toJunction="J7" end="300" vehsPerHour="50.472298587927895"/>
  <flow id="JF20944" begin="240" fromJunction="J5" toJunction="J3" end="300" vehsPerHour="11.990051422720901"/>
  <flow id="JF20945" begin="240" fromJunction="J5" toJunction="J6" end="300" vehsPerHour="48.50578797896875"/>
  <flow id="JF20946" begin="240" fromJunction="J5" toJunction="J7" end="300" vehsPerHour="36.3138126218045"/>
  <flow id="JF20947" begin="240" fromJunction="J6" toJunction="J0" end="300" vehsPerHour="0.16138145474477303"/>
  <flow id="JF20948" begin="240" fromJunction="J6" toJunction="J3" end="300" vehsPerHour="36.64965792648592"/>
  <flow id="JF20949" begin="240" fromJunction="J6" toJunction="J4" end="300" vehsPerHour="19.862898640581648"/>
  <flow id="JF20950" begin="240" fromJunction="J6" toJunction="J5" end="300" vehsPerHour="48.235023678151755"/>
  <flow id="JF20951" begin="240" fromJunction="J6" toJunction="J7" end="300" vehsPerHour="52.64892092284734"/>
  <flow id="JF20952" begin="240" fromJunction="J7" toJunction="J4" end="300" vehsPerHour="51.49532992530785"/>
  <flow id="JF20953" begin="300" fromJunction="J0" toJunction="J3" end="360" vehsPerHour="91.23542129477424"/>
  <flow id="JF20954" begin="300" fromJunction="J0" toJunction="J4" end="360" vehsPerHour="111.5125655909156"/>
  <flow id="JF20955" begin="300" fromJunction="J0" toJunction="J5" end="360" vehsPerHour="129.0480342551288"/>
  <flow id="JF20956" begin="300" fromJunction="J0" toJunction="J6" end="360" vehsPerHour="117.26316174736729"/>
  <flow id="JF20957" begin="300" fromJunction="J0" toJunction="J7" end="360" vehsPerHour="114.6183238168629"/>
  <flow id="JF20958" begin="300" fromJunction="J3" toJunction="J4" end="360" vehsPerHour="125.23554259933617"/>
  <flow id="JF20959" begin="300" fromJunction="J3" toJunction="J5" end="360" vehsPerHour="73.7492338918969"/>
  <flow id="JF20960" begin="300" fromJunction="J3" toJunction="J6" end="360" vehsPerHour="58.18728285319091"/>
  <flow id="JF20961" begin="300" fromJunction="J3" toJunction="J7" end="360" vehsPerHour="41.08891025734996"/>
  <flow id="JF20962" begin="300" fromJunction="J4" toJunction="J3" end="360" vehsPerHour="28.43099461540335"/>
  <flow id="JF20963" begin="300" fromJunction="J4" toJunction="J5" end="360" vehsPerHour="19.10870660486113"/>
  <flow id="JF20964" begin="300" fromJunction="J4" toJunction="J6" end="360" vehsPerHour="22.06059749783558"/>
  <flow id="JF20965" begin="300" fromJunction="J5" toJunction="J0" end="360" vehsPerHour="50.402169459249606"/>
  <flow id="JF20966" begin="300" fromJunction="J5" toJunction="J7" end="360" vehsPerHour="12.504701170528651"/>
  <flow id="JF20967" begin="300" fromJunction="J6" toJunction="J0" end="360" vehsPerHour="67.05250942230988"/>
  <flow id="JF20968" begin="300" fromJunction="J6" toJunction="J3" end="360" vehsPerHour="21.670623986856008"/>
  <flow id="JF20969" begin="300" fromJunction="J6" toJunction="J4" end="360" vehsPerHour="1.14248589986573"/>
  <flow id="JF20970" begin="300" fromJunction="J6" toJunction="J5" end="360" vehsPerHour="29.424485093868807"/>
  <flow id="JF20971" begin="300" fromJunction="J7" toJunction="J4" end="360" vehsPerHour="37.391381817101596"/>
  <flow id="JF20972" begin="300" fromJunction="J7" toJunction="J5" end="360" vehsPerHour="21.648753350780044"/>
  <flow id="JF20973" begin="300" fromJunction="J7" toJunction="J6" end="360" vehsPerHour="3.9342739511795473"/>
  <flow id="JF20974" begin="360" fromJunction="J0" toJunction="J3" end="420" vehsPerHour="44.92046227150928"/>
  <flow id="JF20975" begin="360" fromJunction="J0" toJunction="J4" end="420" vehsPerHour="68.59712648615547"/>
  <flow id="JF20976" begin="360" fromJunction="J0" toJunction="J5" end="420" vehsPerHour="45.847783658374546"/>
  <flow id="JF20977" begin="360" fromJunction="J0" toJunction="J6" end="420" vehsPerHour="8.801702246048082"/>
  <flow id="JF20978" begin="360" fromJunction="J3" toJunction="J0" end="420" vehsPerHour="15.926096823004475"/>
  <flow id="JF20979" begin="360" fromJunction="J3" toJunction="J4" end="420" vehsPerHour="100.13103550484867"/>
  <flow id="JF20980" begin="360" fromJunction="J3" toJunction="J5" end="420" vehsPerHour="76.25692848486365"/>
  <flow id="JF20981" begin="360" fromJunction="J3" toJunction="J6" end="420" vehsPerHour="74.7776751252912"/>
  <flow id="JF20982" begin="360" fromJunction="J3" toJunction="J7" end="420" vehsPerHour="103.5176118279288"/>
  <flow id="JF20983" begin="360" fromJunction="J4" toJunction="J3" end="420" vehsPerHour="54.8844978311396"/>
  <flow id="JF20984" begin="360" fromJunction="J4" toJunction="J6" end="420" vehsPerHour="0.46694857997591926"/>
  <flow id="JF20985" begin="360" fromJunction="J4" toJunction="J7" end="420" vehsPerHour="10.739356645514256"/>
  <flow id="JF20986" begin="360" fromJunction="J5" toJunction="J3" end="420" vehsPerHour="1.4358178774489112"/>
  <flow id="JF20987" begin="360" fromJunction="J5" toJunction="J4" end="420" vehsPerHour="26.30486675707105"/>
  <flow id="JF20988" begin="360" fromJunction="J5" toJunction="J6" end="420" vehsPerHour="10.018518447298197"/>
  <flow id="JF20989" begin="360" fromJunction="J5" toJunction="J7" end="420" vehsPerHour="22.435577734868435"/>
  <flow id="JF20990" begin="360" fromJunction="J6" toJunction="J0" end="420" vehsPerHour="6.175547634023329"/>
  <flow id="JF20991" begin="360" fromJunction="J6" toJunction="J5" end="420" vehsPerHour="3.8689182481322453"/>
  <flow id="JF20992" begin="360" fromJunction="J6" toJunction="J7" end="420" vehsPerHour="18.68876500714915"/>
  <flow id="JF20993" begin="360" fromJunction="J7" toJunction="J0" end="420" vehsPerHour="61.07547099452129"/>
  <flow id="JF20994" begin="360" fromJunction="J7" toJunction="J4" end="420" vehsPerHour="20.759552674684794"/>
  <flow id="JF20995" begin="360" fromJunction="J7" toJunction="J5" end="420" vehsPerHour="18.915133994794555"/>
  <flow id="JF20996" begin="360" fromJunction="J7" toJunction="J6" end="420" vehsPerHour="33.13506132079767"/>
  <flow id="JF20997" begin="420" fromJunction="J0" toJunction="J3" end="480" vehsPerHour="4.785643158732366"/>
  <flow id="JF20998" begin="420" fromJunction="J0" toJunction="J6" end="480" vehsPerHour="71.16182213561315"/>
  <flow id="JF20999" begin="420" fromJunction="J3" toJunction="J4" end="480" vehsPerHour="100.31647462950733"/>
  <flow id="JF21000" begin="420" fromJunction="J3" toJunction="J6" end="480" vehsPerHour="85.42959222509633"/>
  <flow id="JF21001" begin="420" fromJunction="J3" toJunction="J7" end="480" vehsPerHour="76.94726262668384"/>
  <flow id="JF21002" begin="420" fromJunction="J4" toJunction="J0" end="480" vehsPerHour="60.39836650771078"/>
  <flow id="JF21003" begin="420" fromJunction="J4" toJunction="J3" end="480" vehsPerHour="27.92372807253248"/>
  <flow id="JF21004" begin="420" fromJunction="J4" toJunction="J7" end="480" vehsPerHour="67.21851487970993"/>
  <flow id="JF21005" begin="420" fromJunction="J5" toJunction="J0" end="480" vehsPerHour="31.63738367317112"/>
  <flow id="JF21006" begin="420" fromJunction="J5" toJunction="J3" end="480" vehsPerHour="46.7762790462992"/>
  <flow id="JF21007" begin="420" fromJunction="J5" toJunction="J4" end="480" vehsPerHour="58.44928007304713"/>
  <flow id="JF21008" begin="420" fromJunction="J5" toJunction="J6" end="480" vehsPerHour="52.03782971388787"/>
  <flow id="JF21009" begin="420" fromJunction="J6" toJunction="J0" end="480" vehsPerHour="60.38530264706708"/>
  <flow id="JF21010" begin="420" fromJunction="J6" toJunction="J4" end="480" vehsPerHour="0.8546827822514824"/>
  <flow id="JF21011" begin="420" fromJunction="J6" toJunction="J5" end="480" vehsPerHour="27.8182884012514"/>
  <flow id="JF21012" begin="420" fromJunction="J7" toJunction="J0" end="480" vehsPerHour="23.816371050253768"/>
  <flow id="JF21013" begin="420" fromJunction="J7" toJunction="J3" end="480" vehsPerHour="4.8696354032262565"/>
  <flow id="JF21014" begin="420" fromJunction="J7" toJunction="J4" end="480" vehsPerHour="24.731295645190468"/>
  <flow id="JF21015" begin="420" fromJunction="J7" toJunction="J5" end="480" vehsPerHour="19.550579556746793"/>
  <flow id="JF21016" begin="420" fromJunction="J7" toJunction="J6" end="480" vehsPerHour="6.87532453034285"/>
  <flow id="JF21017" begin="480" fromJunction="J0" toJunction="J3" end="540" vehsPerHour="125.35479119070777"/>
  <flow id="JF21018" begin="480" fromJunction="J0" toJunction="J4" end="540" vehsPerHour="96.0708088320118"/>
  <flow id="JF21019" begin="480" fromJunction="J0" toJunction="J5" end="540" vehsPerHour="112.62745297822204"/>
  <flow id="JF21020" begin="480" fromJunction="J0" toJunction="J7" end="540" vehsPerHour="125.91867485744835"/>
  <flow id="JF21021" begin="480" fromJunction="J3" toJunction="J5" end="540" vehsPerHour="122.1891120853089"/>
  <flow id="JF21022" begin="480" fromJunction="J3" toJunction="J6" end="540" vehsPerHour="66.64821723288978"/>
  <flow id="JF21023" begin="480" fromJunction="J4" toJunction="J0" end="540" vehsPerHour="38.82616142012034"/>
  <flow id="JF21024" begin="480" fromJunction="J4" toJunction="J3" end="540" vehsPerHour="28.089504292057253"/>
  <flow id="JF21025" begin="480" fromJunction="J4" toJunction="J5" end="540" vehsPerHour="57.74819794920785"/>
  <flow id="JF21026" begin="480" fromJunction="J4" toJunction="J7" end="540" vehsPerHour="26.832998960972898"/>
  <flow id="JF21027" begin="480" fromJunction="J5" toJunction="J0" end="540" vehsPerHour="27.267540408697112"/>
  <flow id="JF21028" begin="480" fromJunction="J5" toJunction="J4" end="540" vehsPerHour="34.72717283262505"/>
  <flow id="JF21029" begin="480" fromJunction="J5" toJunction="J6" end="540" vehsPerHour="59.11318478472928"/>
  <flow id="JF21030" begin="480" fromJunction="J6" toJunction="J0" end="540" vehsPerHour="30.583110336685916"/>
  <flow id="JF21031" begin="480" fromJunction="J6" toJunction="J3" end="540" vehsPerHour="47.89059861363336"/>
  <flow id="JF21032" begin="480" fromJunction="J6" toJunction="J4" end="540" vehsPerHour="49.677279373456585"/>
  <flow id="JF21033" begin="480" fromJunction="J7" toJunction="J0" end="540" vehsPerHour="37.399976604617514"/>
  <flow id="JF21034" begin="480" fromJunction="J7" toJunction="J3" end="540" vehsPerHour="66.98149257050613"/>
  <flow id="JF21035" begin="480" fromJunction="J7" toJunction="J4" end="540" vehsPerHour="4.730373154039892"/>
  <flow id="JF21036" begin="480" fromJunction="J7" toJunction="J5" end="540" vehsPerHour="9.726773026474943"/>
  <flow id="JF21037" begin="480" fromJunction="J7" toJunction="J6" end="540" vehsPerHour="18.553964590326768"/>
  <flow id="JF21038" begin="540" fromJunction="J0" toJunction="J3" end="600" vehsPerHour="32.66434578653207"/>
  <flow id="JF21039" begin="540" fromJunction="J0" toJunction="J4" end="600" vehsPerHour="7.49846062945523"/>
  <flow id="JF21040" begin="540" fromJunction="J0" toJunction="J5" end="600" vehsPerHour="37.196980666230566"/>
  <flow id="JF21041" begin="540" fromJunction="J0" toJunction="J7" end="600" vehsPerHour="130.491709952165"/>
  <flow id="JF21042" begin="540" fromJunction="J3" toJunction="J0" end="600" vehsPerHour="2.5715954455318943"/>
  <flow id="JF21043" begin="540" fromJunction="J3" toJunction="J4" end="600" vehsPerHour="17.95095675147173"/>
  <flow id="JF21044" begin="540" fromJunction="J3" toJunction="J5" end="600" vehsPerHour="70.09903817927497"/>
  <flow id="JF21045" begin="540" fromJunction="J3" toJunction="J6" end="600" vehsPerHour="13.097367687254973"/>
  <flow id="JF21046" begin="540" fromJunction="J4" toJunction="J5" end="600" vehsPerHour="44.323925718012426"/>
  <flow id="JF21047" begin="540" fromJunction="J4" toJunction="J6" end="600" vehsPerHour="50.88495507821287"/>
  <flow id="JF21048" begin="540" fromJunction="J5" toJunction="J3" end="600" vehsPerHour="21.21319221011352"/>
  <flow id="JF21049" begin="540" fromJunction="J5" toJunction="J4" end="600" vehsPerHour="52.411497714648995"/>
  <flow id="JF21050" begin="540" fromJunction="J6" toJunction="J4" end="600" vehsPerHour="52.488569259282606"/>
  <flow id="JF21051" begin="540" fromJunction="J6" toJunction="J5" end="600" vehsPerHour="53.98382033214983"/>
  <flow id="JF21052" begin="540" fromJunction="J6" toJunction="J7" end="600" vehsPerHour="20.23255510691123"/>
  <flow id="JF21053" begin="540" fromJunction="J7" toJunction="J0" end="600" vehsPerHour="7.745609065875991"/>
  <flow id="JF21054" begin="540" fromJunction="J7" toJunction="J3" end="600" vehsPerHour="56.1740681722765"/>
  <flow id="JF21055" begin="540" fromJunction="J7" toJunction="J6" end="600" vehsPerHour="27.377247282694718"/>
  <flow id="JF21056" begin="600" fromJunction="J0" toJunction="J5" end="660" vehsPerHour="111.42822597041345"/>
  <flow id="JF21057" begin="600" fromJunction="J0" toJunction="J6" end="660" vehsPerHour="122.41844111389818"/>
  <flow id="JF21058" begin="600" fromJunction="J0" toJunction="J7" end="660" vehsPerHour="75.7833962008081"/>
  <flow id="JF21059" begin="600" fromJunction="J3" toJunction="J0" end="660" vehsPerHour="110.1382235001857"/>
  <flow id="JF21060" begin="600" fromJunction="J3" toJunction="J4" end="660" vehsPerHour="4.6058474710818995"/>
  <flow id="JF21061" begin="600" fromJunction="J3" toJunction="J6" end="660" vehsPerHour="55.455873856653405"/>
  <flow id="JF21062" begin="600" fromJunction="J3" toJunction="J7" end="660" vehsPerHour="120.26142571466085"/>
  <flow id="JF21063" begin="600" fromJunction="J4" toJunction="J0" end="660" vehsPerHour="66.66205110463721"/>
  <flow id="JF21064" begin="600" fromJunction="J4" toJunction="J3" end="660" vehsPerHour="50.964183482602124"/>
  <flow id="JF21065" begin="600" fromJunction="J4" toJunction="J5" end="660" vehsPerHour="46.827179884260914"/>
  <flow id="JF21066" begin="600" fromJunction="J4" toJunction="J7" end="660" vehsPerHour="29.148391869476647"/>
  <flow id="JF21067" begin="600" fromJunction="J5" toJunction="J0" end="660" vehsPerHour="41.31754473795083"/>
  <flow id="JF21068" begin="600" fromJunction="J5" toJunction="J6" end="660" vehsPerHour="1.8240065715967548"/>
  <flow id="JF21069" begin="600" fromJunction="J6" toJunction="J0" end="660" vehsPerHour="35.080572002748895"/>
  <flow id="JF21070" begin="600" fromJunction="J6" toJunction="J3" end="660" vehsPerHour="27.51514667920429"/>
  <flow id="JF21071" begin="600" fromJunction="J7" toJunction="J0" end="660" vehsPerHour="44.118521576267035"/>
  <flow id="JF21072" begin="600" fromJunction="J7" toJunction="J3" end="660" vehsPerHour="43.82994240434647"/>
  <flow id="JF21073" begin="600" fromJunction="J7" toJunction="J4" end="660" vehsPerHour="25.198428754005956"/>
  <flow id="JF21074" begin="600" fromJunction="J7" toJunction="J5" end="660" vehsPerHour="48.545847651036205"/>
  <flow id="JF21075" begin="600" fromJunction="J7" toJunction="J6" end="660" vehsPerHour="63.860189840668355"/>
  <flow id="JF21076" begin="660" fromJunction="J0" toJunction="J3" end="720" vehsPerHour="131.62387862463797"/>
  <flow id="JF21077" begin="660" fromJunction="J3" toJunction="J0" end="720" vehsPerHour="116.32272490277853"/>
  <flow id="JF21078" begin="660" fromJunction="J3" toJunction="J4" end="720" vehsPerHour="65.51746740446558"/>
  <flow id="JF21079" begin="660" fromJunction="J3" toJunction="J5" end="720" vehsPerHour="92.464520671998"/>
  <flow id="JF21080" begin="660" fromJunction="J3" toJunction="J6" end="720" vehsPerHour="24.03768811742677"/>
  <flow id="JF21081" begin="660" fromJunction="J4" toJunction="J5" end="720" vehsPerHour="25.122538221883353"/>
  <flow id="JF21082" begin="660" fromJunction="J4" toJunction="J6" end="720" vehsPerHour="56.11959782734607"/>
  <flow id="JF21083" begin="660" fromJunction="J4" toJunction="J7" end="720" vehsPerHour="42.18014322737175"/>
  <flow id="JF21084" begin="660" fromJunction="J5" toJunction="J0" end="720" vehsPerHour="43.39702696825428"/>
  <flow id="JF21085" begin="660" fromJunction="J5" toJunction="J3" end="720" vehsPerHour="64.45319141255735"/>
  <flow id="JF21086" begin="660" fromJunction="J5" toJunction="J4" end="720" vehsPerHour="2.9722835577730273"/>
  <flow id="JF21087" begin="660" fromJunction="J5" toJunction="J7" end="720" vehsPerHour="65.2072241708936"/>
  <flow id="JF21088" begin="660" fromJunction="J6" toJunction="J0" end="720" vehsPerHour="62.604476057488064"/>
  <flow id="JF21089" begin="660" fromJunction="J6" toJunction="J3" end="720" vehsPerHour="19.49136866041634"/>
  <flow id="JF21090" begin="660" fromJunction="J6" toJunction="J4" end="720" vehsPerHour="38.65477421597539"/>
  <flow id="JF21091" begin="660" fromJunction="J6" toJunction="J7" end="720" vehsPerHour="30.683395841643808"/>
  <flow id="JF21092" begin="660" fromJunction="J7" toJunction="J3" end="720" vehsPerHour="65.85984239512078"/>
  <flow id="JF21093" begin="660" fromJunction="J7" toJunction="J4" end="720" vehsPerHour="26.376254953100737"/>
  <flow id="JF21094" begin="660" fromJunction="J7" toJunction="J6" end="720" vehsPerHour="17.492814694007198"/>
  <flow id="JF21095" begin="720" fromJunction="J0" toJunction="J3" end="780" vehsPerHour="3.869694314090443"/>
  <flow id="JF21096" begin="720" fromJunction="J0" toJunction="J5" end="780" vehsPerHour="101.39202467320776"/>
  <flow id="JF21097" begin="720" fromJunction="J0" toJunction="J6" end="780" vehsPerHour="76.73369260767635"/>
  <flow id="JF21098" begin="720" fromJunction="J0" toJunction="J7" end="780" vehsPerHour="132.0351375706343"/>
  <flow id="JF21099" begin="720" fromJunction="J3" toJunction="J0" end="780" vehsPerHour="26.480100406808862"/>
  <flow id="JF21100" begin="720" fromJunction="J3" toJunction="J5" end="780" vehsPerHour="71.33405411191796"/>
  <flow id="JF21101" begin="720" fromJunction="J3" toJunction="J6" end="780" vehsPerHour="60.625798631959526"/>
  <flow id="JF21102" begin="720" fromJunction="J3" toJunction="J7" end="780" vehsPerHour="101.2557111429653"/>
  <flow id="JF21103" begin="720" fromJunction="J4" toJunction="J0" end="780" vehsPerHour="33.693350647718944"/>
  <flow id="JF21104" begin="720" fromJunction="J4" toJunction="J3" end="780" vehsPerHour="59.139543050402494"/>
  <flow id="JF21105" begin="720" fromJunction="J4" toJunction="J5" end="780" vehsPerHour="51.8063188962968"/>
  <flow id="JF21106" begin="720" fromJunction="J4" toJunction="J6" end="780" vehsPerHour="1.1833846982430225"/>
  <flow id="JF21107" begin="720" fromJunction="J4" toJunction="J7" end="780" vehsPerHour="48.40504234197048"/>
  <flow id="JF21108" begin="720" fromJunction="J5" toJunction="J3" end="780" vehsPerHour="66.46442108157508"/>
  <flow id="JF21109" begin="720" fromJunction="J5" toJunction="J4" end="780" vehsPerHour="34.55344852264011"/>
  <flow id="JF21110" begin="720" fromJunction="J5" toJunction="J6" end="780" vehsPerHour="57.80951590093185"/>
  <flow id="JF21111" begin="720" fromJunction="J5" toJunction="J7" end="780" vehsPerHour="37.82366072020208"/>
  <flow id="JF21112" begin="720" fromJunction="J6" toJunction="J0" end="780" vehsPerHour="3.5555161341608974"/>
  <flow id="JF21113" begin="720" fromJunction="J6" toJunction="J3" end="780" vehsPerHour="7.607455899533674"/>
  <flow id="JF21114" begin="720" fromJunction="J6" toJunction="J4" end="780" vehsPerHour="40.68180188366207"/>
  <flow id="JF21115" begin="720" fromJunction="J6" toJunction="J7" end="780" vehsPerHour="7.217861688700259"/>
  <flow id="JF21116" begin="720" fromJunction="J7" toJunction="J5" end="780" vehsPerHour="54.88653459413308"/>
  <flow id="JF21117" begin="720" fromJunction="J7" toJunction="J6" end="780" vehsPerHour="19.457158795836428"/>
  <flow id="JF21118" begin="780" fromJunction="J0" toJunction="J3" end="840" vehsPerHour="3.9334275876471136"/>
  <flow id="JF21119" begin="780" fromJunction="J0" toJunction="J4" end="840" vehsPerHour="89.9521851131761"/>
  <flow id="JF21120" begin="780" fromJunction="J0" toJunction="J6" end="840" vehsPerHour="37.09950024891539"/>
  <flow id="JF21121" begin="780" fromJunction="J0" toJunction="J7" end="840" vehsPerHour="132.65309472846053"/>
  <flow id="JF21122" begin="780" fromJunction="J3" toJunction="J0" end="840" vehsPerHour="32.952349952141574"/>
  <flow id="JF21123" begin="780" fromJunction="J3" toJunction="J6" end="840" vehsPerHour="110.2923888386856"/>
  <flow id="JF21124" begin="780" fromJunction="J3" toJunction="J7" end="840" vehsPerHour="82.05324069072188"/>
  <flow id="JF21125" begin="780" fromJunction="J4" toJunction="J0" end="840" vehsPerHour="3.1400634199087953"/>
  <flow id="JF21126" begin="780" fromJunction="J4" toJunction="J3" end="840" vehsPerHour="35.07722377016662"/>
  <flow id="JF21127" begin="780" fromJunction="J4" toJunction="J5" end="840" vehsPerHour="58.430071832147014"/>
  <flow id="JF21128" begin="780" fromJunction="J4" toJunction="J7" end="840" vehsPerHour="57.456522533998985"/>
  <flow id="JF21129" begin="780" fromJunction="J5" toJunction="J0" end="840" vehsPerHour="34.68238038858239"/>
  <flow id="JF21130" begin="780" fromJunction="J5" toJunction="J3" end="840" vehsPerHour="45.012898775539355"/>