<?xml version="1.0" encoding="UTF-8"?>
<routes xmlns:xsi="http://www.w3.org/2001/XMLSchema-instance" xsi:noNamespaceSchemaLocation="http://sumo.dlr.de/xsd/routes_file.xsd">
  <flow id="JF24300" begin="0" fromJunction="J0" toJunction="J5" end="60" vehsPerHour="48.36707142589271"/>
  <flow id="JF24301" begin="0" fromJunction="J0" toJunction="J6" end="60" vehsPerHour="24.903466086870914"/>
  <flow id="JF24302" begin="0" fromJunction="J3" toJunction="J4" end="60" vehsPerHour="80.23014409203087"/>
  <flow id="JF24303" begin="0" fromJunction="J3" toJunction="J5" end="60" vehsPerHour="1.1317772250183755"/>
  <flow id="JF24304" begin="0" fromJunction="J4" toJunction="J0" end="60" vehsPerHour="36.81344983802052"/>
  <flow id="JF24305" begin="0" fromJunction="J4" toJunction="J5" end="60" vehsPerHour="46.463385570857604"/>
  <flow id="JF24306" begin="0" fromJunction="J4" toJunction="J6" end="60" vehsPerHour="36.73455303912197"/>
  <flow id="JF24307" begin="0" fromJunction="J5" toJunction="J4" end="60" vehsPerHour="16.04490447213627"/>
  <flow id="JF24308" begin="0" fromJunction="J5" toJunction="J6" end="60" vehsPerHour="14.11213558167129"/>
  <flow id="JF24309" begin="0" fromJunction="J6" toJunction="J0" end="60" vehsPerHour="12.446863704242812"/>
  <flow id="JF24310" begin="0" fromJunction="J6" toJunction="J3" end="60" vehsPerHour="12.927699724045587"/>
  <flow id="JF24311" begin="0" fromJunction="J6" toJunction="J5" end="60" vehsPerHour="49.29855768824424"/>
  <flow id="JF24312" begin="0" fromJunction="J7" toJunction="J0" end="60" vehsPerHour="15.745675949790169"/>
  <flow id="JF24313" begin="0" fromJunction="J7" toJunction="J3" end="60" vehsPerHour="26.225248201592237"/>
  <flow id="JF24314" begin="0" fromJunction="J7" toJunction="J4" end="60" vehsPerHour="38.18708431753335"/>
  <flow id="JF24315" begin="0" fromJunction="J7" toJunction="J5" end="60" vehsPerHour="18.754044415042618"/>
  <flow id="JF24316" begin="0" fromJunction="J7" toJunction="J6" end="60" vehsPerHour="41.604242338514055"/>
  <flow id="JF24317" begin="60" fromJunction="J0" toJunction="J4" end="120" vehsPerHour="33.03947493350508"/>
  <flow id="JF24318" begin="60" fromJunction="J0" toJunction="J5" end="120" vehsPerHour="95.80390518564367"/>
  <flow id="JF24319" begin="60" fromJunction="J0" toJunction="J6" end="120" vehsPerHour="41.721570176157414"/>
  <flow id="JF24320" begin="60" fromJunction="J3" toJunction="J0" end="120" vehsPerHour="134.82492869471596"/>
  <flow id="JF24321" begin="60" fromJunction="J3" toJunction="J4" end="120" vehsPerHour="133.1799333265646"/>
  <flow id="JF24322" begin="60" fromJunction="J4" toJunction="J0" end="120" vehsPerHour="11.5970650211995"/>
  <flow id="JF24323" begin="60" fromJunction="J5" toJunction="J3" end="120" vehsPerHour="52.09951189469764"/>
  <flow id="JF24324" begin="60" fromJunction="J5" toJunction="J6" end="120" vehsPerHour="38.21572809262993"/>
  <flow id="JF24325" begin="60" fromJunction="J5" toJunction="J7" end="120" vehsPerHour="24.982980949890344"/>
  <flow id="JF24326" begin="60" fromJunction="J6" toJunction="J0" end="120" vehsPerHour="32.062828706657534"/>
  <flow id="JF24327" begin="60" fromJunction="J6" toJunction="J3" end="120" vehsPerHour="61.087678658381066"/>
  <flow id="JF24328" begin="60" fromJunction="J6" toJunction="J5" end="120" vehsPerHour="63.534133717944265"/>
  <flow id="JF24329" begin="60" fromJunction="J7" toJunction="J0" end="120" vehsPerHour="27.580589770556095"/>
  <flow id="JF24330" begin="60" fromJunction="J7" toJunction="J3" end="120" vehsPerHour="0.9580403704714537"/>
  <flow id="JF24331" begin="60" fromJunction="J7" toJunction="J4" end="120" vehsPerHour="13.398650419055876"/>
  <flow id="JF24332" begin="60" fromJunction="J7" toJunction="J5" end="120" vehsPerHour="20.37735321271834"/>
  <flow id="JF24333" begin="60" fromJunction="J7" toJunction="J6" end="120" vehsPerHour="50.081418390623135"/>
  <flow id="JF24334" begin="120" fromJunction="J0" toJunction="J3" end="180" vehsPerHour="34.01038082175584"/>
  <flow id="JF24335" begin="120" fromJunction="J0" toJunction="J4" end="180" vehsPerHour="107.32874286807048"/>
  <flow id="JF24336" begin="120" fromJunction="J0" toJunction="J5" end="180" vehsPerHour="67.60250933831263"/>
  <flow id="JF24337" begin="120" fromJunction="J0" toJunction="J6" end="180" vehsPerHour="45.558937608218955"/>
  <flow id="JF24338" begin="120" fromJunction="J0" toJunction="J7" end="180" vehsPerHour="76.7425910987559"/>
  <flow id="JF24339" begin="120" fromJunction="J3" toJunction="J0" end="180" vehsPerHour="13.782532998578873"/>
  <flow id="JF24340" begin="120" fromJunction="J3" toJunction="J5" end="180" vehsPerHour="47.926956356689544"/>
  <flow id="JF24341" begin="120" fromJunction="J3" toJunction="J6" end="180" vehsPerHour="97.6352108418302"/>
  <flow id="JF24342" begin="120" fromJunction="J3" toJunction="J7" end="180" vehsPerHour="58.61013805880501"/>
  <flow id="JF24343" begin="120" fromJunction="J4" toJunction="J5" end="180" vehsPerHour="8.216074602765312"/>
  <flow id="JF24344" begin="120" fromJunction="J4" toJunction="J6" end="180" vehsPerHour="32.78575979455046"/>
  <flow id="JF24345" begin="120" fromJunction="J4" toJunction="J7" end="180" vehsPerHour="19.7834643415273"/>
  <flow id="JF24346" begin="120" fromJunction="J5" toJunction="J4" end="180" vehsPerHour="55.73205601255717"/>
  <flow id="JF24347" begin="120" fromJunction="J5" toJunction="J6" end="180" vehsPerHour="8.037653849670903"/>
  <flow id="JF24348" begin="120" fromJunction="J5" toJunction="J7" end="180" vehsPerHour="61.30202421206467"/>
  <flow id="JF24349" begin="120" fromJunction="J6" toJunction="J0" end="180" vehsPerHour="67.41718215356029"/>
  <flow id="JF24350" begin="120" fromJunction="J6" toJunction="J3" end="180" vehsPerHour="59.42184110251022"/>
  <flow id="JF24351" begin="120" fromJunction="J6" toJunction="J5" end="180" vehsPerHour="57.19805189606158"/>
  <flow id="JF24352" begin="120" fromJunction="J6" toJunction="J7" end="180" vehsPerHour="31.267957449806268"/>
  <flow id="JF24353" begin="120" fromJunction="J7" toJunction="J0" end="180" vehsPerHour="1.8692712345179572"/>
  <flow id="JF24354" begin="120" fromJunction="J7" toJunction="J3" end="180" vehsPerHour="43.7801812543952"/>
  <flow id="JF24355" begin="120" fromJunction="J7" toJunction="J5" end="180" vehsPerHour="11.853616464551505"/>
  <flow id="JF24356" begin="120" fromJunction="J7" toJunction="J6" end="180" vehsPerHour="11.835532576303851"/>
  <flow id="JF24357" begin="180" fromJunction="J0" toJunction="J3" end="240" vehsPerHour="70.0315670452938"/>
  <flow id="JF24358" begin="180" fromJunction="J0" toJunction="J6" end="240" vehsPerHour="18.66023831872142"/>
  <flow id="JF24359" begin="180" fromJunction="J0" toJunction="J7" end="240" vehsPerHour="2.2689113702749806"/>
  <flow id="JF24360" begin="180" fromJunction="J3" toJunction="J0" end="240" vehsPerHour="81.77933788631849"/>
  <flow id="JF24361" begin="180" fromJunction="J3" toJunction="J4" end="240" vehsPerHour="121.15553365078989"/>
  <flow id="JF24362" begin="180" fromJunction="J3" toJunction="J7" end="240" vehsPerHour="77.28111378363573"/>
  <flow id="JF24363" begin="180" fromJunction="J4" toJunction="J0" end="240" vehsPerHour="14.881470770795215"/>
  <flow id="JF24364" begin="180" fromJunction="J4" toJunction="J3" end="240" vehsPerHour="41.703620882616896"/>
  <flow id="JF24365" begin="180" fromJunction="J4" toJunction="J5" end="240" vehsPerHour="3.9674775945779093"/>
  <flow id="JF24366" begin="180" fromJunction="J4" toJunction="J6" end="240" vehsPerHour="46.70314496368933"/>
  <flow id="JF24367" begin="180" fromJunction="J4" toJunction="J7" end="240" vehsPerHour="66.91728364130124"/>
  <flow id="JF24368" begin="180" fromJunction="J5" toJunction="J0" end="240" vehsPerHour="46.179905523006965"/>
  <flow id="JF24369" begin="180" fromJunction="J5" toJunction="J3" end="240" vehsPerHour="38.66858601701198"/>
  <flow id="JF24370" begin="180" fromJunction="J5" toJunction="J4" end="240" vehsPerHour="41.59393667527043"/>
  <flow id="JF24371" begin="180" fromJunction="J5" toJunction="J6" end="240" vehsPerHour="44.80678025805917"/>
  <flow id="JF24372" begin="180" fromJunction="J5" toJunction="J7" end="240" vehsPerHour="5.590395456358133"/>
  <flow id="JF24373" begin="180" fromJunction="J6" toJunction="J0" end="240" vehsPerHour="48.56821512768997"/>
  <flow id="JF24374" begin="180" fromJunction="J6" toJunction="J3" end="240" vehsPerHour="23.65326379912168"/>
  <flow id="JF24375" begin="180" fromJunction="J6" toJunction="J4" end="240" vehsPerHour="26.110884426212603"/>
  <flow id="JF24376" begin="180" fromJunction="J6" toJunction="J7" end="240" vehsPerHour="58.153476943205604"/>
  <flow id="JF24377" begin="180" fromJunction="J7" toJunction="J5" end="240" vehsPerHour="40.369310694632055"/>
  <flow id="JF24378" begin="180" fromJunction="J7" toJunction="J6" end="240" vehsPerHour="26.05525049018142"/>
  <flow id="JF24379" begin="240" fromJunction="J0" toJunction="J4" end="300" vehsPerHour="9.925847885582446"/>
  <flow id="JF24380" begin="240" fromJunction="J0" toJunction="J5" end="300" vehsPerHour="61.34847346827025"/>
  <flow id="JF24381" begin="240" fromJunction="J0" toJunction="J6" end="300" vehsPerHour="135.63315750212558"/>
  <flow id="JF24382" begin="240" fromJunction="J0" toJunction="J7" end="300" vehsPerHour="96.85183898055595"/>
  <flow id="JF24383" begin="240" fromJunction="J3" toJunction="J0" end="300" vehsPerHour="108.40849248750546"/>
  <flow id="JF24384" begin="240" fromJunction="J3" toJunction="J5" end="300" vehsPerHour="70.76905118776213"/>
  <flow id="JF24385" begin="240" fromJunction="J3" toJunction="J6" end="300" vehsPerHour="25.09477218524747"/>
  <flow id="JF24386" begin="240" fromJunction="J3" toJunction="J7" end="300" vehsPerHour="58.75285150503882"/>
  <flow id="JF24387" begin="240" fromJunction="J4" toJunction="J0" end="300" vehsPerHour="47.701010522526516"/>
  <flow id="JF24388" begin="240" fromJunction="J4" toJunction="J5" end="300" vehsPerHour="40.61702668238875"/>
  <flow id="JF24389" begin="240" fromJunction="J4" toJunction="J6" end="300" vehsPerHour="53.96186409218475"/>
  <flow id="JF24390" begin="240" fromJunction="J4" toJunction="J7" end="300" vehsPerHour="63.25164735472369"/>
  <flow id="JF24391" begin="240" fromJunction="J5" toJunction="J0" end="300" vehsPerHour="38.705011594865894"/>
  <flow id="JF24392" begin="240" fromJunction="J5" toJunction="J3" end="300" vehsPerHour="56.193144501393846"/>
  <flow id="JF24393" begin="240" fromJunction="J5" toJunction="J4" end="300" vehsPerHour="26.983137313727667"/>
  <flow id="JF24394" begin="240" fromJunction="J5" toJunction="J6" end="300" vehsPerHour="40.22230426813593"/>
  <flow id="JF24395" begin="240" fromJunction="J5" toJunction="J7" end="300" vehsPerHour="33.25552190541814"/>
  <flow id="JF24396" begin="240" fromJunction="J6" toJunction="J0" end="300" vehsPerHour="7.927987189646219"/>
  <flow id="JF24397" begin="240" fromJunction="J6" toJunction="J3" end="300" vehsPerHour="39.197645272171"/>
  <flow id="JF24398" begin="240" fromJunction="J6" toJunction="J5" end="300" vehsPerHour="17.639708476636407"/>
  <flow id="JF24399" begin="240" fromJunction="J6" toJunction="J7" end="300" vehsPerHour="14.213069082802077"/>
  <flow id="JF24400" begin="240" fromJunction="J7" toJunction="J0" end="300" vehsPerHour="55.238333881139184"/>
  <flow id="JF24401" begin="240" fromJunction="J7" toJunction="J5" end="300" vehsPerHour="13.281418636109398"/>
  <flow id="JF24402" begin="240" fromJunction="J7" toJunction="J6" end="300" vehsPerHour="54.45331531026902"/>
  <flow id="JF24403" begin="300" fromJunction="J0" toJunction="J6" end="360" vehsPerHour="97.50126823623613"/>
  <flow id="JF24404" begin="300" fromJunction="J0" toJunction="J7" end="360" vehsPerHour="44.31454438332683"/>
  <flow id="JF24405" begin="300" fromJunction="J3" toJunction="J4" end="360" vehsPerHour="67.7165892061856"/>
  <flow id="JF24406" begin="300" fromJunction="J3" toJunction="J5" end="360" vehsPerHour="59.98837504411457"/>
  <flow id="JF24407" begin="300" fromJunction="J3" toJunction="J6" end="360" vehsPerHour="48.67431265099224"/>
  <flow id="JF24408" begin="300" fromJunction="J3" toJunction="J7" end="360" vehsPerHour="34.03682529248801"/>
  <flow id="JF24409" begin="300" fromJunction="J4" toJunction="J0" end="360" vehsPerHour="35.450677664412574"/>
  <flow id="JF24410" begin="300" fromJunction="J4" toJunction="J3" end="360" vehsPerHour="34.9592227721739"/>
  <flow id="JF24411" begin="300" fromJunction="J4" toJunction="J5" end="360" vehsPerHour="27.327401676877805"/>
  <flow id="JF24412" begin="300" fromJunction="J4" toJunction="J6" end="360" vehsPerHour="3.5071330824462024"/>
  <flow id="JF24413" begin="300" fromJunction="J5" toJunction="J0" end="360" vehsPerHour="43.05342322171655"/>
  <flow id="JF24414" begin="300" fromJunction="J5" toJunction="J3" end="360" vehsPerHour="20.625216733612756"/>
  <flow id="JF24415" begin="300" fromJunction="J5" toJunction="J4" end="360" vehsPerHour="42.59909086215738"/>
  <flow id="JF24416" begin="300" fromJunction="J5" toJunction="J6" end="360" vehsPerHour="59.75031325531317"/>
  <flow id="JF24417" begin="300" fromJunction="J5" toJunction="J7" end="360" vehsPerHour="62.74106784141551"/>
  <flow id="JF24418" begin="300" fromJunction="J6" toJunction="J0" end="360" vehsPerHour="1.1824383360252244"/>
  <flow id="JF24419" begin="300" fromJunction="J6" toJunction="J3" end="360" vehsPerHour="31.935624827977513"/>
  <flow id="JF24420" begin="300" fromJunction="J6" toJunction="J4" end="360" vehsPerHour="49.24475008356822"/>
  <flow id="JF24421" begin="300" fromJunction="J6" toJunction="J5" end="360" vehsPerHour="62.20355007088882"/>
  <flow id="JF24422" begin="300" fromJunction="J7" toJunction="J0" end="360" vehsPerHour="3.1602229407674933"/>
  <flow id="JF24423" begin="300" fromJunction="J7" toJunction="J5" end="360" vehsPerHour="20.382062375027473"/>
  <flow id="JF24424" begin="300" fromJunction="J7" toJunction="J6" end="360" vehsPerHour="21.95985375962663"/>
  <flow id="JF24425" begin="360" fromJunction="J0" toJunction="J3" end="420" vehsPerHour="48.04778885072557"/>
  <flow id="JF24426" begin="360" fromJunction="J0" toJunction="J5" end="420" vehsPerHour="121.32131675971044"/>
  <flow id="JF24427" begin="360" fromJunction="J0" toJunction="J6" end="420" vehsPerHour="136.2847508841294"/>
  <flow id="JF24428" begin="360" fromJunction="J3" toJunction="J4" end="420" vehsPerHour="36.198773596872265"/>
  <flow id="JF24429" begin="360" fromJunction="J3" toJunction="J7" end="420" vehsPerHour="77.69811554516428"/>
  <flow id="JF24430" begin="360" fromJunction="J4" toJunction="J5" end="420" vehsPerHour="46.26591936380053"/>
  <flow id="JF24431" begin="360" fromJunction="J4" toJunction="J6" end="420" vehsPerHour="15.247867957903104"/>
  <flow id="JF24432" begin="360" fromJunction="J5" toJunction="J0" end="420" vehsPerHour="56.42560451451819"/>
  <flow id="JF24433" begin="360" fromJunction="J5" toJunction="J4" end="420" vehsPerHour="2.664448043090395"/>
  <flow id="JF24434" begin="360" fromJunction="J5" toJunction="J6" end="420" vehsPerHour="8.488818861086495"/>
  <flow id="JF24435" begin="360" fromJunction="J5" toJunction="J7" end="420" vehsPerHour="11.276393596138877"/>
  <flow id="JF24436" begin="360" fromJunction="J6" toJunction="J0" end="420" vehsPerHour="50.67380157940284"/>
  <flow id="JF24437" begin="360" fromJunction="J6" toJunction="J3" end="420" vehsPerHour="5.802561294694369"/>
  <flow id="JF24438" begin="360" fromJunction="J6" toJunction="J4" end="420" vehsPerHour="16.481000810212542"/>
  <flow id="JF24439" begin="360" fromJunction="J6" toJunction="J5" end="420" vehsPerHour="6.735416070007481"/>
  <flow id="JF24440" begin="360" fromJunction="J6" toJunction="J7" end="420" vehsPerHour="1.066271454692979"/>
  <flow id="JF24441" begin="360" fromJunction="J7" toJunction="J3" end="420" vehsPerHour="56.24318164579915"/>
  <flow id="JF24442" begin="360" fromJunction="J7" toJunction="J4" end="420" vehsPerHour="57.67565205294228"/>
  <flow id="JF24443" begin="360" fromJunction="J7" toJunction="J5" end="420" vehsPerHour="48.12961307024486"/>
  <flow id="JF24444" begin="360" fromJunction="J7" toJunction="J6" end="420" vehsPerHour="12.483004994922563"/>
  <flow id="JF24445" begin="420" fromJunction="J0" toJunction="J3" end="480" vehsPerHour="13.75521994394128"/>
  <flow id="JF24446" begin="420" fromJunction="J0" toJunction="J4" end="480" vehsPerHour="8.355815324120492"/>
  <flow id="JF24447" begin="420" fromJunction="J0" toJunction="J6" end="480" vehsPerHour="17.202366521667564"/>
  <flow id="JF24448" begin="420" fromJunction="J0" toJunction="J7" end="480" vehsPerHour="132.76521063731457"/>
  <flow id="JF24449" begin="420" fromJunction="J3" toJunction="J0" end="480" vehsPerHour="37.47378201740449"/>
  <flow id="JF24450" begin="420" fromJunction="J3" toJunction="J5" end="480" vehsPerHour="111.16692174275795"/>
  <flow id="JF24451" begin="420" fromJunction="J3" toJunction="J6" end="480" vehsPerHour="51.4446166726205"/>
  <flow id="JF24452" begin="420" fromJunction="J3" toJunction="J7" end="480" vehsPerHour="63.663368903266374"/>
  <flow id="JF24453" begin="420" fromJunction="J4" toJunction="J3" end="480" vehsPerHour="11.392506806983613"/>
  <flow id="JF24454" begin="420" fromJunction="J4" toJunction="J5" end="480" vehsPerHour="63.96785053684931"/>
  <flow id="JF24455" begin="420" fromJunction="J4" toJunction="J7" end="480" vehsPerHour="32.38386841811501"/>
  <flow id="JF24456" begin="420" fromJunction="J5" toJunction="J0" end="480" vehsPerHour="16.19018522460587"/>
  <flow id="JF24457" begin="420" fromJunction="J5" toJunction="J3" end="480" vehsPerHour="39.5924750038946"/>
  <flow id="JF24458" begin="420" fromJunction="J5" toJunction="J4" end="480" vehsPerHour="54.73200479144891"/>
  <flow id="JF24459" begin="420" fromJunction="J5" toJunction="J6" end="480" vehsPerHour="21.805408974024033"/>
  <flow id="JF24460" begin="420" fromJunction="J5" toJunction="J7" end="480" vehsPerHour="3.598088684053887"/>
  <flow id="JF24461" begin="420" fromJunction="J6" toJunction="J3" end="480" vehsPerHour="59.06254932205126"/>
  <flow id="JF24462" begin="420" fromJunction="J6" toJunction="J5" end="480" vehsPerHour="54.84130208443493"/>
  <flow id="JF24463" begin="420" fromJunction="J6" toJunction="J7" end="480" vehsPerHour="47.73641633626625"/>
  <flow id="JF24464" begin="420" fromJunction="J7" toJunction="J3" end="480" vehsPerHour="68.57352701987404"/>
  <flow id="JF24465" begin="420" fromJunction="J7" toJunction="J5" end="480" vehsPerHour="63.754357011945764"/>
  <flow id="JF24466" begin="420" fromJunction="J7" toJunction="J6" end="480" vehsPerHour="31.64976193799532"/>
  <flow id="JF24467" begin="480" fromJunction="J0" toJunction="J3" end="540" vehsPerHour="7.062085396703076"/>
  <flow id="JF24468" begin="480" fromJunction="J0" toJunction="J4" end="540" vehsPerHour="75.09901228305358"/>
  <flow id="JF24469" begin="480" fromJunction="J0" toJunction="J5" end="540" vehsPerHour="23.79963148048218"/>
  <flow id="JF24470" begin="480" fromJunction="J0" toJunction="J6" end="540" vehsPerHour="113.80295533182877"/>
  <flow id="JF24471" begin="480" fromJunction="J0" toJunction="J7" end="540" vehsPerHour="110.36001149400633"/>
  <flow id="JF24472" begin="480" fromJunction="J3" toJunction="J4" end="540" vehsPerHour="6.505284692942566"/>
  <flow id="JF24473" begin="480" fromJunction="J3" toJunction="J6" end="540" vehsPerHour="59.135259460461235"/>
  <flow id="JF24474" begin="480" fromJunction="J4" toJunction="J3" end="540" vehsPerHour="40.40392707593762"/>
  <flow id="JF24475" begin="480" fromJunction="J4" toJunction="J5" end="540" vehsPerHour="50.247296690670325"/>
  <flow id="JF24476" begin="480" fromJunction="J4" toJunction="J6" end="540" vehsPerHour="40.75056266652116"/>
  <flow id="JF24477" begin="480" fromJunction="J5" toJunction="J3" end="540" vehsPerHour="13.149028335932348"/>
  <flow id="JF24478" begin="480" fromJunction="J5" toJunction="J6" end="540" vehsPerHour="8.286374864936224"/>
  <flow id="JF24479" begin="480" fromJunction="J6" toJunction="J0" end="540" vehsPerHour="64.18589106168848"/>
  <flow id="JF24480" begin="480" fromJunction="J6" toJunction="J3" end="540" vehsPerHour="58.72495390374081"/>
  <flow id="JF24481" begin="480" fromJunction="J6" toJunction="J4" end="540" vehsPerHour="12.391434408774854"/>
  <flow id="JF24482" begin="480" fromJunction="J6" toJunction="J7" end="540" vehsPerHour="25.23799599629947"/>
  <flow id="JF24483" begin="480" fromJunction="J7" toJunction="J0" end="540" vehsPerHour="18.561328100952842"/>
  <flow id="JF24484" begin="480" fromJunction="J7" toJunction="J3" end="540" vehsPerHour="52.306696481316635"/>
  <flow id="JF24485" begin="480" fromJunction="J7" toJunction="J4" end="540" vehsPerHour="61.12968970280989"/>
  <flow id="JF24486" begin="480" fromJunction="J7" toJunction="J5" end="540" vehsPerHour="42.77651316128351"/>
  <flow id="JF24487" begin="480" fromJunction="J7" toJunction="J6" end="540" vehsPerHour="29.592726135609844"/>
  <flow id="JF24488" begin="540" fromJunction="J0" toJunction="J3" end="600" vehsPerHour="10.359400951149341"/>
  <flow id="JF24489" begin="540" fromJunction="J0" toJunction="J5" end="600" vehsPerHour="101.36902003216916"/>
  <flow id="JF24490" begin="540" fromJunction="J0" toJunction="J6" end="600" vehsPerHour="116.84969934010131"/>
  <flow id="JF24491" begin="540" fromJunction="J0" toJunction="J7" end="600" vehsPerHour="99.16655187724912"/>
  <flow id="JF24492" begin="540" fromJunction="J3" toJunction="J4" end="600" vehsPerHour="14.116647437509263"/>
  <flow id="JF24493" begin="540" fromJunction="J3" toJunction="J5" end="600" vehsPerHour="31.6010669907255"/>
  <flow id="JF24494" begin="540" fromJunction="J3" toJunction="J6" end="600" vehsPerHour="67.27492813875757"/>
  <flow id="JF24495" begin="540" fromJunction="J3" toJunction="J7" end="600" vehsPerHour="46.8801031772039"/>
  <flow id="JF24496" begin="540" fromJunction="J4" toJunction="J0" end="600" vehsPerHour="8.499961250620018"/>
  <flow id="JF24497" begin="540" fromJunction="J4" toJunction="J3" end="600" vehsPerHour="51.21909244609877"/>
  <flow id="JF24498" begin="540" fromJunction="J4" toJunction="J5" end="600" vehsPerHour="22.567909027946772"/>
  <flow id="JF24499" begin="540" fromJunction="J4" toJunction="J7" end="600" vehsPerHour="66.97239251436123"/>
  <flow id="JF24500" begin="540" fromJunction="J5" toJunction="J3" end="600" vehsPerHour="44.329323695325236"/>
  <flow id="JF24501" begin="540" fromJunction="J5" toJunction="J4" end="600" vehsPerHour="15.856514032414506"/>
  <flow id="JF24502" begin="540" fromJunction="J5" toJunction="J6" end="600" vehsPerHour="64.03317602576261"/>
  <flow id="JF24503" begin="540" fromJunction="J6" toJunction="J0" end="600" vehsPerHour="65.68659411341943"/>
  <flow id="JF24504" begin="540" fromJunction="J6" toJunction="J3" end="600" vehsPerHour="0.1381880109996463"/>
  <flow id="JF24505" begin="540" fromJunction="J6" toJunction="J4" end="600" vehsPerHour="27.666262759460732"/>
  <flow id="JF24506" begin="540" fromJunction="J6" toJunction="J7" end="600" vehsPerHour="62.33941033244482"/>
  <flow id="JF24507" begin="540" fromJunction="J7" toJunction="J3" end="600" vehsPerHour="35.44674270940392"/>
  <flow id="JF24508" begin="540" fromJunction="J7" toJunction="J6" end="600" vehsPerHour="48.73633992662074"/>
  <flow id="JF24509" begin="600" fromJunction="J0" toJunction="J3" end="660" vehsPerHour="65.54754432171686"/>
  <flow id="JF24510" begin="600" fromJunction="J0" toJunction="J5" end="660" vehsPerHour="64.09606322571177"/>
  <flow id="JF24511" begin="600" fromJunction="J0" toJunction="J6" end="660" vehsPerHour="28.849372147042768"/>
  <flow id="JF24512" begin="600" fromJunction="J0" toJunction="J7" end="660" vehsPerHour="75.59184354927477"/>
  <flow id="JF24513" begin="600" fromJunction="J3" toJunction="J0" end="660" vehsPerHour="54.17268199936651"/>
  <flow id="JF24514" begin="600" fromJunction="J3" toJunction="J4" end="660" vehsPerHour="22.224981720333037"/>
  <flow id="JF24515" begin="600" fromJunction="J3" toJunction="J5" end="660" vehsPerHour="7.955850875327087"/>
  <flow id="JF24516" begin="600" fromJunction="J3" toJunction="J7" end="660" vehsPerHour="116.9446546610295"/>
  <flow id="JF24517" begin="600" fromJunction="J4" toJunction="J0" end="660" vehsPerHour="3.0528903666708693"/>
  <flow id="JF24518" begin="600" fromJunction="J4" toJunction="J3" end="660" vehsPerHour="21.569065105844032"/>
  <flow id="JF24519" begin="600" fromJunction="J4" toJunction="J5" end="660" vehsPerHour="12.76967013384837"/>
  <flow id="JF24520" begin="600" fromJunction="J4" toJunction="J6" end="660" vehsPerHour="22.43156780570118"/>
  <flow id="JF24521" begin="600" fromJunction="J5" toJunction="J0" end="660" vehsPerHour="4.662277517967536"/>
  <flow id="JF24522" begin="600" fromJunction="J5" toJunction="J3" end="660" vehsPerHour="52.85147933631471"/>
  <flow id="JF24523" begin="600" fromJunction="J5" toJunction="J7" end="660" vehsPerHour="1.8171591383155816"/>
  <flow id="JF24524" begin="600" fromJunction="J6" toJunction="J0" end="660" vehsPerHour="4.699869572699904"/>
  <flow id="JF24525" begin="600" fromJunction="J6" toJunction="J4" end="660" vehsPerHour="67.76331874280474"/>
  <flow id="JF24526" begin="600" fromJunction="J6" toJunction="J7" end="660" vehsPerHour="24.106283346850972"/>
  <flow id="JF24527" begin="600" fromJunction="J7" toJunction="J0" end="660" vehsPerHour="18.83047978849937"/>
  <flow id="JF24528" begin="600" fromJunction="J7" toJunction="J4" end="660" vehsPerHour="16.617902746413417"/>
  <flow id="JF24529" begin="600" fromJunction="J7" toJunction="J5" end="660" vehsPerHour="24.910429126023963"/>
  <flow id="JF24530" begin="600" fromJunction="J7" toJunction="J6" end="660" vehsPerHour="12.922715230517673"/>
  <flow id="JF24531" begin="660" fromJunction="J0" toJunction="J4" end="720" vehsPerHour="119.45472831365528"/>
  <flow id="JF24532" begin="660" fromJunction="J0" toJunction="J7" end="720" vehsPerHour="66.90453218261652"/>
  <flow id="JF24533" begin="660" fromJunction="J3" toJunction="J0" end="720" vehsPerHour="21.344271089780317"/>
  <flow id="JF24534" begin="660" fromJunction="J3" toJunction="J4" end="720" vehsPerHour="69.17297382452502"/>
  <flow id="JF24535" begin="660" fromJunction="J3" toJunction="J5" end="720" vehsPerHour="87.2608679609511"/>
  <flow id="JF24536" begin="660" fromJunction="J3" toJunction="J7" end="720" vehsPerHour="55.42113799635356"/>
  <flow id="JF24537" begin="660" fromJunction="J4" toJunction="J0" end="720" vehsPerHour="26.85114138091713"/>
  <flow id="JF24538" begin="660" fromJunction="J4" toJunction="J5" end="720" vehsPerHour="65.93021592918903"/>
  <flow id="JF24539" begin="660" fromJunction="J4" toJunction="J6" end="720" vehsPerHour="49.549325141022585"/>
  <flow id="JF24540" begin="660" fromJunction="J4" toJunction="J7" end="720" vehsPerHour="15.94146733334325"/>
  <flow id="JF24541" begin="660" fromJunction="J5" toJunction="J0" end="720" vehsPerHour="25.728080924209255"/>
  <flow id="JF24542" begin="660" fromJunction="J5" toJunction="J4" end="720" vehsPerHour="63.957719807329745"/>
  <flow id="JF24543" begin="660" fromJunction="J5" toJunction="J6" end="720" vehsPerHour="58.81002504380516"/>
  <flow id="JF24544" begin="660" fromJunction="J6" toJunction="J0" end="720" vehsPerHour="49.292830163178465"/>
  <flow id="JF24545" begin="660" fromJunction="J6" toJunction="J3" end="720" vehsPerHour="58.16119363073213"/>
  <flow id="JF24546" begin="660" fromJunction="J6" toJunction="J4" end="720" vehsPerHour="28.439644980450968"/>
  <flow id="JF24547" begin="660" fromJunction="J6" toJunction="J5" end="720" vehsPerHour="49.57540003355627"/>
  <flow id="JF24548" begin="660" fromJunction="J7" toJunction="J0" end="720" vehsPerHour="24.169116466277327"/>
  <flow id="JF24549" begin="660" fromJunction="J7" toJunction="J3" end="720" vehsPerHour="15.974556358299985"/>
  <flow id="JF24550" begin="660" fromJunction="J7" toJunction="J4" end="720" vehsPerHour="0.2892611423156623"/>
  <flow id="JF24551" begin="660" fromJunction="J7" toJunction="J5" end="720" vehsPerHour="39.87981990156642"/>
  <flow id="JF24552" begin="660" fromJunction="J7" toJunction="J6" end="720" vehsPerHour="57.23898687662942"/>
  <flow id="JF24553" begin="720" fromJunction="J0" toJunction="J3" end="780" vehsPerHour="16.69794999765445"/>
  <flow id="JF24554" begin="720" fromJunction="J0" toJunction="J5" end="780" vehsPerHour="36.465659701701476"/>
  <flow id="JF24555" begin="720" fromJunction="J0" toJunction="J6" end="780" vehsPerHour="114.3403810434652"/>
  <flow id="JF24556" begin="720" fromJunction="J0" toJunction="J7" end="780" vehsPerHour="26.358307177590188"/>
  <flow id="JF24557" begin="720" fromJunction="J3" toJunction="J0" end="780" vehsPerHour="113.18822837910619"/>
  <flow id="JF24558" begin="720" fromJunction="J3" toJunction="J4" end="780" vehsPerHour="37.36383233522063"/>
  <flow id="JF24559" begin="720" fromJunction="J3" toJunction="J5" end="780" vehsPerHour="130.38166260934878"/>
  <flow id="JF24560" begin="720" fromJunction="J3" toJunction="J7" end="780" vehsPerHour="30.72772943785858"/>
  <flow id="JF24561" begin="720" fromJunction="J4" toJunction="J0" end="780" vehsPerHour="39.30995629946316"/>
  <flow id="JF24562" begin="720" fromJunction="J4" toJunction="J5" end="780" vehsPerHour="7.955946065809954"/>
  <flow id="JF24563" begin="720" fromJunction="J4" toJunction="J6" end="780" vehsPerHour="57.022056554586015"/>
  <flow id="JF24564" begin="720" fromJunction="J4" toJunction="J7" end="780" vehsPerHour="57.81971710985565"/>
  <flow id="JF24565" begin="720" fromJunction="J5" toJunction="J3" end="780" vehsPerHour="11.730331220632857"/>
  <flow id="JF24566" begin="720" fromJunction="J5" toJunction="J4" end="780" vehsPerHour="38.673857056556564"/>
  <flow id="JF24567" begin="720" fromJunction="J5" toJunction="J6" end="780" vehsPerHour="48.39313564234219"/>