<?xml version="1.0" encoding="UTF-8"?>
<routes xmlns:xsi="http://www.w3.org/2001/XMLSchema-instance" xsi:noNamespaceSchemaLocation="http://sumo.dlr.de/xsd/routes_file.xsd">
  <flow id="JF13942" begin="0" fromJunction="J0" toJunction="J3" end="60" vehsPerHour="37.860957633034346"/>
  <flow id="JF13943" begin="0" fromJunction="J0" toJunction="J4" end="60" vehsPerHour="88.13303524828784"/>
  <flow id="JF13944" begin="0" fromJunction="J0" toJunction="J6" end="60" vehsPerHour="31.142971182292104"/>
  <flow id="JF13945" begin="0" fromJunction="J0" toJunction="J7" end="60" vehsPerHour="17.3553650184014"/>
  <flow id="JF13946" begin="0" fromJunction="J3" toJunction="J6" end="60" vehsPerHour="122.20255240591291"/>
  <flow id="JF13947" begin="0" fromJunction="J3" toJunction="J7" end="60" vehsPerHour="21.589932351794875"/>
  <flow id="JF13948" begin="0" fromJunction="J4" toJunction="J0" end="60" vehsPerHour="29.04704731852122"/>
  <flow id="JF13949" begin="0" fromJunction="J4" toJunction="J5" end="60" vehsPerHour="35.26209893201822"/>
  <flow id="JF13950" begin="0" fromJunction="J5" toJunction="J0" end="60" vehsPerHour="18.669422403807147"/>
  <flow id="JF13951" begin="0" fromJunction="J5" toJunction="J3" end="60" vehsPerHour="6.960663182877714"/>
  <flow id="JF13952" begin="0" fromJunction="J5" toJunction="J4" end="60" vehsPerHour="55.43004862889213"/>
  <flow id="JF13953" begin="0" fromJunction="J5" toJunction="J6" end="60" vehsPerHour="52.57913313097935"/>
  <flow id="JF13954" begin="0" fromJunction="J6" toJunction="J0" end="60" vehsPerHour="29.512584877930184"/>
  <flow id="JF13955" begin="0" fromJunction="J6" toJunction="J5" end="60" vehsPerHour="25.95346145981656"/>
  <flow id="JF13956" begin="0" fromJunction="J6" toJunction="J7" end="60" vehsPerHour="9.912122763356495"/>
  <flow id="JF13957" begin="0" fromJunction="J7" toJunction="J0" end="60" vehsPerHour="15.05203934741941"/>
  <flow id="JF13958" begin="0" fromJunction="J7" toJunction="J3" end="60" vehsPerHour="67.32876482416896"/>
  <flow id="JF13959" begin="0" fromJunction="J7" toJunction="J4" end="60" vehsPerHour="0.7950221106968589"/>
  <flow id="JF13960" begin="0" fromJunction="J7" toJunction="J5" end="60" vehsPerHour="68.59546403263525"/>
  <flow id="JF13961" begin="60" fromJunction="J0" toJunction="J3" end="120" vehsPerHour="60.55660882642953"/>
  <flow id="JF13962" begin="60" fromJunction="J0" toJunction="J4" end="120" vehsPerHour="11.602010368132879"/>
  <flow id="JF13963" begin="60" fromJunction="J0" toJunction="J5" end="120" vehsPerHour="48.46989250037105"/>
  <flow id="JF13964" begin="60" fromJunction="J0" toJunction="J7" end="120" vehsPerHour="34.67772806784885"/>
  <flow id="JF13965" begin="60" fromJunction="J3" toJunction="J4" end="120" vehsPerHour="103.39383196066602"/>
  <flow id="JF13966" begin="60" fromJunction="J3" toJunction="J5" end="120" vehsPerHour="5.586538382176315"/>
  <flow id="JF13967" begin="60" fromJunction="J4" toJunction="J0" end="120" vehsPerHour="12.063835138090667"/>
  <flow id="JF13968" begin="60" fromJunction="J4" toJunction="J3" end="120" vehsPerHour="60.53469406865315"/>
  <flow id="JF13969" begin="60" fromJunction="J4" toJunction="J5" end="120" vehsPerHour="42.63112300311463"/>
  <flow id="JF13970" begin="60" fromJunction="J4" toJunction="J6" end="120" vehsPerHour="36.653282054753426"/>
  <flow id="JF13971" begin="60" fromJunction="J5" toJunction="J3" end="120" vehsPerHour="16.405869843949684"/>
  <flow id="JF13972" begin="60" fromJunction="J5" toJunction="J4" end="120" vehsPerHour="2.3953920092514105"/>
  <flow id="JF13973" begin="60" fromJunction="J5" toJunction="J6" end="120" vehsPerHour="18.134797950590244"/>
  <flow id="JF13974" begin="60" fromJunction="J6" toJunction="J0" end="120" vehsPerHour="55.38151215716043"/>
  <flow id="JF13975" begin="60" fromJunction="J6" toJunction="J3" end="120" vehsPerHour="19.49470790583933"/>
  <flow id="JF13976" begin="60" fromJunction="J6" toJunction="J4" end="120" vehsPerHour="37.06201805697312"/>
  <flow id="JF13977" begin="60" fromJunction="J6" toJunction="J5" end="120" vehsPerHour="58.89899060231682"/>
  <flow id="JF13978" begin="60" fromJunction="J6" toJunction="J7" end="120" vehsPerHour="35.80223234326042"/>
  <flow id="JF13979" begin="60" fromJunction="J7" toJunction="J0" end="120" vehsPerHour="22.196534410184753"/>
  <flow id="JF13980" begin="60" fromJunction="J7" toJunction="J4" end="120" vehsPerHour="53.0971186888939"/>
  <flow id="JF13981" begin="60" fromJunction="J7" toJunction="J5" end="120" vehsPerHour="25.806478084510537"/>
  <flow id="JF13982" begin="120" fromJunction="J0" toJunction="J3" end="180" vehsPerHour="50.25483207895371"/>
  <flow id="JF13983" begin="120" fromJunction="J0" toJunction="J4" end="180" vehsPerHour="107.98889253561715"/>
  <flow id="JF13984" begin="120" fromJunction="J0" toJunction="J5" end="180" vehsPerHour="58.87207560466391"/>
  <flow id="JF13985" begin="120" fromJunction="J0" toJunction="J6" end="180" vehsPerHour="129.5088334909405"/>
  <flow id="JF13986" begin="120" fromJunction="J3" toJunction="J4" end="180" vehsPerHour="94.53800397996172"/>
  <flow id="JF13987" begin="120" fromJunction="J3" toJunction="J5" end="180" vehsPerHour="24.545601027977195"/>
  <flow id="JF13988" begin="120" fromJunction="J3" toJunction="J6" end="180" vehsPerHour="27.08462251151757"/>
  <flow id="JF13989" begin="120" fromJunction="J3" toJunction="J7" end="180" vehsPerHour="80.75641817172074"/>
  <flow id="JF13990" begin="120" fromJunction="J4" toJunction="J5" end="180" vehsPerHour="67.86736020788358"/>
  <flow id="JF13991" begin="120" fromJunction="J4" toJunction="J6" end="180" vehsPerHour="48.20651444931643"/>
  <flow id="JF13992" begin="120" fromJunction="J4" toJunction="J7" end="180" vehsPerHour="61.16201014650755"/>
  <flow id="JF13993" begin="120" fromJunction="J5" toJunction="J0" end="180" vehsPerHour="25.632103282378953"/>
  <flow id="JF13994" begin="120" fromJunction="J5" toJunction="J3" end="180" vehsPerHour="35.62369318065103"/>
  <flow id="JF13995" begin="120" fromJunction="J5" toJunction="J6" end="180" vehsPerHour="55.58162314578087"/>
  <flow id="JF13996" begin="120" fromJunction="J6" toJunction="J0" end="180" vehsPerHour="16.97908491162622"/>
  <flow id="JF13997" begin="120" fromJunction="J6" toJunction="J3" end="180" vehsPerHour="48.30195660022484"/>
  <flow id="JF13998" begin="120" fromJunction="J6" toJunction="J4" end="180" vehsPerHour="5.49375471463199"/>
  <flow id="JF13999" begin="120" fromJunction="J6" toJunction="J7" end="180" vehsPerHour="22.37680781606075"/>
  <flow id="JF14000" begin="120" fromJunction="J7" toJunction="J0" end="180" vehsPerHour="34.98665288216695"/>
  <flow id="JF14001" begin="120" fromJunction="J7" toJunction="J5" end="180" vehsPerHour="5.510209524420103"/>
  <flow id="JF14002" begin="120" fromJunction="J7" toJunction="J6" end="180" vehsPerHour="17.02605465007021"/>
  <flow id="JF14003" begin="180" fromJunction="J0" toJunction="J3" end="240" vehsPerHour="47.4324131609212"/>
  <flow id="JF14004" begin="180" fromJunction="J0" toJunction="J4" end="240" vehsPerHour="51.773055240083345"/>
  <flow id="JF14005" begin="180" fromJunction="J0" toJunction="J5" end="240" vehsPerHour="107.43519639123996"/>
  <flow id="JF14006" begin="180" fromJunction="J0" toJunction="J6" end="240" vehsPerHour="42.31365156270039"/>
  <flow id="JF14007" begin="180" fromJunction="J0" toJunction="J7" end="240" vehsPerHour="116.92732917661499"/>
  <flow id="JF14008" begin="180" fromJunction="J3" toJunction="J0" end="240" vehsPerHour="74.94681894052198"/>
  <flow id="JF14009" begin="180" fromJunction="J3" toJunction="J4" end="240" vehsPerHour="41.30160098692219"/>
  <flow id="JF14010" begin="180" fromJunction="J3" toJunction="J6" end="240" vehsPerHour="127.50155458097039"/>
  <flow id="JF14011" begin="180" fromJunction="J3" toJunction="J7" end="240" vehsPerHour="22.907019750038003"/>
  <flow id="JF14012" begin="180" fromJunction="J4" toJunction="J0" end="240" vehsPerHour="2.9088068424408173"/>
  <flow id="JF14013" begin="180" fromJunction="J4" toJunction="J3" end="240" vehsPerHour="47.38763784171592"/>
  <flow id="JF14014" begin="180" fromJunction="J4" toJunction="J5" end="240" vehsPerHour="45.70333302354913"/>
  <flow id="JF14015" begin="180" fromJunction="J4" toJunction="J7" end="240" vehsPerHour="60.544579947737006"/>
  <flow id="JF14016" begin="180" fromJunction="J5" toJunction="J0" end="240" vehsPerHour="63.83311933161083"/>
  <flow id="JF14017" begin="180" fromJunction="J5" toJunction="J4" end="240" vehsPerHour="59.63990678409995"/>
  <flow id="JF14018" begin="180" fromJunction="J5" toJunction="J6" end="240" vehsPerHour="46.683494653016886"/>
  <flow id="JF14019" begin="180" fromJunction="J5" toJunction="J7" end="240" vehsPerHour="9.253631153338828"/>
  <flow id="JF14020" begin="180" fromJunction="J6" toJunction="J0" end="240" vehsPerHour="27.074573466837258"/>
  <flow id="JF14021" begin="180" fromJunction="J6" toJunction="J3" end="240" vehsPerHour="59.17825612737678"/>
  <flow id="JF14022" begin="180" fromJunction="J6" toJunction="J4" end="240" vehsPerHour="66.94094124651535"/>
  <flow id="JF14023" begin="180" fromJunction="J6" toJunction="J5" end="240" vehsPerHour="24.81048356674745"/>
  <flow id="JF14024" begin="180" fromJunction="J6" toJunction="J7" end="240" vehsPerHour="41.842834064701876"/>
  <flow id="JF14025" begin="180" fromJunction="J7" toJunction="J0" end="240" vehsPerHour="13.269108150734887"/>
  <flow id="JF14026" begin="180" fromJunction="J7" toJunction="J4" end="240" vehsPerHour="29.19607067426849"/>
  <flow id="JF14027" begin="180" fromJunction="J7" toJunction="J5" end="240" vehsPerHour="37.322471504712034"/>
  <flow id="JF14028" begin="240" fromJunction="J0" toJunction="J4" end="300" vehsPerHour="114.09047163691433"/>
  <flow id="JF14029" begin="240" fromJunction="J0" toJunction="J5" end="300" vehsPerHour="77.25888827086173"/>
  <flow id="JF14030" begin="240" fromJunction="J0" toJunction="J7" end="300" vehsPerHour="87.99926364698524"/>
  <flow id="JF14031" begin="240" fromJunction="J3" toJunction="J4" end="300" vehsPerHour="43.03577822883903"/>
  <flow id="JF14032" begin="240" fromJunction="J3" toJunction="J5" end="300" vehsPerHour="27.751769418133314"/>
  <flow id="JF14033" begin="240" fromJunction="J3" toJunction="J6" end="300" vehsPerHour="28.366752138668417"/>
  <flow id="JF14034" begin="240" fromJunction="J3" toJunction="J7" end="300" vehsPerHour="22.707408588758028"/>
  <flow id="JF14035" begin="240" fromJunction="J4" toJunction="J0" end="300" vehsPerHour="5.913384426351739"/>
  <flow id="JF14036" begin="240" fromJunction="J4" toJunction="J3" end="300" vehsPerHour="49.837463870098084"/>
  <flow id="JF14037" begin="240" fromJunction="J4" toJunction="J5" end="300" vehsPerHour="10.750999396430343"/>
  <flow id="JF14038" begin="240" fromJunction="J4" toJunction="J6" end="300" vehsPerHour="48.8927677799394"/>
  <flow id="JF14039" begin="240" fromJunction="J4" toJunction="J7" end="300" vehsPerHour="10.299360410751351"/>
  <flow id="JF14040" begin="240" fromJunction="J5" toJunction="J0" end="300" vehsPerHour="0.9198552335559059"/>
  <flow id="JF14041" begin="240" fromJunction="J5" toJunction="J3" end="300" vehsPerHour="61.53159575531643"/>
  <flow id="JF14042" begin="240" fromJunction="J5" toJunction="J4" end="300" vehsPerHour="46.459409535058455"/>
  <flow id="JF14043" begin="240" fromJunction="J5" toJunction="J6" end="300" vehsPerHour="47.07611815478356"/>
  <flow id="JF14044" begin="240" fromJunction="J5" toJunction="J7" end="300" vehsPerHour="0.727963268106418"/>
  <flow id="JF14045" begin="240" fromJunction="J6" toJunction="J0" end="300" vehsPerHour="10.969187664493306"/>
  <flow id="JF14046" begin="240" fromJunction="J6" toJunction="J3" end="300" vehsPerHour="47.26954661333683"/>
  <flow id="JF14047" begin="240" fromJunction="J6" toJunction="J4" end="300" vehsPerHour="45.02286121960875"/>
  <flow id="JF14048" begin="240" fromJunction="J6" toJunction="J5" end="300" vehsPerHour="32.26089109715577"/>
  <flow id="JF14049" begin="240" fromJunction="J7" toJunction="J0" end="300" vehsPerHour="39.55766289480248"/>
  <flow id="JF14050" begin="240" fromJunction="J7" toJunction="J3" end="300" vehsPerHour="42.26798905528546"/>
  <flow id="JF14051" begin="240" fromJunction="J7" toJunction="J4" end="300" vehsPerHour="9.898937574869718"/>
  <flow id="JF14052" begin="240" fromJunction="J7" toJunction="J5" end="300" vehsPerHour="62.871107143277186"/>
  <flow id="JF14053" begin="240" fromJunction="J7" toJunction="J6" end="300" vehsPerHour="41.086341571216465"/>
  <flow id="JF14054" begin="300" fromJunction="J0" toJunction="J3" end="360" vehsPerHour="46.48384524977716"/>
  <flow id="JF14055" begin="300" fromJunction="J0" toJunction="J4" end="360" vehsPerHour="111.13001465217411"/>
  <flow id="JF14056" begin="300" fromJunction="J0" toJunction="J5" end="360" vehsPerHour="119.99036678807258"/>
  <flow id="JF14057" begin="300" fromJunction="J0" toJunction="J7" end="360" vehsPerHour="130.99666574958187"/>
  <flow id="JF14058" begin="300" fromJunction="J3" toJunction="J0" end="360" vehsPerHour="70.63760760472171"/>
  <flow id="JF14059" begin="300" fromJunction="J3" toJunction="J4" end="360" vehsPerHour="29.850478881907836"/>
  <flow id="JF14060" begin="300" fromJunction="J3" toJunction="J6" end="360" vehsPerHour="79.24778041381019"/>
  <flow id="JF14061" begin="300" fromJunction="J3" toJunction="J7" end="360" vehsPerHour="108.75551558472463"/>
  <flow id="JF14062" begin="300" fromJunction="J4" toJunction="J3" end="360" vehsPerHour="37.13685728893331"/>
  <flow id="JF14063" begin="300" fromJunction="J4" toJunction="J5" end="360" vehsPerHour="42.59171634997129"/>
  <flow id="JF14064" begin="300" fromJunction="J4" toJunction="J6" end="360" vehsPerHour="23.42821154807181"/>
  <flow id="JF14065" begin="300" fromJunction="J4" toJunction="J7" end="360" vehsPerHour="48.48132424917864"/>
  <flow id="JF14066" begin="300" fromJunction="J5" toJunction="J0" end="360" vehsPerHour="63.17525409036198"/>
  <flow id="JF14067" begin="300" fromJunction="J5" toJunction="J3" end="360" vehsPerHour="46.4882966307639"/>
  <flow id="JF14068" begin="300" fromJunction="J5" toJunction="J4" end="360" vehsPerHour="34.814672860493175"/>
  <flow id="JF14069" begin="300" fromJunction="J5" toJunction="J6" end="360" vehsPerHour="67.83717667400788"/>
  <flow id="JF14070" begin="300" fromJunction="J6" toJunction="J0" end="360" vehsPerHour="39.51195746416341"/>
  <flow id="JF14071" begin="300" fromJunction="J6" toJunction="J3" end="360" vehsPerHour="18.661291293609185"/>
  <flow id="JF14072" begin="300" fromJunction="J6" toJunction="J4" end="360" vehsPerHour="13.115413681751551"/>
  <flow id="JF14073" begin="300" fromJunction="J6" toJunction="J5" end="360" vehsPerHour="47.16323330480796"/>
  <flow id="JF14074" begin="300" fromJunction="J7" toJunction="J0" end="360" vehsPerHour="35.689700751057096"/>
  <flow id="JF14075" begin="300" fromJunction="J7" toJunction="J4" end="360" vehsPerHour="14.116413089662773"/>
  <flow id="JF14076" begin="300" fromJunction="J7" toJunction="J5" end="360" vehsPerHour="48.19055731165807"/>
  <flow id="JF14077" begin="360" fromJunction="J0" toJunction="J3" end="420" vehsPerHour="29.297578579043"/>
  <flow id="JF14078" begin="360" fromJunction="J0" toJunction="J5" end="420" vehsPerHour="88.86185379613846"/>
  <flow id="JF14079" begin="360" fromJunction="J0" toJunction="J6" end="420" vehsPerHour="128.7550801885052"/>
  <flow id="JF14080" begin="360" fromJunction="J3" toJunction="J0" end="420" vehsPerHour="123.1801481350436"/>
  <flow id="JF14081" begin="360" fromJunction="J3" toJunction="J4" end="420" vehsPerHour="119.97661395036651"/>
  <flow id="JF14082" begin="360" fromJunction="J3" toJunction="J7" end="420" vehsPerHour="36.95386006253207"/>
  <flow id="JF14083" begin="360" fromJunction="J4" toJunction="J0" end="420" vehsPerHour="6.185764333434986"/>
  <flow id="JF14084" begin="360" fromJunction="J4" toJunction="J3" end="420" vehsPerHour="41.717814525893225"/>
  <flow id="JF14085" begin="360" fromJunction="J4" toJunction="J7" end="420" vehsPerHour="22.312684958823706"/>
  <flow id="JF14086" begin="360" fromJunction="J5" toJunction="J0" end="420" vehsPerHour="62.729483764150324"/>
  <flow id="JF14087" begin="360" fromJunction="J5" toJunction="J3" end="420" vehsPerHour="61.88878482113018"/>
  <flow id="JF14088" begin="360" fromJunction="J5" toJunction="J4" end="420" vehsPerHour="53.423924631038304"/>
  <flow id="JF14089" begin="360" fromJunction="J5" toJunction="J6" end="420" vehsPerHour="38.814848649905656"/>
  <flow id="JF14090" begin="360" fromJunction="J5" toJunction="J7" end="420" vehsPerHour="49.48411930272996"/>
  <flow id="JF14091" begin="360" fromJunction="J6" toJunction="J0" end="420" vehsPerHour="11.236222242592529"/>
  <flow id="JF14092" begin="360" fromJunction="J6" toJunction="J3" end="420" vehsPerHour="67.71194764381124"/>
  <flow id="JF14093" begin="360" fromJunction="J6" toJunction="J4" end="420" vehsPerHour="62.11182958275506"/>
  <flow id="JF14094" begin="360" fromJunction="J6" toJunction="J5" end="420" vehsPerHour="45.49898231839857"/>
  <flow id="JF14095" begin="360" fromJunction="J6" toJunction="J7" end="420" vehsPerHour="38.65966497437818"/>
  <flow id="JF14096" begin="360" fromJunction="J7" toJunction="J0" end="420" vehsPerHour="33.696234121278536"/>
  <flow id="JF14097" begin="360" fromJunction="J7" toJunction="J4" end="420" vehsPerHour="17.865286668712404"/>
  <flow id="JF14098" begin="360" fromJunction="J7" toJunction="J5" end="420" vehsPerHour="38.6422045536716"/>
  <flow id="JF14099" begin="360" fromJunction="J7" toJunction="J6" end="420" vehsPerHour="48.00160116028647"/>
  <flow id="JF14100" begin="420" fromJunction="J0" toJunction="J3" end="480" vehsPerHour="10.148864530317821"/>
  <flow id="JF14101" begin="420" fromJunction="J0" toJunction="J5" end="480" vehsPerHour="61.80677488554796"/>
  <flow id="JF14102" begin="420" fromJunction="J0" toJunction="J7" end="480" vehsPerHour="44.104994673269935"/>
  <flow id="JF14103" begin="420" fromJunction="J3" toJunction="J0" end="480" vehsPerHour="83.208676614224"/>
  <flow id="JF14104" begin="420" fromJunction="J3" toJunction="J5" end="480" vehsPerHour="87.10152343302424"/>
  <flow id="JF14105" begin="420" fromJunction="J3" toJunction="J7" end="480" vehsPerHour="16.92698067979516"/>
  <flow id="JF14106" begin="420" fromJunction="J4" toJunction="J0" end="480" vehsPerHour="50.22984379910003"/>
  <flow id="JF14107" begin="420" fromJunction="J4" toJunction="J3" end="480" vehsPerHour="35.842006609302324"/>
  <flow id="JF14108" begin="420" fromJunction="J4" toJunction="J5" end="480" vehsPerHour="42.425592952934664"/>
  <flow id="JF14109" begin="420" fromJunction="J4" toJunction="J6" end="480" vehsPerHour="9.171028988594689"/>
  <flow id="JF14110" begin="420" fromJunction="J4" toJunction="J7" end="480" vehsPerHour="59.67582544958509"/>
  <flow id="JF14111" begin="420" fromJunction="J5" toJunction="J0" end="480" vehsPerHour="38.19497667579654"/>
  <flow id="JF14112" begin="420" fromJunction="J5" toJunction="J6" end="480" vehsPerHour="56.589785793436576"/>
  <flow id="JF14113" begin="420" fromJunction="J5" toJunction="J7" end="480" vehsPerHour="8.297342569948407"/>
  <flow id="JF14114" begin="420" fromJunction="J6" toJunction="J4" end="480" vehsPerHour="29.107880621336435"/>
  <flow id="JF14115" begin="420" fromJunction="J6" toJunction="J5" end="480" vehsPerHour="37.97877947398433"/>
  <flow id="JF14116" begin="420" fromJunction="J6" toJunction="J7" end="480" vehsPerHour="1.5240945430526822"/>
  <flow id="JF14117" begin="420" fromJunction="J7" toJunction="J0" end="480" vehsPerHour="53.27299020440009"/>
  <flow id="JF14118" begin="420" fromJunction="J7" toJunction="J3" end="480" vehsPerHour="51.12467214935237"/>
  <flow id="JF14119" begin="420" fromJunction="J7" toJunction="J4" end="480" vehsPerHour="32.51829054999951"/>
  <flow id="JF14120" begin="420" fromJunction="J7" toJunction="J5" end="480" vehsPerHour="55.89205258003185"/>
  <flow id="JF14121" begin="420" fromJunction="J7" toJunction="J6" end="480" vehsPerHour="3.610841476129486"/>
  <flow id="JF14122" begin="480" fromJunction="J0" toJunction="J3" end="540" vehsPerHour="120.98490958927444"/>
  <flow id="JF14123" begin="480" fromJunction="J0" toJunction="J7" end="540" vehsPerHour="68.82548108996531"/>
  <flow id="JF14124" begin="480" fromJunction="J3" toJunction="J4" end="540" vehsPerHour="50.260333517035214"/>
  <flow id="JF14125" begin="480" fromJunction="J3" toJunction="J6" end="540" vehsPerHour="8.970033785224608"/>
  <flow id="JF14126" begin="480" fromJunction="J4" toJunction="J3" end="540" vehsPerHour="28.55843248662566"/>
  <flow id="JF14127" begin="480" fromJunction="J4" toJunction="J5" end="540" vehsPerHour="31.93830106701716"/>
  <flow id="JF14128" begin="480" fromJunction="J4" toJunction="J6" end="540" vehsPerHour="4.353493898807106"/>
  <flow id="JF14129" begin="480" fromJunction="J5" toJunction="J4" end="540" vehsPerHour="30.05004129422761"/>
  <flow id="JF14130" begin="480" fromJunction="J5" toJunction="J6" end="540" vehsPerHour="14.28598998015819"/>
  <flow id="JF14131" begin="480" fromJunction="J5" toJunction="J7" end="540" vehsPerHour="35.72552534430393"/>
  <flow id="JF14132" begin="480" fromJunction="J6" toJunction="J0" end="540" vehsPerHour="30.61070978229454"/>
  <flow id="JF14133" begin="480" fromJunction="J6" toJunction="J7" end="540" vehsPerHour="60.948620716593055"/>
  <flow id="JF14134" begin="480" fromJunction="J7" toJunction="J0" end="540" vehsPerHour="32.85110344578794"/>
  <flow id="JF14135" begin="480" fromJunction="J7" toJunction="J3" end="540" vehsPerHour="64.31895715918346"/>
  <flow id="JF14136" begin="480" fromJunction="J7" toJunction="J4" end="540" vehsPerHour="43.00308327626333"/>
  <flow id="JF14137" begin="480" fromJunction="J7" toJunction="J5" end="540" vehsPerHour="15.766199249481797"/>
  <flow id="JF14138" begin="540" fromJunction="J0" toJunction="J4" end="600" vehsPerHour="97.26058437349691"/>
  <flow id="JF14139" begin="540" fromJunction="J0" toJunction="J6" end="600" vehsPerHour="120.7853502430844"/>
  <flow id="JF14140" begin="540" fromJunction="J3" toJunction="J0" end="600" vehsPerHour="9.30845807862736"/>
  <flow id="JF14141" begin="540" fromJunction="J3" toJunction="J4" end="600" vehsPerHour="46.742873273005245"/>
  <flow id="JF14142" begin="540" fromJunction="J3" toJunction="J6" end="600" vehsPerHour="54.72967823488073"/>
  <flow id="JF14143" begin="540" fromJunction="J3" toJunction="J7" end="600" vehsPerHour="108.86723597381861"/>
  <flow id="JF14144" begin="540" fromJunction="J4" toJunction="J0" end="600" vehsPerHour="57.0817164472481"/>
  <flow id="JF14145" begin="540" fromJunction="J4" toJunction="J3" end="600" vehsPerHour="62.535026915516"/>
  <flow id="JF14146" begin="540" fromJunction="J4" toJunction="J6" end="600" vehsPerHour="49.54650323314994"/>
  <flow id="JF14147" begin="540" fromJunction="J4" toJunction="J7" end="600" vehsPerHour="49.42768353510593"/>
  <flow id="JF14148" begin="540" fromJunction="J5" toJunction="J0" end="600" vehsPerHour="51.187694985306344"/>
  <flow id="JF14149" begin="540" fromJunction="J5" toJunction="J3" end="600" vehsPerHour="14.400587359028027"/>
  <flow id="JF14150" begin="540" fromJunction="J5" toJunction="J4" end="600" vehsPerHour="55.457522365175656"/>
  <flow id="JF14151" begin="540" fromJunction="J5" toJunction="J6" end="600" vehsPerHour="41.87661666190174"/>
  <flow id="JF14152" begin="540" fromJunction="J6" toJunction="J0" end="600" vehsPerHour="51.911014907255634"/>
  <flow id="JF14153" begin="540" fromJunction="J6" toJunction="J3" end="600" vehsPerHour="21.202571230764462"/>
  <flow id="JF14154" begin="540" fromJunction="J6" toJunction="J4" end="600" vehsPerHour="25.2763715440527"/>
  <flow id="JF14155" begin="540" fromJunction="J6" toJunction="J5" end="600" vehsPerHour="57.02395248194941"/>
  <flow id="JF14156" begin="540" fromJunction="J6" toJunction="J7" end="600" vehsPerHour="42.15555696662076"/>
  <flow id="JF14157" begin="540" fromJunction="J7" toJunction="J0" end="600" vehsPerHour="15.140342149300723"/>
  <flow id="JF14158" begin="540" fromJunction="J7" toJunction="J3" end="600" vehsPerHour="34.80729053167584"/>
  <flow id="JF14159" begin="600" fromJunction="J0" toJunction="J4" end="660" vehsPerHour="49.52782693315883"/>
  <flow id="JF14160" begin="600" fromJunction="J0" toJunction="J5" end="660" vehsPerHour="86.61805970644417"/>
  <flow id="JF14161" begin="600" fromJunction="J0" toJunction="J6" end="660" vehsPerHour="117.20024204269579"/>
  <flow id="JF14162" begin="600" fromJunction="J0" toJunction="J7" end="660" vehsPerHour="23.151770025002183"/>
  <flow id="JF14163" begin="600" fromJunction="J3" toJunction="J0" end="660" vehsPerHour="14.985166756380409"/>
  <flow id="JF14164" begin="600" fromJunction="J3" toJunction="J6" end="660" vehsPerHour="65.64611362985482"/>
  <flow id="JF14165" begin="600" fromJunction="J3" toJunction="J7" end="660" vehsPerHour="118.79001994825204"/>
  <flow id="JF14166" begin="600" fromJunction="J4" toJunction="J3" end="660" vehsPerHour="52.52957459809831"/>
  <flow id="JF14167" begin="600" fromJunction="J4" toJunction="J5" end="660" vehsPerHour="20.421851969885008"/>
  <flow id="JF14168" begin="600" fromJunction="J5" toJunction="J0" end="660" vehsPerHour="34.90219808267883"/>
  <flow id="JF14169" begin="600" fromJunction="J5" toJunction="J3" end="660" vehsPerHour="42.30595886949531"/>
  <flow id="JF14170" begin="600" fromJunction="J5" toJunction="J6" end="660" vehsPerHour="60.37567164104791"/>
  <flow id="JF14171" begin="600" fromJunction="J5" toJunction="J7" end="660" vehsPerHour="0.18549900413894196"/>
  <flow id="JF14172" begin="600" fromJunction="J6" toJunction="J0" end="660" vehsPerHour="50.31572751447645"/>
  <flow id="JF14173" begin="600" fromJunction="J6" toJunction="J3" end="660" vehsPerHour="51.16893241900354"/>
  <flow id="JF14174" begin="600" fromJunction="J6" toJunction="J4" end="660" vehsPerHour="9.174327043697412"/>
  <flow id="JF14175" begin="600" fromJunction="J6" toJunction="J5" end="660" vehsPerHour="0.8845407525213117"/>
  <flow id="JF14176" begin="600" fromJunction="J7" toJunction="J5" end="660" vehsPerHour="51.76016348093818"/>
  <flow id="JF14177" begin="660" fromJunction="J0" toJunction="J3" end="720" vehsPerHour="27.297853319525206"/>
  <flow id="JF14178" begin="660" fromJunction="J0" toJunction="J4" end="720" vehsPerHour="126.35929466455691"/>
  <flow id="JF14179" begin="660" fromJunction="J0" toJunction="J5" end="720" vehsPerHour="55.50026164263424"/>
  <flow id="JF14180" begin="660" fromJunction="J0" toJunction="J6" end="720" vehsPerHour="7.2265349310526075"/>
  <flow id="JF14181" begin="660" fromJunction="J0" toJunction="J7" end="720" vehsPerHour="99.70260246102116"/>
  <flow id="JF14182" begin="660" fromJunction="J3" toJunction="J0" end="720" vehsPerHour="129.22034016152628"/>
  <flow id="JF14183" begin="660" fromJunction="J3" toJunction="J4" end="720" vehsPerHour="86.31078037988583"/>
  <flow id="JF14184" begin="660" fromJunction="J3" toJunction="J6" end="720" vehsPerHour="132.1938367931829"/>
  <flow id="JF14185" begin="660" fromJunction="J4" toJunction="J3" end="720" vehsPerHour="47.774182716943905"/>
  <flow id="JF14186" begin="660" fromJunction="J4" toJunction="J6" end="720" vehsPerHour="6.090237931499346"/>
  <flow id="JF14187" begin="660" fromJunction="J4" toJunction="J7" end="720" vehsPerHour="7.888108078537261"/>
  <flow id="JF14188" begin="660" fromJunction="J5" toJunction="J0" end="720" vehsPerHour="9.367434403172025"/>
  <flow id="JF14189" begin="660" fromJunction="J5" toJunction="J3" end="720" vehsPerHour="64.17456532435601"/>
  <flow id="JF14190" begin="660" fromJunction="J5" toJunction="J4" end="720" vehsPerHour="19.225934105238355"/>
  <flow id="JF14191" begin="660" fromJunction="J5" toJunction="J6" end="720" vehsPerHour="52.36181873059953"/>
  <flow id="JF14192" begin="660" fromJunction="J5" toJunction="J7" end="720" vehsPerHour="34.458262087066274"/>
  <flow id="JF14193" begin="660" fromJunction="J6" toJunction="J4" end="720" vehsPerHour="35.838122231692594"/>
  <flow id="JF14194" begin="660" fromJunction="J6" toJunction="J5" end="720" vehsPerHour="17.25567671953337"/>
  <flow id="JF14195" begin="660" fromJunction="J6" toJunction="J7" end="720" vehsPerHour="59.84113049483514"/>
  <flow id="JF14196" begin="660" fromJunction="J7" toJunction="J0" end="720" vehsPerHour="4.625167197203933"/>
  <flow id="JF14197" begin="660" fromJunction="J7" toJunction="J3" end="720" vehsPerHour="68.65880732563438"/>
  <flow id="JF14198" begin="660" fromJunction="J7" toJunction="J4" end="720" vehsPerHour="25.299248397328046"/>
  <flow id="JF14199" begin="660" fromJunction="J7" toJunction="J5" end="720" vehsPerHour="62.53542289495438"/>
  <flow id="JF14200" begin="660" fromJunction="J7" toJunction="J6" end="720" vehsPerHour="13.462257826161222"/>
  <flow id="JF14201" begin="720" fromJunction="J0" toJunction="J3" end="780" vehsPerHour="88.886240774779"/>
  <flow id="JF14202" begin="720" fromJunction="J0" toJunction="J4" end="780" vehsPerHour="31.207875316371737"/>
  <flow id="JF14203" begin="720" fromJunction="J0" toJunction="J5" end="780" vehsPerHour="75.92911651784848"/>
  <flow id="JF14204" begin="720" fromJunction="J0" toJunction="J6" end="780" vehsPerHour="69.91671690170642"/>
  <flow id="JF14205" begin="720" fromJunction="J0" toJunction="J7" end="780" vehsPerHour="119.42996157831146"/>
  <flow id="JF14206" begin="720" fromJunction="J3" toJunction="J0" end="780" vehsPerHour="19.398312824347663"/>
  <flow id="JF14207" begin="720" fromJunction="J4" toJunction="J0" end="780" vehsPerHour="23.37320556543364"/>
  <flow id="JF14208" begin="720" fromJunction="J4" toJunction="J3" end="780" vehsPerHour="62.50815381795168"/>
  <flow id="JF14209" begin="720" fromJunction="J4" toJunction="J5" end="780" vehsPerHour="8.67082368404602"/>