<?xml version="1.0" encoding="UTF-8"?>
<routes xmlns:xsi="http://www.w3.org/2001/XMLSchema-instance" xsi:noNamespaceSchemaLocation="http://sumo.dlr.de/xsd/routes_file.xsd">
  <flow id="JF31321" begin="0" fromJunction="J0" toJunction="J3" end="60" vehsPerHour="49.01853295098814"/>
  <flow id="JF31322" begin="0" fromJunction="J0" toJunction="J4" end="60" vehsPerHour="32.25542592396883"/>
  <flow id="JF31323" begin="0" fromJunction="J0" toJunction="J7" end="60" vehsPerHour="18.23141383036985"/>
  <flow id="JF31324" begin="0" fromJunction="J3" toJunction="J0" end="60" vehsPerHour="46.50198412121298"/>
  <flow id="JF31325" begin="0" fromJunction="J3" toJunction="J4" end="60" vehsPerHour="132.983232327977"/>
  <flow id="JF31326" begin="0" fromJunction="J3" toJunction="J6" end="60" vehsPerHour="31.081688835322066"/>
  <flow id="JF31327" begin="0" fromJunction="J3" toJunction="J7" end="60" vehsPerHour="86.72497327266697"/>
  <flow id="JF31328" begin="0" fromJunction="J4" toJunction="J3" end="60" vehsPerHour="19.396397049541356"/>
  <flow id="JF31329" begin="0" fromJunction="J4" toJunction="J5" end="60" vehsPerHour="61.311231822449315"/>
  <flow id="JF31330" begin="0" fromJunction="J4" toJunction="J6" end="60" vehsPerHour="30.141069080501975"/>
  <flow id="JF31331" begin="0" fromJunction="J4" toJunction="J7" end="60" vehsPerHour="3.947794520817396"/>
  <flow id="JF31332" begin="0" fromJunction="J5" toJunction="J3" end="60" vehsPerHour="29.851270165906225"/>
  <flow id="JF31333" begin="0" fromJunction="J5" toJunction="J6" end="60" vehsPerHour="20.621767722534592"/>
  <flow id="JF31334" begin="0" fromJunction="J5" toJunction="J7" end="60" vehsPerHour="2.4232569957170194"/>
  <flow id="JF31335" begin="0" fromJunction="J6" toJunction="J0" end="60" vehsPerHour="10.497645301447552"/>
  <flow id="JF31336" begin="0" fromJunction="J6" toJunction="J4" end="60" vehsPerHour="66.58703038584055"/>
  <flow id="JF31337" begin="0" fromJunction="J6" toJunction="J7" end="60" vehsPerHour="1.2396180637927128"/>
  <flow id="JF31338" begin="0" fromJunction="J7" toJunction="J3" end="60" vehsPerHour="34.59492890721758"/>
  <flow id="JF31339" begin="0" fromJunction="J7" toJunction="J4" end="60" vehsPerHour="43.24438606706615"/>
  <flow id="JF31340" begin="0" fromJunction="J7" toJunction="J5" end="60" vehsPerHour="55.44104393880722"/>
  <flow id="JF31341" begin="60" fromJunction="J0" toJunction="J3" end="120" vehsPerHour="74.36548792318735"/>
  <flow id="JF31342" begin="60" fromJunction="J0" toJunction="J4" end="120" vehsPerHour="36.824532784993785"/>
  <flow id="JF31343" begin="60" fromJunction="J3" toJunction="J4" end="120" vehsPerHour="115.8787496107812"/>
  <flow id="JF31344" begin="60" fromJunction="J3" toJunction="J6" end="120" vehsPerHour="46.7923479199135"/>
  <flow id="JF31345" begin="60" fromJunction="J4" toJunction="J6" end="120" vehsPerHour="7.876188222898763"/>
  <flow id="JF31346" begin="60" fromJunction="J5" toJunction="J3" end="120" vehsPerHour="64.0130671722461"/>
  <flow id="JF31347" begin="60" fromJunction="J5" toJunction="J4" end="120" vehsPerHour="40.13501472343498"/>
  <flow id="JF31348" begin="60" fromJunction="J5" toJunction="J7" end="120" vehsPerHour="6.431731673378662"/>
  <flow id="JF31349" begin="60" fromJunction="J6" toJunction="J3" end="120" vehsPerHour="51.480888241719875"/>
  <flow id="JF31350" begin="60" fromJunction="J6" toJunction="J4" end="120" vehsPerHour="3.529375387351283"/>
  <flow id="JF31351" begin="60" fromJunction="J6" toJunction="J5" end="120" vehsPerHour="58.65596767988811"/>
  <flow id="JF31352" begin="60" fromJunction="J6" toJunction="J7" end="120" vehsPerHour="11.855905438584946"/>
  <flow id="JF31353" begin="60" fromJunction="J7" toJunction="J3" end="120" vehsPerHour="12.4303950798728"/>
  <flow id="JF31354" begin="60" fromJunction="J7" toJunction="J4" end="120" vehsPerHour="37.24920119756859"/>
  <flow id="JF31355" begin="120" fromJunction="J0" toJunction="J4" end="180" vehsPerHour="115.49343822917727"/>
  <flow id="JF31356" begin="120" fromJunction="J0" toJunction="J5" end="180" vehsPerHour="5.50096235189523"/>
  <flow id="JF31357" begin="120" fromJunction="J0" toJunction="J6" end="180" vehsPerHour="120.751438780485"/>
  <flow id="JF31358" begin="120" fromJunction="J3" toJunction="J0" end="180" vehsPerHour="55.57514414892926"/>
  <flow id="JF31359" begin="120" fromJunction="J3" toJunction="J4" end="180" vehsPerHour="65.76732854107077"/>
  <flow id="JF31360" begin="120" fromJunction="J3" toJunction="J5" end="180" vehsPerHour="134.76504695608142"/>
  <flow id="JF31361" begin="120" fromJunction="J3" toJunction="J6" end="180" vehsPerHour="36.465150915542566"/>
  <flow id="JF31362" begin="120" fromJunction="J3" toJunction="J7" end="180" vehsPerHour="55.69130600855824"/>
  <flow id="JF31363" begin="120" fromJunction="J4" toJunction="J0" end="180" vehsPerHour="29.967259015707107"/>
  <flow id="JF31364" begin="120" fromJunction="J4" toJunction="J5" end="180" vehsPerHour="18.273219072003393"/>
  <flow id="JF31365" begin="120" fromJunction="J4" toJunction="J6" end="180" vehsPerHour="48.388955576280175"/>
  <flow id="JF31366" begin="120" fromJunction="J5" toJunction="J0" end="180" vehsPerHour="23.742378959649947"/>
  <flow id="JF31367" begin="120" fromJunction="J5" toJunction="J3" end="180" vehsPerHour="6.6867768757929955"/>
  <flow id="JF31368" begin="120" fromJunction="J5" toJunction="J4" end="180" vehsPerHour="55.896939874707705"/>
  <flow id="JF31369" begin="120" fromJunction="J6" toJunction="J0" end="180" vehsPerHour="23.613076092956568"/>
  <flow id="JF31370" begin="120" fromJunction="J6" toJunction="J4" end="180" vehsPerHour="42.50732550341119"/>
  <flow id="JF31371" begin="120" fromJunction="J6" toJunction="J5" end="180" vehsPerHour="38.03613946448862"/>
  <flow id="JF31372" begin="120" fromJunction="J6" toJunction="J7" end="180" vehsPerHour="6.083723944774027"/>
  <flow id="JF31373" begin="120" fromJunction="J7" toJunction="J0" end="180" vehsPerHour="10.552691941275631"/>
  <flow id="JF31374" begin="120" fromJunction="J7" toJunction="J3" end="180" vehsPerHour="21.977541971027044"/>
  <flow id="JF31375" begin="120" fromJunction="J7" toJunction="J4" end="180" vehsPerHour="22.09198743225972"/>
  <flow id="JF31376" begin="120" fromJunction="J7" toJunction="J6" end="180" vehsPerHour="36.83452513648945"/>
  <flow id="JF31377" begin="180" fromJunction="J0" toJunction="J5" end="240" vehsPerHour="67.82337536007074"/>
  <flow id="JF31378" begin="180" fromJunction="J0" toJunction="J7" end="240" vehsPerHour="8.54949422766969"/>
  <flow id="JF31379" begin="180" fromJunction="J3" toJunction="J4" end="240" vehsPerHour="51.38100335721573"/>
  <flow id="JF31380" begin="180" fromJunction="J3" toJunction="J5" end="240" vehsPerHour="90.33891513698016"/>
  <flow id="JF31381" begin="180" fromJunction="J3" toJunction="J6" end="240" vehsPerHour="24.986328284457915"/>
  <flow id="JF31382" begin="180" fromJunction="J3" toJunction="J7" end="240" vehsPerHour="87.84048709794742"/>
  <flow id="JF31383" begin="180" fromJunction="J4" toJunction="J0" end="240" vehsPerHour="32.74635928376927"/>
  <flow id="JF31384" begin="180" fromJunction="J4" toJunction="J5" end="240" vehsPerHour="22.597099754375556"/>
  <flow id="JF31385" begin="180" fromJunction="J4" toJunction="J6" end="240" vehsPerHour="34.52644462844045"/>
  <flow id="JF31386" begin="180" fromJunction="J4" toJunction="J7" end="240" vehsPerHour="52.55068875785447"/>
  <flow id="JF31387" begin="180" fromJunction="J5" toJunction="J0" end="240" vehsPerHour="39.99782864184886"/>
  <flow id="JF31388" begin="180" fromJunction="J5" toJunction="J4" end="240" vehsPerHour="6.93394374383382"/>
  <flow id="JF31389" begin="180" fromJunction="J5" toJunction="J6" end="240" vehsPerHour="40.60410092516423"/>
  <flow id="JF31390" begin="180" fromJunction="J6" toJunction="J0" end="240" vehsPerHour="52.39363322352946"/>
  <flow id="JF31391" begin="180" fromJunction="J6" toJunction="J3" end="240" vehsPerHour="32.29329105588563"/>
  <flow id="JF31392" begin="180" fromJunction="J6" toJunction="J7" end="240" vehsPerHour="21.708679955599795"/>
  <flow id="JF31393" begin="180" fromJunction="J7" toJunction="J0" end="240" vehsPerHour="11.385651917572037"/>
  <flow id="JF31394" begin="180" fromJunction="J7" toJunction="J3" end="240" vehsPerHour="17.852024488476175"/>
  <flow id="JF31395" begin="180" fromJunction="J7" toJunction="J5" end="240" vehsPerHour="64.52745101549849"/>
  <flow id="JF31396" begin="240" fromJunction="J0" toJunction="J3" end="300" vehsPerHour="7.545596391077818"/>
  <flow id="JF31397" begin="240" fromJunction="J0" toJunction="J4" end="300" vehsPerHour="106.86138292066842"/>
  <flow id="JF31398" begin="240" fromJunction="J0" toJunction="J7" end="300" vehsPerHour="71.01735874829511"/>
  <flow id="JF31399" begin="240" fromJunction="J3" toJunction="J0" end="300" vehsPerHour="84.62831916411882"/>
  <flow id="JF31400" begin="240" fromJunction="J3" toJunction="J4" end="300" vehsPerHour="131.93444648571656"/>
  <flow id="JF31401" begin="240" fromJunction="J3" toJunction="J5" end="300" vehsPerHour="128.59687991334795"/>
  <flow id="JF31402" begin="240" fromJunction="J3" toJunction="J6" end="300" vehsPerHour="4.197711251907372"/>
  <flow id="JF31403" begin="240" fromJunction="J3" toJunction="J7" end="300" vehsPerHour="105.23480569192955"/>
  <flow id="JF31404" begin="240" fromJunction="J4" toJunction="J3" end="300" vehsPerHour="61.336647295428044"/>
  <flow id="JF31405" begin="240" fromJunction="J4" toJunction="J5" end="300" vehsPerHour="54.79566233128574"/>
  <flow id="JF31406" begin="240" fromJunction="J4" toJunction="J7" end="300" vehsPerHour="9.632886266931674"/>
  <flow id="JF31407" begin="240" fromJunction="J5" toJunction="J0" end="300" vehsPerHour="61.5783859929842"/>
  <flow id="JF31408" begin="240" fromJunction="J5" toJunction="J7" end="300" vehsPerHour="5.658168993902226"/>
  <flow id="JF31409" begin="240" fromJunction="J6" toJunction="J0" end="300" vehsPerHour="11.154301447945494"/>
  <flow id="JF31410" begin="240" fromJunction="J6" toJunction="J3" end="300" vehsPerHour="12.882869537749112"/>
  <flow id="JF31411" begin="240" fromJunction="J6" toJunction="J4" end="300" vehsPerHour="56.584498365691694"/>
  <flow id="JF31412" begin="240" fromJunction="J6" toJunction="J5" end="300" vehsPerHour="51.66733115330083"/>
  <flow id="JF31413" begin="240" fromJunction="J7" toJunction="J0" end="300" vehsPerHour="11.146887173399062"/>
  <flow id="JF31414" begin="240" fromJunction="J7" toJunction="J4" end="300" vehsPerHour="65.95512571426804"/>
  <flow id="JF31415" begin="240" fromJunction="J7" toJunction="J5" end="300" vehsPerHour="59.55783274481806"/>
  <flow id="JF31416" begin="240" fromJunction="J7" toJunction="J6" end="300" vehsPerHour="13.022603286004664"/>
  <flow id="JF31417" begin="300" fromJunction="J0" toJunction="J7" end="360" vehsPerHour="75.16400113426228"/>
  <flow id="JF31418" begin="300" fromJunction="J3" toJunction="J0" end="360" vehsPerHour="111.1642517899756"/>
  <flow id="JF31419" begin="300" fromJunction="J3" toJunction="J5" end="360" vehsPerHour="108.91354235757957"/>
  <flow id="JF31420" begin="300" fromJunction="J3" toJunction="J7" end="360" vehsPerHour="122.77597624250686"/>
  <flow id="JF31421" begin="300" fromJunction="J4" toJunction="J0" end="360" vehsPerHour="10.636907720555934"/>
  <flow id="JF31422" begin="300" fromJunction="J4" toJunction="J3" end="360" vehsPerHour="3.667698620759244"/>
  <flow id="JF31423" begin="300" fromJunction="J4" toJunction="J6" end="360" vehsPerHour="40.96836266962705"/>
  <flow id="JF31424" begin="300" fromJunction="J4" toJunction="J7" end="360" vehsPerHour="42.46076094187852"/>
  <flow id="JF31425" begin="300" fromJunction="J5" toJunction="J0" end="360" vehsPerHour="38.027467172117525"/>
  <flow id="JF31426" begin="300" fromJunction="J5" toJunction="J3" end="360" vehsPerHour="63.548649793152265"/>
  <flow id="JF31427" begin="300" fromJunction="J5" toJunction="J4" end="360" vehsPerHour="8.975736872594316"/>
  <flow id="JF31428" begin="300" fromJunction="J5" toJunction="J6" end="360" vehsPerHour="43.199168522797095"/>
  <flow id="JF31429" begin="300" fromJunction="J5" toJunction="J7" end="360" vehsPerHour="63.50688820256989"/>
  <flow id="JF31430" begin="300" fromJunction="J6" toJunction="J3" end="360" vehsPerHour="61.67467910740783"/>
  <flow id="JF31431" begin="300" fromJunction="J6" toJunction="J4" end="360" vehsPerHour="62.289256057626154"/>
  <flow id="JF31432" begin="300" fromJunction="J6" toJunction="J5" end="360" vehsPerHour="64.2008891338525"/>
  <flow id="JF31433" begin="300" fromJunction="J6" toJunction="J7" end="360" vehsPerHour="42.44398794287708"/>
  <flow id="JF31434" begin="300" fromJunction="J7" toJunction="J0" end="360" vehsPerHour="43.00967146077686"/>
  <flow id="JF31435" begin="300" fromJunction="J7" toJunction="J3" end="360" vehsPerHour="0.6484273858198121"/>
  <flow id="JF31436" begin="300" fromJunction="J7" toJunction="J4" end="360" vehsPerHour="47.28380474856169"/>
  <flow id="JF31437" begin="300" fromJunction="J7" toJunction="J5" end="360" vehsPerHour="41.367870410535915"/>
  <flow id="JF31438" begin="300" fromJunction="J7" toJunction="J6" end="360" vehsPerHour="39.00953764882224"/>
  <flow id="JF31439" begin="360" fromJunction="J0" toJunction="J4" end="420" vehsPerHour="99.61902332452871"/>
  <flow id="JF31440" begin="360" fromJunction="J0" toJunction="J6" end="420" vehsPerHour="63.90067354796342"/>
  <flow id="JF31441" begin="360" fromJunction="J3" toJunction="J0" end="420" vehsPerHour="28.3498639712623"/>
  <flow id="JF31442" begin="360" fromJunction="J3" toJunction="J4" end="420" vehsPerHour="74.1395166594871"/>
  <flow id="JF31443" begin="360" fromJunction="J3" toJunction="J5" end="420" vehsPerHour="91.92563910761807"/>
  <flow id="JF31444" begin="360" fromJunction="J3" toJunction="J6" end="420" vehsPerHour="45.878640437987926"/>
  <flow id="JF31445" begin="360" fromJunction="J3" toJunction="J7" end="420" vehsPerHour="76.26067679495158"/>
  <flow id="JF31446" begin="360" fromJunction="J4" toJunction="J3" end="420" vehsPerHour="25.14181193242421"/>
  <flow id="JF31447" begin="360" fromJunction="J4" toJunction="J5" end="420" vehsPerHour="32.199336772947085"/>
  <flow id="JF31448" begin="360" fromJunction="J4" toJunction="J7" end="420" vehsPerHour="47.84498490516145"/>
  <flow id="JF31449" begin="360" fromJunction="J5" toJunction="J3" end="420" vehsPerHour="34.20034366117199"/>
  <flow id="JF31450" begin="360" fromJunction="J5" toJunction="J4" end="420" vehsPerHour="41.89120198361124"/>
  <flow id="JF31451" begin="360" fromJunction="J5" toJunction="J6" end="420" vehsPerHour="6.2552413189768"/>
  <flow id="JF31452" begin="360" fromJunction="J5" toJunction="J7" end="420" vehsPerHour="61.70136854786087"/>
  <flow id="JF31453" begin="360" fromJunction="J6" toJunction="J3" end="420" vehsPerHour="17.763365511480078"/>
  <flow id="JF31454" begin="360" fromJunction="J6" toJunction="J4" end="420" vehsPerHour="7.98780352118162"/>
  <flow id="JF31455" begin="360" fromJunction="J6" toJunction="J5" end="420" vehsPerHour="28.055446175460304"/>
  <flow id="JF31456" begin="360" fromJunction="J6" toJunction="J7" end="420" vehsPerHour="62.03596400358106"/>
  <flow id="JF31457" begin="360" fromJunction="J7" toJunction="J0" end="420" vehsPerHour="26.525265849814716"/>
  <flow id="JF31458" begin="360" fromJunction="J7" toJunction="J3" end="420" vehsPerHour="36.92812319309901"/>
  <flow id="JF31459" begin="360" fromJunction="J7" toJunction="J5" end="420" vehsPerHour="18.677219113392262"/>
  <flow id="JF31460" begin="360" fromJunction="J7" toJunction="J6" end="420" vehsPerHour="49.21619934403096"/>
  <flow id="JF31461" begin="420" fromJunction="J0" toJunction="J3" end="480" vehsPerHour="93.52153070853822"/>
  <flow id="JF31462" begin="420" fromJunction="J0" toJunction="J5" end="480" vehsPerHour="89.09225526784465"/>
  <flow id="JF31463" begin="420" fromJunction="J0" toJunction="J6" end="480" vehsPerHour="124.0462927612315"/>
  <flow id="JF31464" begin="420" fromJunction="J0" toJunction="J7" end="480" vehsPerHour="17.954558023756725"/>
  <flow id="JF31465" begin="420" fromJunction="J3" toJunction="J0" end="480" vehsPerHour="40.28921892915248"/>
  <flow id="JF31466" begin="420" fromJunction="J3" toJunction="J4" end="480" vehsPerHour="108.6942066054101"/>
  <flow id="JF31467" begin="420" fromJunction="J3" toJunction="J6" end="480" vehsPerHour="101.69972794596664"/>
  <flow id="JF31468" begin="420" fromJunction="J3" toJunction="J7" end="480" vehsPerHour="30.88780324760549"/>
  <flow id="JF31469" begin="420" fromJunction="J4" toJunction="J0" end="480" vehsPerHour="32.94206753492177"/>
  <flow id="JF31470" begin="420" fromJunction="J4" toJunction="J3" end="480" vehsPerHour="63.68248178554165"/>
  <flow id="JF31471" begin="420" fromJunction="J4" toJunction="J5" end="480" vehsPerHour="28.13891216427531"/>
  <flow id="JF31472" begin="420" fromJunction="J4" toJunction="J6" end="480" vehsPerHour="21.595436461488347"/>
  <flow id="JF31473" begin="420" fromJunction="J4" toJunction="J7" end="480" vehsPerHour="2.595398245284477"/>
  <flow id="JF31474" begin="420" fromJunction="J5" toJunction="J0" end="480" vehsPerHour="58.18460745693338"/>
  <flow id="JF31475" begin="420" fromJunction="J5" toJunction="J3" end="480" vehsPerHour="55.53223268743508"/>
  <flow id="JF31476" begin="420" fromJunction="J5" toJunction="J4" end="480" vehsPerHour="65.05689074275638"/>
  <flow id="JF31477" begin="420" fromJunction="J5" toJunction="J6" end="480" vehsPerHour="52.811157767453096"/>
  <flow id="JF31478" begin="420" fromJunction="J6" toJunction="J0" end="480" vehsPerHour="1.958828621582918"/>
  <flow id="JF31479" begin="420" fromJunction="J6" toJunction="J3" end="480" vehsPerHour="33.99303712488192"/>
  <flow id="JF31480" begin="420" fromJunction="J6" toJunction="J5" end="480" vehsPerHour="24.375301168527344"/>
  <flow id="JF31481" begin="420" fromJunction="J6" toJunction="J7" end="480" vehsPerHour="13.195689624517344"/>
  <flow id="JF31482" begin="420" fromJunction="J7" toJunction="J0" end="480" vehsPerHour="41.38112717289008"/>
  <flow id="JF31483" begin="420" fromJunction="J7" toJunction="J3" end="480" vehsPerHour="41.24470075212649"/>
  <flow id="JF31484" begin="480" fromJunction="J0" toJunction="J4" end="540" vehsPerHour="127.48415534351037"/>
  <flow id="JF31485" begin="480" fromJunction="J3" toJunction="J0" end="540" vehsPerHour="9.502573009871195"/>
  <flow id="JF31486" begin="480" fromJunction="J3" toJunction="J4" end="540" vehsPerHour="25.095774556682887"/>
  <flow id="JF31487" begin="480" fromJunction="J3" toJunction="J5" end="540" vehsPerHour="62.11002215935045"/>
  <flow id="JF31488" begin="480" fromJunction="J3" toJunction="J6" end="540" vehsPerHour="75.94262673506529"/>
  <flow id="JF31489" begin="480" fromJunction="J3" toJunction="J7" end="540" vehsPerHour="48.77023273777984"/>
  <flow id="JF31490" begin="480" fromJunction="J4" toJunction="J0" end="540" vehsPerHour="39.711597380450776"/>
  <flow id="JF31491" begin="480" fromJunction="J4" toJunction="J5" end="540" vehsPerHour="45.34702359583879"/>
  <flow id="JF31492" begin="480" fromJunction="J4" toJunction="J7" end="540" vehsPerHour="60.816409495268246"/>
  <flow id="JF31493" begin="480" fromJunction="J5" toJunction="J0" end="540" vehsPerHour="32.34591173451082"/>
  <flow id="JF31494" begin="480" fromJunction="J5" toJunction="J4" end="540" vehsPerHour="19.97724537189802"/>
  <flow id="JF31495" begin="480" fromJunction="J5" toJunction="J6" end="540" vehsPerHour="2.7047971834705336"/>
  <flow id="JF31496" begin="480" fromJunction="J5" toJunction="J7" end="540" vehsPerHour="7.407166944184037"/>
  <flow id="JF31497" begin="480" fromJunction="J6" toJunction="J0" end="540" vehsPerHour="21.11797446241262"/>
  <flow id="JF31498" begin="480" fromJunction="J6" toJunction="J5" end="540" vehsPerHour="62.78806015269879"/>
  <flow id="JF31499" begin="480" fromJunction="J7" toJunction="J0" end="540" vehsPerHour="51.396195684833266"/>
  <flow id="JF31500" begin="480" fromJunction="J7" toJunction="J4" end="540" vehsPerHour="2.1697904417929155"/>
  <flow id="JF31501" begin="480" fromJunction="J7" toJunction="J5" end="540" vehsPerHour="19.300047356155353"/>
  <flow id="JF31502" begin="480" fromJunction="J7" toJunction="J6" end="540" vehsPerHour="0.19320894428035876"/>
  <flow id="JF31503" begin="540" fromJunction="J0" toJunction="J3" end="600" vehsPerHour="109.75157593693844"/>
  <flow id="JF31504" begin="540" fromJunction="J0" toJunction="J5" end="600" vehsPerHour="108.70572860890506"/>
  <flow id="JF31505" begin="540" fromJunction="J0" toJunction="J7" end="600" vehsPerHour="35.17370653067406"/>
  <flow id="JF31506" begin="540" fromJunction="J3" toJunction="J0" end="600" vehsPerHour="80.76001492651041"/>
  <flow id="JF31507" begin="540" fromJunction="J3" toJunction="J4" end="600" vehsPerHour="37.823574762390756"/>
  <flow id="JF31508" begin="540" fromJunction="J3" toJunction="J5" end="600" vehsPerHour="118.374504943569"/>
  <flow id="JF31509" begin="540" fromJunction="J3" toJunction="J6" end="600" vehsPerHour="35.84686356420961"/>
  <flow id="JF31510" begin="540" fromJunction="J4" toJunction="J3" end="600" vehsPerHour="32.75352532247436"/>
  <flow id="JF31511" begin="540" fromJunction="J4" toJunction="J6" end="600" vehsPerHour="22.63870140345458"/>
  <flow id="JF31512" begin="540" fromJunction="J5" toJunction="J3" end="600" vehsPerHour="18.71964012103512"/>
  <flow id="JF31513" begin="540" fromJunction="J5" toJunction="J4" end="600" vehsPerHour="63.63352851227376"/>
  <flow id="JF31514" begin="540" fromJunction="J5" toJunction="J6" end="600" vehsPerHour="45.067607210559125"/>
  <flow id="JF31515" begin="540" fromJunction="J5" toJunction="J7" end="600" vehsPerHour="32.391910542935925"/>
  <flow id="JF31516" begin="540" fromJunction="J6" toJunction="J0" end="600" vehsPerHour="31.26466674250967"/>
  <flow id="JF31517" begin="540" fromJunction="J6" toJunction="J4" end="600" vehsPerHour="28.99181364360456"/>
  <flow id="JF31518" begin="540" fromJunction="J6" toJunction="J5" end="600" vehsPerHour="1.103523205658932"/>
  <flow id="JF31519" begin="540" fromJunction="J6" toJunction="J7" end="600" vehsPerHour="3.8422043081108144"/>
  <flow id="JF31520" begin="540" fromJunction="J7" toJunction="J3" end="600" vehsPerHour="43.94597998833858"/>
  <flow id="JF31521" begin="540" fromJunction="J7" toJunction="J4" end="600" vehsPerHour="34.46409947976047"/>
  <flow id="JF31522" begin="540" fromJunction="J7" toJunction="J5" end="600" vehsPerHour="37.87761106330164"/>
  <flow id="JF31523" begin="540" fromJunction="J7" toJunction="J6" end="600" vehsPerHour="50.49441159714845"/>
  <flow id="JF31524" begin="600" fromJunction="J0" toJunction="J4" end="660" vehsPerHour="99.25722933144235"/>
  <flow id="JF31525" begin="600" fromJunction="J0" toJunction="J5" end="660" vehsPerHour="32.753252973407996"/>
  <flow id="JF31526" begin="600" fromJunction="J0" toJunction="J6" end="660" vehsPerHour="4.943072178917001"/>
  <flow id="JF31527" begin="600" fromJunction="J0" toJunction="J7" end="660" vehsPerHour="116.02490370309945"/>
  <flow id="JF31528" begin="600" fromJunction="J3" toJunction="J4" end="660" vehsPerHour="94.3653522399449"/>
  <flow id="JF31529" begin="600" fromJunction="J3" toJunction="J5" end="660" vehsPerHour="84.18504532542944"/>
  <flow id="JF31530" begin="600" fromJunction="J3" toJunction="J6" end="660" vehsPerHour="56.929858897393736"/>
  <flow id="JF31531" begin="600" fromJunction="J4" toJunction="J0" end="660" vehsPerHour="20.42856375882771"/>
  <flow id="JF31532" begin="600" fromJunction="J4" toJunction="J3" end="660" vehsPerHour="19.774690156670353"/>
  <flow id="JF31533" begin="600" fromJunction="J4" toJunction="J5" end="660" vehsPerHour="35.74863243697632"/>
  <flow id="JF31534" begin="600" fromJunction="J4" toJunction="J7" end="660" vehsPerHour="4.278209373968437"/>
  <flow id="JF31535" begin="600" fromJunction="J5" toJunction="J0" end="660" vehsPerHour="48.427214634314836"/>
  <flow id="JF31536" begin="600" fromJunction="J5" toJunction="J3" end="660" vehsPerHour="37.776961411591635"/>
  <flow id="JF31537" begin="600" fromJunction="J5" toJunction="J4" end="660" vehsPerHour="29.212977127678887"/>
  <flow id="JF31538" begin="600" fromJunction="J5" toJunction="J7" end="660" vehsPerHour="46.91907086912913"/>
  <flow id="JF31539" begin="600" fromJunction="J6" toJunction="J3" end="660" vehsPerHour="26.853640230355484"/>
  <flow id="JF31540" begin="600" fromJunction="J6" toJunction="J4" end="660" vehsPerHour="24.301945099592825"/>
  <flow id="JF31541" begin="600" fromJunction="J6" toJunction="J7" end="660" vehsPerHour="37.49747100992778"/>
  <flow id="JF31542" begin="600" fromJunction="J7" toJunction="J0" end="660" vehsPerHour="20.404378668155452"/>
  <flow id="JF31543" begin="600" fromJunction="J7" toJunction="J3" end="660" vehsPerHour="11.495582376111669"/>
  <flow id="JF31544" begin="600" fromJunction="J7" toJunction="J4" end="660" vehsPerHour="17.786388199733874"/>
  <flow id="JF31545" begin="600" fromJunction="J7" toJunction="J6" end="660" vehsPerHour="1.1944914177296295"/>
  <flow id="JF31546" begin="660" fromJunction="J0" toJunction="J3" end="720" vehsPerHour="8.479035007264258"/>
  <flow id="JF31547" begin="660" fromJunction="J0" toJunction="J4" end="720" vehsPerHour="99.67890406080122"/>
  <flow id="JF31548" begin="660" fromJunction="J0" toJunction="J5" end="720" vehsPerHour="107.74009181990256"/>
  <flow id="JF31549" begin="660" fromJunction="J0" toJunction="J6" end="720" vehsPerHour="103.19531987375584"/>
  <flow id="JF31550" begin="660" fromJunction="J3" toJunction="J0" end="720" vehsPerHour="64.11576610347748"/>
  <flow id="JF31551" begin="660" fromJunction="J3" toJunction="J4" end="720" vehsPerHour="82.82096458281985"/>
  <flow id="JF31552" begin="660" fromJunction="J3" toJunction="J5" end="720" vehsPerHour="56.24393154993527"/>
  <flow id="JF31553" begin="660" fromJunction="J3" toJunction="J6" end="720" vehsPerHour="51.61196707188418"/>
  <flow id="JF31554" begin="660" fromJunction="J3" toJunction="J7" end="720" vehsPerHour="46.21553041145245"/>
  <flow id="JF31555" begin="660" fromJunction="J4" toJunction="J0" end="720" vehsPerHour="19.42064647518414"/>
  <flow id="JF31556" begin="660" fromJunction="J4" toJunction="J3" end="720" vehsPerHour="67.57785911086569"/>
  <flow id="JF31557" begin="660" fromJunction="J4" toJunction="J5" end="720" vehsPerHour="9.466482588142023"/>
  <flow id="JF31558" begin="660" fromJunction="J4" toJunction="J6" end="720" vehsPerHour="18.03433672064772"/>
  <flow id="JF31559" begin="660" fromJunction="J4" toJunction="J7" end="720" vehsPerHour="7.632008298275072"/>
  <flow id="JF31560" begin="660" fromJunction="J5" toJunction="J0" end="720" vehsPerHour="40.46752254973428"/>
  <flow id="JF31561" begin="660" fromJunction="J5" toJunction="J3" end="720" vehsPerHour="24.01218004023777"/>
  <flow id="JF31562" begin="660" fromJunction="J5" toJunction="J4" end="720" vehsPerHour="58.51200682809846"/>
  <flow id="JF31563" begin="660" fromJunction="J5" toJunction="J7" end="720" vehsPerHour="65.65543397895377"/>
  <flow id="JF31564" begin="660" fromJunction="J6" toJunction="J0" end="720" vehsPerHour="44.26411347770908"/>
  <flow id="JF31565" begin="660" fromJunction="J6" toJunction="J3" end="720" vehsPerHour="1.5143683744185994"/>
  <flow id="JF31566" begin="660" fromJunction="J6" toJunction="J4" end="720" vehsPerHour="22.325622707132222"/>
  <flow id="JF31567" begin="660" fromJunction="J7" toJunction="J0" end="720" vehsPerHour="27.475828989363826"/>
  <flow id="JF31568" begin="660" fromJunction="J7" toJunction="J3" end="720" vehsPerHour="7.951308172177554"/>
  <flow id="JF31569" begin="660" fromJunction="J7" toJunction="J4" end="720" vehsPerHour="58.248308664157406"/>
  <flow id="JF31570" begin="720" fromJunction="J0" toJunction="J3" end="780" vehsPerHour="68.21492089947009"/>
  <flow id="JF31571" begin="720" fromJunction="J0" toJunction="J4" end="780" vehsPerHour="135.8684727685751"/>
  <flow id="JF31572" begin="720" fromJunction="J0" toJunction="J6" end="780" vehsPerHour="128.3170950563254"/>
  <flow id="JF31573" begin="720" fromJunction="J0" toJunction="J7" end="780" vehsPerHour="90.71586912174607"/>
  <flow id="JF31574" begin="720" fromJunction="J3" toJunction="J4" end="780" vehsPerHour="103.69249968714922"/>
  <flow id="JF31575" begin="720" fromJunction="J3" toJunction="J5" end="780" vehsPerHour="133.02482312175536"/>
  <flow id="JF31576" begin="720" fromJunction="J3" toJunction="J6" end="780" vehsPerHour="79.50986916681559"/>
  <flow id="JF31577" begin="720" fromJunction="J4" toJunction="J0" end="780" vehsPerHour="0.3201627359992332"/>
  <flow id="JF31578" begin="720" fromJunction="J4" toJunction="J3" end="780" vehsPerHour="22.77297934387556"/>
  <flow id="JF31579" begin="720" fromJunction="J4" toJunction="J6" end="780" vehsPerHour="27.30270302721625"/>
  <flow id="JF31580" begin="720" fromJunction="J4" toJunction="J7" end="780" vehsPerHour="17.652576971606127"/>
  <flow id="JF31581" begin="720" fromJunction="J5" toJunction="J3" end="780" vehsPerHour="39.48399444390635"/>
  <flow id="JF31582" begin="720" fromJunction="J5" toJunction="J4" end="780" vehsPerHour="39.684252000899484"/>
  <flow id="JF31583" begin="720" fromJunction="J5" toJunction="J6" end="780" vehsPerHour="13.226635005741853"/>
  <flow id="JF31584" begin="720" fromJunction="J5" toJunction="J7" end="780" vehsPerHour="18.35260397064181"/>
  <flow id="JF31585" begin="720" fromJunction="J6" toJunction="J4" end="780" vehsPerHour="59.51426076386829"/>
  <flow id="JF31586" begin="720" fromJunction="J6" toJunction="J5" end="780" vehsPerHour="4.009957360922844"/>
  <flow id="JF31587" begin="720" fromJunction="J7" toJunction="J0" end="780" vehsPerHour="44.60348937569731"/>
  <flow id="JF31588" begin="720" fromJunction="J7" toJunction="J3" end="780" vehsPerHour="34.74602937062743"/>