<?xml version="1.0" encoding="UTF-8"?>
<routes xmlns:xsi="http://www.w3.org/2001/XMLSchema-instance" xsi:noNamespaceSchemaLocation="http://sumo.dlr.de/xsd/routes_file.xsd">
  <flow id="JF27785" begin="0" fromJunction="J0" toJunction="J3" end="60" vehsPerHour="41.74919210337733"/>
  <flow id="JF27786" begin="0" fromJunction="J0" toJunction="J5" end="60" vehsPerHour="12.325099691467168"/>
  <flow id="JF27787" begin="0" fromJunction="J0" toJunction="J7" end="60" vehsPerHour="15.192725685628924"/>
  <flow id="JF27788" begin="0" fromJunction="J3" toJunction="J4" end="60" vehsPerHour="118.06697256478438"/>
  <flow id="JF27789" begin="0" fromJunction="J3" toJunction="J5" end="60" vehsPerHour="51.54537342617141"/>
  <flow id="JF27790" begin="0" fromJunction="J3" toJunction="J6" end="60" vehsPerHour="123.99794640447847"/>
  <flow id="JF27791" begin="0" fromJunction="J4" toJunction="J0" end="60" vehsPerHour="36.79434398597597"/>
  <flow id="JF27792" begin="0" fromJunction="J4" toJunction="J3" end="60" vehsPerHour="10.636015077547313"/>
  <flow id="JF27793" begin="0" fromJunction="J4" toJunction="J5" end="60" vehsPerHour="4.79611619560416"/>
  <flow id="JF27794" begin="0" fromJunction="J4" toJunction="J7" end="60" vehsPerHour="54.58696836556913"/>
  <flow id="JF27795" begin="0" fromJunction="J5" toJunction="J0" end="60" vehsPerHour="63.13682763956943"/>
  <flow id="JF27796" begin="0" fromJunction="J5" toJunction="J3" end="60" vehsPerHour="43.595234670522025"/>
  <flow id="JF27797" begin="0" fromJunction="J5" toJunction="J4" end="60" vehsPerHour="31.49323719515872"/>
  <flow id="JF27798" begin="0" fromJunction="J6" toJunction="J0" end="60" vehsPerHour="58.0424407251876"/>
  <flow id="JF27799" begin="0" fromJunction="J6" toJunction="J4" end="60" vehsPerHour="18.368339059382098"/>
  <flow id="JF27800" begin="0" fromJunction="J6" toJunction="J5" end="60" vehsPerHour="29.199494153784556"/>
  <flow id="JF27801" begin="0" fromJunction="J6" toJunction="J7" end="60" vehsPerHour="28.27644266465015"/>
  <flow id="JF27802" begin="0" fromJunction="J7" toJunction="J0" end="60" vehsPerHour="25.014065470994936"/>
  <flow id="JF27803" begin="0" fromJunction="J7" toJunction="J3" end="60" vehsPerHour="5.162053200397522"/>
  <flow id="JF27804" begin="0" fromJunction="J7" toJunction="J5" end="60" vehsPerHour="60.267771345016115"/>
  <flow id="JF27805" begin="60" fromJunction="J0" toJunction="J3" end="120" vehsPerHour="1.5663160146248938"/>
  <flow id="JF27806" begin="60" fromJunction="J0" toJunction="J4" end="120" vehsPerHour="54.65488081474555"/>
  <flow id="JF27807" begin="60" fromJunction="J0" toJunction="J5" end="120" vehsPerHour="17.42187706543627"/>
  <flow id="JF27808" begin="60" fromJunction="J0" toJunction="J6" end="120" vehsPerHour="134.64435336808617"/>
  <flow id="JF27809" begin="60" fromJunction="J0" toJunction="J7" end="120" vehsPerHour="41.87416773043162"/>
  <flow id="JF27810" begin="60" fromJunction="J3" toJunction="J4" end="120" vehsPerHour="134.50863290054738"/>
  <flow id="JF27811" begin="60" fromJunction="J3" toJunction="J5" end="120" vehsPerHour="129.99563217362137"/>
  <flow id="JF27812" begin="60" fromJunction="J3" toJunction="J6" end="120" vehsPerHour="59.970495149161344"/>
  <flow id="JF27813" begin="60" fromJunction="J3" toJunction="J7" end="120" vehsPerHour="73.61796540068525"/>
  <flow id="JF27814" begin="60" fromJunction="J4" toJunction="J0" end="120" vehsPerHour="13.542380104534624"/>
  <flow id="JF27815" begin="60" fromJunction="J4" toJunction="J3" end="120" vehsPerHour="31.35331070470088"/>
  <flow id="JF27816" begin="60" fromJunction="J4" toJunction="J5" end="120" vehsPerHour="45.14854087539463"/>
  <flow id="JF27817" begin="60" fromJunction="J4" toJunction="J6" end="120" vehsPerHour="16.473927448624732"/>
  <flow id="JF27818" begin="60" fromJunction="J4" toJunction="J7" end="120" vehsPerHour="8.054366295986103"/>
  <flow id="JF27819" begin="60" fromJunction="J5" toJunction="J0" end="120" vehsPerHour="42.23317534081976"/>
  <flow id="JF27820" begin="60" fromJunction="J5" toJunction="J3" end="120" vehsPerHour="29.729297201757134"/>
  <flow id="JF27821" begin="60" fromJunction="J5" toJunction="J4" end="120" vehsPerHour="48.882514646659686"/>
  <flow id="JF27822" begin="60" fromJunction="J5" toJunction="J6" end="120" vehsPerHour="48.98433761193245"/>
  <flow id="JF27823" begin="60" fromJunction="J5" toJunction="J7" end="120" vehsPerHour="55.62039769753602"/>
  <flow id="JF27824" begin="60" fromJunction="J6" toJunction="J3" end="120" vehsPerHour="67.04159013315746"/>
  <flow id="JF27825" begin="60" fromJunction="J6" toJunction="J4" end="120" vehsPerHour="42.19370178173401"/>
  <flow id="JF27826" begin="60" fromJunction="J6" toJunction="J5" end="120" vehsPerHour="64.211089915476"/>
  <flow id="JF27827" begin="60" fromJunction="J7" toJunction="J0" end="120" vehsPerHour="2.659984162362481"/>
  <flow id="JF27828" begin="60" fromJunction="J7" toJunction="J4" end="120" vehsPerHour="28.371217726549858"/>
  <flow id="JF27829" begin="60" fromJunction="J7" toJunction="J5" end="120" vehsPerHour="50.12146198701931"/>
  <flow id="JF27830" begin="120" fromJunction="J0" toJunction="J3" end="180" vehsPerHour="57.1459170301582"/>
  <flow id="JF27831" begin="120" fromJunction="J0" toJunction="J4" end="180" vehsPerHour="97.30019095306608"/>
  <flow id="JF27832" begin="120" fromJunction="J0" toJunction="J5" end="180" vehsPerHour="21.358783758324137"/>
  <flow id="JF27833" begin="120" fromJunction="J0" toJunction="J7" end="180" vehsPerHour="113.46550052172067"/>
  <flow id="JF27834" begin="120" fromJunction="J3" toJunction="J4" end="180" vehsPerHour="31.714503595513307"/>
  <flow id="JF27835" begin="120" fromJunction="J3" toJunction="J5" end="180" vehsPerHour="133.82995112035425"/>
  <flow id="JF27836" begin="120" fromJunction="J3" toJunction="J6" end="180" vehsPerHour="38.56884013672181"/>
  <flow id="JF27837" begin="120" fromJunction="J3" toJunction="J7" end="180" vehsPerHour="65.48893560897145"/>
  <flow id="JF27838" begin="120" fromJunction="J4" toJunction="J0" end="180" vehsPerHour="66.78079924543172"/>
  <flow id="JF27839" begin="120" fromJunction="J4" toJunction="J3" end="180" vehsPerHour="53.559310549050764"/>
  <flow id="JF27840" begin="120" fromJunction="J4" toJunction="J6" end="180" vehsPerHour="16.80326284972412"/>
  <flow id="JF27841" begin="120" fromJunction="J4" toJunction="J7" end="180" vehsPerHour="67.02991316074281"/>
  <flow id="JF27842" begin="120" fromJunction="J5" toJunction="J0" end="180" vehsPerHour="67.5020883615634"/>
  <flow id="JF27843" begin="120" fromJunction="J5" toJunction="J3" end="180" vehsPerHour="15.690511000148204"/>
  <flow id="JF27844" begin="120" fromJunction="J5" toJunction="J4" end="180" vehsPerHour="33.64250496122378"/>
  <flow id="JF27845" begin="120" fromJunction="J5" toJunction="J7" end="180" vehsPerHour="20.148540097421893"/>
  <flow id="JF27846" begin="120" fromJunction="J6" toJunction="J0" end="180" vehsPerHour="30.15884594784027"/>
  <flow id="JF27847" begin="120" fromJunction="J6" toJunction="J3" end="180" vehsPerHour="62.81664560681415"/>
  <flow id="JF27848" begin="120" fromJunction="J6" toJunction="J4" end="180" vehsPerHour="51.24990131631021"/>
  <flow id="JF27849" begin="120" fromJunction="J6" toJunction="J5" end="180" vehsPerHour="48.39788551040318"/>
  <flow id="JF27850" begin="120" fromJunction="J7" toJunction="J0" end="180" vehsPerHour="62.22578998662955"/>
  <flow id="JF27851" begin="120" fromJunction="J7" toJunction="J4" end="180" vehsPerHour="56.41262888761751"/>
  <flow id="JF27852" begin="120" fromJunction="J7" toJunction="J5" end="180" vehsPerHour="43.38092840528049"/>
  <flow id="JF27853" begin="120" fromJunction="J7" toJunction="J6" end="180" vehsPerHour="43.209392674835"/>
  <flow id="JF27854" begin="180" fromJunction="J0" toJunction="J4" end="240" vehsPerHour="2.9572017557509604"/>
  <flow id="JF27855" begin="180" fromJunction="J0" toJunction="J5" end="240" vehsPerHour="115.73081700658737"/>
  <flow id="JF27856" begin="180" fromJunction="J0" toJunction="J6" end="240" vehsPerHour="77.34442362734461"/>
  <flow id="JF27857" begin="180" fromJunction="J0" toJunction="J7" end="240" vehsPerHour="27.00119913771609"/>
  <flow id="JF27858" begin="180" fromJunction="J3" toJunction="J0" end="240" vehsPerHour="92.60390516627207"/>
  <flow id="JF27859" begin="180" fromJunction="J3" toJunction="J4" end="240" vehsPerHour="98.136278423649"/>
  <flow id="JF27860" begin="180" fromJunction="J3" toJunction="J5" end="240" vehsPerHour="71.77226875647588"/>
  <flow id="JF27861" begin="180" fromJunction="J3" toJunction="J6" end="240" vehsPerHour="80.29091947538738"/>
  <flow id="JF27862" begin="180" fromJunction="J3" toJunction="J7" end="240" vehsPerHour="80.41138851469914"/>
  <flow id="JF27863" begin="180" fromJunction="J4" toJunction="J0" end="240" vehsPerHour="57.179864102424716"/>
  <flow id="JF27864" begin="180" fromJunction="J4" toJunction="J3" end="240" vehsPerHour="44.52416925059784"/>
  <flow id="JF27865" begin="180" fromJunction="J4" toJunction="J6" end="240" vehsPerHour="20.000752366468735"/>
  <flow id="JF27866" begin="180" fromJunction="J4" toJunction="J7" end="240" vehsPerHour="15.67251668750014"/>
  <flow id="JF27867" begin="180" fromJunction="J5" toJunction="J0" end="240" vehsPerHour="22.058557094600616"/>
  <flow id="JF27868" begin="180" fromJunction="J5" toJunction="J3" end="240" vehsPerHour="22.864310676736512"/>
  <flow id="JF27869" begin="180" fromJunction="J5" toJunction="J4" end="240" vehsPerHour="18.12289344467015"/>
  <flow id="JF27870" begin="180" fromJunction="J5" toJunction="J6" end="240" vehsPerHour="39.01495738200653"/>
  <flow id="JF27871" begin="180" fromJunction="J5" toJunction="J7" end="240" vehsPerHour="53.05531747232186"/>
  <flow id="JF27872" begin="180" fromJunction="J6" toJunction="J0" end="240" vehsPerHour="52.335855933102025"/>
  <flow id="JF27873" begin="180" fromJunction="J6" toJunction="J3" end="240" vehsPerHour="2.3002407109423166"/>
  <flow id="JF27874" begin="180" fromJunction="J6" toJunction="J4" end="240" vehsPerHour="35.975262277509955"/>
  <flow id="JF27875" begin="180" fromJunction="J6" toJunction="J7" end="240" vehsPerHour="2.30459228884036"/>
  <flow id="JF27876" begin="180" fromJunction="J7" toJunction="J0" end="240" vehsPerHour="62.47052168349595"/>
  <flow id="JF27877" begin="180" fromJunction="J7" toJunction="J3" end="240" vehsPerHour="33.6361008408907"/>
  <flow id="JF27878" begin="180" fromJunction="J7" toJunction="J5" end="240" vehsPerHour="4.175128541652661"/>
  <flow id="JF27879" begin="240" fromJunction="J0" toJunction="J4" end="300" vehsPerHour="32.02087944345198"/>
  <flow id="JF27880" begin="240" fromJunction="J0" toJunction="J5" end="300" vehsPerHour="93.64630830769946"/>
  <flow id="JF27881" begin="240" fromJunction="J0" toJunction="J6" end="300" vehsPerHour="66.72234988317332"/>
  <flow id="JF27882" begin="240" fromJunction="J0" toJunction="J7" end="300" vehsPerHour="90.06698619705362"/>
  <flow id="JF27883" begin="240" fromJunction="J3" toJunction="J0" end="300" vehsPerHour="25.50326328696171"/>
  <flow id="JF27884" begin="240" fromJunction="J3" toJunction="J5" end="300" vehsPerHour="45.22922015901768"/>
  <flow id="JF27885" begin="240" fromJunction="J4" toJunction="J3" end="300" vehsPerHour="27.544055590851176"/>
  <flow id="JF27886" begin="240" fromJunction="J4" toJunction="J5" end="300" vehsPerHour="48.55090875598775"/>
  <flow id="JF27887" begin="240" fromJunction="J4" toJunction="J6" end="300" vehsPerHour="44.184329616986744"/>
  <flow id="JF27888" begin="240" fromJunction="J5" toJunction="J0" end="300" vehsPerHour="67.81732533383173"/>
  <flow id="JF27889" begin="240" fromJunction="J5" toJunction="J3" end="300" vehsPerHour="56.118823842591105"/>
  <flow id="JF27890" begin="240" fromJunction="J5" toJunction="J4" end="300" vehsPerHour="45.66489506619099"/>
  <flow id="JF27891" begin="240" fromJunction="J5" toJunction="J6" end="300" vehsPerHour="26.39088023278096"/>
  <flow id="JF27892" begin="240" fromJunction="J5" toJunction="J7" end="300" vehsPerHour="7.330541303942329"/>
  <flow id="JF27893" begin="240" fromJunction="J6" toJunction="J0" end="300" vehsPerHour="50.16867398200997"/>
  <flow id="JF27894" begin="240" fromJunction="J6" toJunction="J3" end="300" vehsPerHour="42.49532463512304"/>
  <flow id="JF27895" begin="240" fromJunction="J6" toJunction="J4" end="300" vehsPerHour="61.086651685241094"/>
  <flow id="JF27896" begin="240" fromJunction="J6" toJunction="J5" end="300" vehsPerHour="15.236246997802859"/>
  <flow id="JF27897" begin="240" fromJunction="J7" toJunction="J0" end="300" vehsPerHour="24.817887658154355"/>
  <flow id="JF27898" begin="240" fromJunction="J7" toJunction="J3" end="300" vehsPerHour="8.016441925577032"/>
  <flow id="JF27899" begin="240" fromJunction="J7" toJunction="J4" end="300" vehsPerHour="55.474321922968095"/>
  <flow id="JF27900" begin="240" fromJunction="J7" toJunction="J6" end="300" vehsPerHour="13.785153832895777"/>
  <flow id="JF27901" begin="300" fromJunction="J0" toJunction="J4" end="360" vehsPerHour="104.28984653089421"/>
  <flow id="JF27902" begin="300" fromJunction="J0" toJunction="J5" end="360" vehsPerHour="60.20567459500719"/>
  <flow id="JF27903" begin="300" fromJunction="J0" toJunction="J6" end="360" vehsPerHour="83.40980378504459"/>
  <flow id="JF27904" begin="300" fromJunction="J0" toJunction="J7" end="360" vehsPerHour="98.31605221144333"/>
  <flow id="JF27905" begin="300" fromJunction="J3" toJunction="J0" end="360" vehsPerHour="24.47682476077934"/>
  <flow id="JF27906" begin="300" fromJunction="J3" toJunction="J4" end="360" vehsPerHour="61.76127514826237"/>
  <flow id="JF27907" begin="300" fromJunction="J3" toJunction="J5" end="360" vehsPerHour="120.15981499391057"/>
  <flow id="JF27908" begin="300" fromJunction="J3" toJunction="J6" end="360" vehsPerHour="5.465426562488734"/>
  <flow id="JF27909" begin="300" fromJunction="J3" toJunction="J7" end="360" vehsPerHour="49.02417173715062"/>
  <flow id="JF27910" begin="300" fromJunction="J4" toJunction="J0" end="360" vehsPerHour="13.918914689542554"/>
  <flow id="JF27911" begin="300" fromJunction="J4" toJunction="J3" end="360" vehsPerHour="36.18210397952416"/>
  <flow id="JF27912" begin="300" fromJunction="J4" toJunction="J5" end="360" vehsPerHour="44.306651090407016"/>
  <flow id="JF27913" begin="300" fromJunction="J4" toJunction="J7" end="360" vehsPerHour="26.00972528505756"/>
  <flow id="JF27914" begin="300" fromJunction="J5" toJunction="J0" end="360" vehsPerHour="53.14678568510954"/>
  <flow id="JF27915" begin="300" fromJunction="J5" toJunction="J3" end="360" vehsPerHour="48.218725813922056"/>
  <flow id="JF27916" begin="300" fromJunction="J5" toJunction="J6" end="360" vehsPerHour="39.77825329230914"/>
  <flow id="JF27917" begin="300" fromJunction="J5" toJunction="J7" end="360" vehsPerHour="64.00858556526303"/>
  <flow id="JF27918" begin="300" fromJunction="J6" toJunction="J0" end="360" vehsPerHour="2.7455124174153065"/>
  <flow id="JF27919" begin="300" fromJunction="J6" toJunction="J3" end="360" vehsPerHour="24.835339896549165"/>
  <flow id="JF27920" begin="300" fromJunction="J6" toJunction="J4" end="360" vehsPerHour="56.713985789009804"/>
  <flow id="JF27921" begin="300" fromJunction="J6" toJunction="J5" end="360" vehsPerHour="0.5711833717226292"/>
  <flow id="JF27922" begin="300" fromJunction="J6" toJunction="J7" end="360" vehsPerHour="2.3708337430690167"/>
  <flow id="JF27923" begin="300" fromJunction="J7" toJunction="J0" end="360" vehsPerHour="39.71183383492082"/>
  <flow id="JF27924" begin="300" fromJunction="J7" toJunction="J6" end="360" vehsPerHour="9.960456195525204"/>
  <flow id="JF27925" begin="360" fromJunction="J0" toJunction="J4" end="420" vehsPerHour="52.113684190387275"/>
  <flow id="JF27926" begin="360" fromJunction="J0" toJunction="J5" end="420" vehsPerHour="56.24060785401951"/>
  <flow id="JF27927" begin="360" fromJunction="J0" toJunction="J6" end="420" vehsPerHour="79.21612891132223"/>
  <flow id="JF27928" begin="360" fromJunction="J0" toJunction="J7" end="420" vehsPerHour="67.46826062870389"/>
  <flow id="JF27929" begin="360" fromJunction="J3" toJunction="J0" end="420" vehsPerHour="61.2801595077863"/>
  <flow id="JF27930" begin="360" fromJunction="J3" toJunction="J4" end="420" vehsPerHour="55.42095494898699"/>
  <flow id="JF27931" begin="360" fromJunction="J3" toJunction="J5" end="420" vehsPerHour="125.58174340170905"/>
  <flow id="JF27932" begin="360" fromJunction="J3" toJunction="J6" end="420" vehsPerHour="53.83440048131977"/>
  <flow id="JF27933" begin="360" fromJunction="J3" toJunction="J7" end="420" vehsPerHour="61.48106605490008"/>
  <flow id="JF27934" begin="360" fromJunction="J4" toJunction="J0" end="420" vehsPerHour="68.19728274277982"/>
  <flow id="JF27935" begin="360" fromJunction="J4" toJunction="J3" end="420" vehsPerHour="49.928666800058146"/>
  <flow id="JF27936" begin="360" fromJunction="J4" toJunction="J5" end="420" vehsPerHour="2.0931248814680683"/>
  <flow id="JF27937" begin="360" fromJunction="J4" toJunction="J6" end="420" vehsPerHour="32.30310360669076"/>
  <flow id="JF27938" begin="360" fromJunction="J4" toJunction="J7" end="420" vehsPerHour="18.988594250626306"/>
  <flow id="JF27939" begin="360" fromJunction="J5" toJunction="J3" end="420" vehsPerHour="66.35612896567224"/>
  <flow id="JF27940" begin="360" fromJunction="J5" toJunction="J7" end="420" vehsPerHour="12.627477441134221"/>
  <flow id="JF27941" begin="360" fromJunction="J6" toJunction="J0" end="420" vehsPerHour="35.631796682397464"/>
  <flow id="JF27942" begin="360" fromJunction="J6" toJunction="J3" end="420" vehsPerHour="16.948577634038067"/>
  <flow id="JF27943" begin="360" fromJunction="J6" toJunction="J4" end="420" vehsPerHour="2.609072110638865"/>
  <flow id="JF27944" begin="360" fromJunction="J6" toJunction="J5" end="420" vehsPerHour="11.352801347354607"/>
  <flow id="JF27945" begin="360" fromJunction="J6" toJunction="J7" end="420" vehsPerHour="25.001195395317875"/>
  <flow id="JF27946" begin="360" fromJunction="J7" toJunction="J0" end="420" vehsPerHour="38.75035235207566"/>
  <flow id="JF27947" begin="360" fromJunction="J7" toJunction="J3" end="420" vehsPerHour="22.872958138473965"/>
  <flow id="JF27948" begin="360" fromJunction="J7" toJunction="J6" end="420" vehsPerHour="20.649534494491945"/>
  <flow id="JF27949" begin="420" fromJunction="J0" toJunction="J4" end="480" vehsPerHour="61.48746949691001"/>
  <flow id="JF27950" begin="420" fromJunction="J0" toJunction="J5" end="480" vehsPerHour="28.851550752364055"/>
  <flow id="JF27951" begin="420" fromJunction="J0" toJunction="J6" end="480" vehsPerHour="101.01499232293122"/>
  <flow id="JF27952" begin="420" fromJunction="J0" toJunction="J7" end="480" vehsPerHour="39.604623949439855"/>
  <flow id="JF27953" begin="420" fromJunction="J3" toJunction="J0" end="480" vehsPerHour="128.3375233730122"/>
  <flow id="JF27954" begin="420" fromJunction="J3" toJunction="J4" end="480" vehsPerHour="132.346233425899"/>
  <flow id="JF27955" begin="420" fromJunction="J3" toJunction="J5" end="480" vehsPerHour="98.77173255537564"/>
  <flow id="JF27956" begin="420" fromJunction="J3" toJunction="J6" end="480" vehsPerHour="107.13803527476547"/>
  <flow id="JF27957" begin="420" fromJunction="J3" toJunction="J7" end="480" vehsPerHour="23.534318669359898"/>
  <flow id="JF27958" begin="420" fromJunction="J4" toJunction="J0" end="480" vehsPerHour="45.06612922789791"/>
  <flow id="JF27959" begin="420" fromJunction="J4" toJunction="J5" end="480" vehsPerHour="48.69059155885946"/>
  <flow id="JF27960" begin="420" fromJunction="J4" toJunction="J6" end="480" vehsPerHour="38.58831197672185"/>
  <flow id="JF27961" begin="420" fromJunction="J4" toJunction="J7" end="480" vehsPerHour="5.504284564730258"/>
  <flow id="JF27962" begin="420" fromJunction="J5" toJunction="J0" end="480" vehsPerHour="36.188322043355875"/>
  <flow id="JF27963" begin="420" fromJunction="J5" toJunction="J4" end="480" vehsPerHour="1.2574032128450419"/>
  <flow id="JF27964" begin="420" fromJunction="J5" toJunction="J6" end="480" vehsPerHour="8.019508877031205"/>
  <flow id="JF27965" begin="420" fromJunction="J5" toJunction="J7" end="480" vehsPerHour="48.23554143336731"/>
  <flow id="JF27966" begin="420" fromJunction="J6" toJunction="J0" end="480" vehsPerHour="40.32772885651753"/>
  <flow id="JF27967" begin="420" fromJunction="J6" toJunction="J3" end="480" vehsPerHour="51.42492157643952"/>
  <flow id="JF27968" begin="420" fromJunction="J6" toJunction="J4" end="480" vehsPerHour="35.79144688361829"/>
  <flow id="JF27969" begin="420" fromJunction="J6" toJunction="J7" end="480" vehsPerHour="32.359235462137356"/>
  <flow id="JF27970" begin="420" fromJunction="J7" toJunction="J3" end="480" vehsPerHour="62.50939629403871"/>
  <flow id="JF27971" begin="420" fromJunction="J7" toJunction="J4" end="480" vehsPerHour="13.13290376687239"/>
  <flow id="JF27972" begin="420" fromJunction="J7" toJunction="J5" end="480" vehsPerHour="60.42595479817119"/>
  <flow id="JF27973" begin="420" fromJunction="J7" toJunction="J6" end="480" vehsPerHour="55.282427264419496"/>
  <flow id="JF27974" begin="480" fromJunction="J0" toJunction="J3" end="540" vehsPerHour="103.68499600001743"/>
  <flow id="JF27975" begin="480" fromJunction="J0" toJunction="J5" end="540" vehsPerHour="135.40733306123997"/>
  <flow id="JF27976" begin="480" fromJunction="J0" toJunction="J6" end="540" vehsPerHour="98.9932175916914"/>
  <flow id="JF27977" begin="480" fromJunction="J0" toJunction="J7" end="540" vehsPerHour="82.30672742906935"/>
  <flow id="JF27978" begin="480" fromJunction="J3" toJunction="J4" end="540" vehsPerHour="125.46690655286605"/>
  <flow id="JF27979" begin="480" fromJunction="J3" toJunction="J5" end="540" vehsPerHour="22.895495540057784"/>
  <flow id="JF27980" begin="480" fromJunction="J3" toJunction="J7" end="540" vehsPerHour="112.98922553814039"/>
  <flow id="JF27981" begin="480" fromJunction="J4" toJunction="J6" end="540" vehsPerHour="64.31765204289779"/>
  <flow id="JF27982" begin="480" fromJunction="J4" toJunction="J7" end="540" vehsPerHour="29.967114933477543"/>
  <flow id="JF27983" begin="480" fromJunction="J5" toJunction="J3" end="540" vehsPerHour="7.576215870089455"/>
  <flow id="JF27984" begin="480" fromJunction="J5" toJunction="J4" end="540" vehsPerHour="59.123836946972844"/>
  <flow id="JF27985" begin="480" fromJunction="J5" toJunction="J6" end="540" vehsPerHour="25.57354133535854"/>
  <flow id="JF27986" begin="480" fromJunction="J5" toJunction="J7" end="540" vehsPerHour="49.83233303400289"/>
  <flow id="JF27987" begin="480" fromJunction="J6" toJunction="J0" end="540" vehsPerHour="24.45882201043302"/>
  <flow id="JF27988" begin="480" fromJunction="J6" toJunction="J5" end="540" vehsPerHour="22.49506936968501"/>
  <flow id="JF27989" begin="480" fromJunction="J6" toJunction="J7" end="540" vehsPerHour="19.55497598128467"/>
  <flow id="JF27990" begin="480" fromJunction="J7" toJunction="J0" end="540" vehsPerHour="29.670492641159726"/>
  <flow id="JF27991" begin="480" fromJunction="J7" toJunction="J4" end="540" vehsPerHour="2.33419582094159"/>
  <flow id="JF27992" begin="480" fromJunction="J7" toJunction="J5" end="540" vehsPerHour="48.37802315337731"/>
  <flow id="JF27993" begin="540" fromJunction="J0" toJunction="J3" end="600" vehsPerHour="70.20484622635773"/>
  <flow id="JF27994" begin="540" fromJunction="J0" toJunction="J5" end="600" vehsPerHour="16.59478405944448"/>
  <flow id="JF27995" begin="540" fromJunction="J0" toJunction="J6" end="600" vehsPerHour="122.98013460429755"/>
  <flow id="JF27996" begin="540" fromJunction="J0" toJunction="J7" end="600" vehsPerHour="117.9203506598608"/>
  <flow id="JF27997" begin="540" fromJunction="J3" toJunction="J0" end="600" vehsPerHour="115.14752778307455"/>
  <flow id="JF27998" begin="540" fromJunction="J3" toJunction="J5" end="600" vehsPerHour="3.3697042159191293"/>
  <flow id="JF27999" begin="540" fromJunction="J3" toJunction="J6" end="600" vehsPerHour="45.542859585814355"/>
  <flow id="JF28000" begin="540" fromJunction="J4" toJunction="J0" end="600" vehsPerHour="52.31375219218164"/>
  <flow id="JF28001" begin="540" fromJunction="J4" toJunction="J3" end="600" vehsPerHour="45.16955994390741"/>
  <flow id="JF28002" begin="540" fromJunction="J4" toJunction="J6" end="600" vehsPerHour="41.37473032510828"/>
  <flow id="JF28003" begin="540" fromJunction="J4" toJunction="J7" end="600" vehsPerHour="58.98813175363945"/>
  <flow id="JF28004" begin="540" fromJunction="J5" toJunction="J0" end="600" vehsPerHour="18.957449680359627"/>
  <flow id="JF28005" begin="540" fromJunction="J5" toJunction="J3" end="600" vehsPerHour="50.54017540363924"/>
  <flow id="JF28006" begin="540" fromJunction="J5" toJunction="J4" end="600" vehsPerHour="13.24070637430358"/>
  <flow id="JF28007" begin="540" fromJunction="J5" toJunction="J6" end="600" vehsPerHour="56.20729947072039"/>
  <flow id="JF28008" begin="540" fromJunction="J5" toJunction="J7" end="600" vehsPerHour="44.59392589667382"/>
  <flow id="JF28009" begin="540" fromJunction="J6" toJunction="J0" end="600" vehsPerHour="59.98385748935603"/>
  <flow id="JF28010" begin="540" fromJunction="J6" toJunction="J4" end="600" vehsPerHour="17.60890764596096"/>
  <flow id="JF28011" begin="540" fromJunction="J6" toJunction="J5" end="600" vehsPerHour="39.01048150921142"/>
  <flow id="JF28012" begin="540" fromJunction="J7" toJunction="J3" end="600" vehsPerHour="44.70371534144387"/>
  <flow id="JF28013" begin="540" fromJunction="J7" toJunction="J4" end="600" vehsPerHour="26.4060132063683"/>
  <flow id="JF28014" begin="540" fromJunction="J7" toJunction="J6" end="600" vehsPerHour="29.32651349186822"/>
  <flow id="JF28015" begin="600" fromJunction="J0" toJunction="J3" end="660" vehsPerHour="100.92115073383297"/>
  <flow id="JF28016" begin="600" fromJunction="J0" toJunction="J4" end="660" vehsPerHour="82.90068258223504"/>
  <flow id="JF28017" begin="600" fromJunction="J0" toJunction="J5" end="660" vehsPerHour="49.89321218452252"/>
  <flow id="JF28018" begin="600" fromJunction="J0" toJunction="J6" end="660" vehsPerHour="34.50000417827236"/>
  <flow id="JF28019" begin="600" fromJunction="J3" toJunction="J0" end="660" vehsPerHour="110.43513092221778"/>
  <flow id="JF28020" begin="600" fromJunction="J3" toJunction="J4" end="660" vehsPerHour="19.589907125813404"/>
  <flow id="JF28021" begin="600" fromJunction="J3" toJunction="J5" end="660" vehsPerHour="46.76574612399319"/>
  <flow id="JF28022" begin="600" fromJunction="J3" toJunction="J6" end="660" vehsPerHour="116.28321325335124"/>
  <flow id="JF28023" begin="600" fromJunction="J4" toJunction="J0" end="660" vehsPerHour="22.985751863271716"/>
  <flow id="JF28024" begin="600" fromJunction="J4" toJunction="J3" end="660" vehsPerHour="35.42587572204292"/>
  <flow id="JF28025" begin="600" fromJunction="J4" toJunction="J5" end="660" vehsPerHour="39.966642490509116"/>
  <flow id="JF28026" begin="600" fromJunction="J4" toJunction="J6" end="660" vehsPerHour="12.045912075229785"/>
  <flow id="JF28027" begin="600" fromJunction="J4" toJunction="J7" end="660" vehsPerHour="38.213127789164716"/>
  <flow id="JF28028" begin="600" fromJunction="J5" toJunction="J0" end="660" vehsPerHour="35.32361680363745"/>
  <flow id="JF28029" begin="600" fromJunction="J5" toJunction="J3" end="660" vehsPerHour="36.13071382885412"/>
  <flow id="JF28030" begin="600" fromJunction="J5" toJunction="J4" end="660" vehsPerHour="10.79199054737661"/>
  <flow id="JF28031" begin="600" fromJunction="J5" toJunction="J6" end="660" vehsPerHour="60.216429862326564"/>
  <flow id="JF28032" begin="600" fromJunction="J5" toJunction="J7" end="660" vehsPerHour="64.12554998614085"/>
  <flow id="JF28033" begin="600" fromJunction="J6" toJunction="J0" end="660" vehsPerHour="61.62038248316885"/>
  <flow id="JF28034" begin="600" fromJunction="J6" toJunction="J3" end="660" vehsPerHour="15.47597230337853"/>
  <flow id="JF28035" begin="600" fromJunction="J6" toJunction="J4" end="660" vehsPerHour="50.252355378799145"/>
  <flow id="JF28036" begin="600" fromJunction="J6" toJunction="J7" end="660" vehsPerHour="41.7839758172937"/>
  <flow id="JF28037" begin="600" fromJunction="J7" toJunction="J0" end="660" vehsPerHour="39.719466782501776"/>
  <flow id="JF28038" begin="600" fromJunction="J7" toJunction="J3" end="660" vehsPerHour="27.35899697912841"/>
  <flow id="JF28039" begin="600" fromJunction="J7" toJunction="J4" end="660" vehsPerHour="47.68324616121929"/>
  <flow id="JF28040" begin="600" fromJunction="J7" toJunction="J5" end="660" vehsPerHour="62.57686648635738"/>
  <flow id="JF28041" begin="660" fromJunction="J0" toJunction="J3" end="720" vehsPerHour="49.63445728069572"/>
  <flow id="JF28042" begin="660" fromJunction="J0" toJunction="J4" end="720" vehsPerHour="10.961209665900707"/>
  <flow id="JF28043" begin="660" fromJunction="J0" toJunction="J7" end="720" vehsPerHour="13.148964608833277"/>
  <flow id="JF28044" begin="660" fromJunction="J3" toJunction="J5" end="720" vehsPerHour="113.03090423067266"/>
  <flow id="JF28045" begin="660" fromJunction="J3" toJunction="J6" end="720" vehsPerHour="4.7321723653816985"/>
  <flow id="JF28046" begin="660" fromJunction="J3" toJunction="J7" end="720" vehsPerHour="39.198308319459"/>
  <flow id="JF28047" begin="660" fromJunction="J4" toJunction="J0" end="720" vehsPerHour="35.25213427474739"/>
  <flow id="JF28048" begin="660" fromJunction="J4" toJunction="J3" end="720" vehsPerHour="38.621203036313865"/>
  <flow id="JF28049" begin="660" fromJunction="J4" toJunction="J5" end="720" vehsPerHour="35.096078205976305"/>
  <flow id="JF28050" begin="660" fromJunction="J4" toJunction="J6" end="720" vehsPerHour="18.72569748975697"/>
  <flow id="JF28051" begin="660" fromJunction="J4" toJunction="J7" end="720" vehsPerHour="5.2740786557132395"/>
  <flow id="JF28052" begin="660" fromJunction="J5" toJunction="J0" end="720" vehsPerHour="8.151951378854978"/>