<?xml version="1.0" encoding="UTF-8"?>
<routes xmlns:xsi="http://www.w3.org/2001/XMLSchema-instance" xsi:noNamespaceSchemaLocation="http://sumo.dlr.de/xsd/routes_file.xsd">
  <flow id="JF17420" begin="0" fromJunction="J0" toJunction="J3" end="60" vehsPerHour="15.164961664152196"/>
  <flow id="JF17421" begin="0" fromJunction="J0" toJunction="J5" end="60" vehsPerHour="49.00627209412183"/>
  <flow id="JF17422" begin="0" fromJunction="J0" toJunction="J7" end="60" vehsPerHour="47.684061063525384"/>
  <flow id="JF17423" begin="0" fromJunction="J3" toJunction="J0" end="60" vehsPerHour="89.18022876295238"/>
  <flow id="JF17424" begin="0" fromJunction="J3" toJunction="J4" end="60" vehsPerHour="43.20116073281373"/>
  <flow id="JF17425" begin="0" fromJunction="J3" toJunction="J5" end="60" vehsPerHour="128.61862047221396"/>
  <flow id="JF17426" begin="0" fromJunction="J3" toJunction="J6" end="60" vehsPerHour="76.26888383493505"/>
  <flow id="JF17427" begin="0" fromJunction="J3" toJunction="J7" end="60" vehsPerHour="64.48828129441053"/>
  <flow id="JF17428" begin="0" fromJunction="J4" toJunction="J3" end="60" vehsPerHour="57.55579145685502"/>
  <flow id="JF17429" begin="0" fromJunction="J4" toJunction="J6" end="60" vehsPerHour="51.20059354739009"/>
  <flow id="JF17430" begin="0" fromJunction="J5" toJunction="J0" end="60" vehsPerHour="22.523921061455564"/>
  <flow id="JF17431" begin="0" fromJunction="J5" toJunction="J3" end="60" vehsPerHour="28.901099715598427"/>
  <flow id="JF17432" begin="0" fromJunction="J5" toJunction="J4" end="60" vehsPerHour="1.489802379400805"/>
  <flow id="JF17433" begin="0" fromJunction="J5" toJunction="J7" end="60" vehsPerHour="52.989216661564996"/>
  <flow id="JF17434" begin="0" fromJunction="J6" toJunction="J0" end="60" vehsPerHour="62.06616483092756"/>
  <flow id="JF17435" begin="0" fromJunction="J6" toJunction="J3" end="60" vehsPerHour="51.518385132160574"/>
  <flow id="JF17436" begin="0" fromJunction="J6" toJunction="J4" end="60" vehsPerHour="55.05064638413186"/>
  <flow id="JF17437" begin="0" fromJunction="J6" toJunction="J5" end="60" vehsPerHour="47.39763653142447"/>
  <flow id="JF17438" begin="0" fromJunction="J6" toJunction="J7" end="60" vehsPerHour="17.57256533065212"/>
  <flow id="JF17439" begin="0" fromJunction="J7" toJunction="J3" end="60" vehsPerHour="4.0993883539967175"/>
  <flow id="JF17440" begin="0" fromJunction="J7" toJunction="J4" end="60" vehsPerHour="60.15726671218815"/>
  <flow id="JF17441" begin="0" fromJunction="J7" toJunction="J5" end="60" vehsPerHour="46.17534242427777"/>
  <flow id="JF17442" begin="0" fromJunction="J7" toJunction="J6" end="60" vehsPerHour="51.51384845701106"/>
  <flow id="JF17443" begin="60" fromJunction="J0" toJunction="J4" end="120" vehsPerHour="132.55023999728076"/>
  <flow id="JF17444" begin="60" fromJunction="J0" toJunction="J5" end="120" vehsPerHour="95.96900719044368"/>
  <flow id="JF17445" begin="60" fromJunction="J0" toJunction="J7" end="120" vehsPerHour="137.1672390124229"/>
  <flow id="JF17446" begin="60" fromJunction="J3" toJunction="J0" end="120" vehsPerHour="59.624343135791136"/>
  <flow id="JF17447" begin="60" fromJunction="J3" toJunction="J4" end="120" vehsPerHour="13.151794880657281"/>
  <flow id="JF17448" begin="60" fromJunction="J3" toJunction="J5" end="120" vehsPerHour="133.2195700074314"/>
  <flow id="JF17449" begin="60" fromJunction="J3" toJunction="J6" end="120" vehsPerHour="62.57767161539125"/>
  <flow id="JF17450" begin="60" fromJunction="J3" toJunction="J7" end="120" vehsPerHour="72.50455614446602"/>
  <flow id="JF17451" begin="60" fromJunction="J4" toJunction="J3" end="120" vehsPerHour="38.1821315342012"/>
  <flow id="JF17452" begin="60" fromJunction="J4" toJunction="J5" end="120" vehsPerHour="36.45172035612147"/>
  <flow id="JF17453" begin="60" fromJunction="J4" toJunction="J6" end="120" vehsPerHour="68.2014209783792"/>
  <flow id="JF17454" begin="60" fromJunction="J4" toJunction="J7" end="120" vehsPerHour="39.494312666398415"/>
  <flow id="JF17455" begin="60" fromJunction="J5" toJunction="J3" end="120" vehsPerHour="4.991839932885998"/>
  <flow id="JF17456" begin="60" fromJunction="J5" toJunction="J4" end="120" vehsPerHour="65.41331437979002"/>
  <flow id="JF17457" begin="60" fromJunction="J5" toJunction="J6" end="120" vehsPerHour="13.651586293299331"/>
  <flow id="JF17458" begin="60" fromJunction="J5" toJunction="J7" end="120" vehsPerHour="44.96146033263757"/>
  <flow id="JF17459" begin="60" fromJunction="J6" toJunction="J0" end="120" vehsPerHour="0.6144398993367479"/>
  <flow id="JF17460" begin="60" fromJunction="J6" toJunction="J4" end="120" vehsPerHour="41.62281341616548"/>
  <flow id="JF17461" begin="60" fromJunction="J6" toJunction="J5" end="120" vehsPerHour="9.906187828072028"/>
  <flow id="JF17462" begin="60" fromJunction="J6" toJunction="J7" end="120" vehsPerHour="34.13480858628366"/>
  <flow id="JF17463" begin="60" fromJunction="J7" toJunction="J0" end="120" vehsPerHour="29.450338648743237"/>
  <flow id="JF17464" begin="60" fromJunction="J7" toJunction="J4" end="120" vehsPerHour="40.99978104227943"/>
  <flow id="JF17465" begin="60" fromJunction="J7" toJunction="J5" end="120" vehsPerHour="26.932907093380585"/>
  <flow id="JF17466" begin="60" fromJunction="J7" toJunction="J6" end="120" vehsPerHour="28.31775177484399"/>
  <flow id="JF17467" begin="120" fromJunction="J0" toJunction="J3" end="180" vehsPerHour="35.45235122834569"/>
  <flow id="JF17468" begin="120" fromJunction="J0" toJunction="J5" end="180" vehsPerHour="15.50686073746647"/>
  <flow id="JF17469" begin="120" fromJunction="J0" toJunction="J6" end="180" vehsPerHour="90.44528970650865"/>
  <flow id="JF17470" begin="120" fromJunction="J0" toJunction="J7" end="180" vehsPerHour="128.0394165455691"/>
  <flow id="JF17471" begin="120" fromJunction="J3" toJunction="J5" end="180" vehsPerHour="25.65451870242106"/>
  <flow id="JF17472" begin="120" fromJunction="J3" toJunction="J6" end="180" vehsPerHour="23.823298290474977"/>
  <flow id="JF17473" begin="120" fromJunction="J3" toJunction="J7" end="180" vehsPerHour="39.802172191164395"/>
  <flow id="JF17474" begin="120" fromJunction="J4" toJunction="J0" end="180" vehsPerHour="49.95981617789629"/>
  <flow id="JF17475" begin="120" fromJunction="J4" toJunction="J3" end="180" vehsPerHour="42.220597275761364"/>
  <flow id="JF17476" begin="120" fromJunction="J4" toJunction="J6" end="180" vehsPerHour="35.66649425724895"/>
  <flow id="JF17477" begin="120" fromJunction="J5" toJunction="J3" end="180" vehsPerHour="27.814030720887782"/>
  <flow id="JF17478" begin="120" fromJunction="J5" toJunction="J4" end="180" vehsPerHour="39.67979140154324"/>
  <flow id="JF17479" begin="120" fromJunction="J5" toJunction="J6" end="180" vehsPerHour="46.09990868249339"/>
  <flow id="JF17480" begin="120" fromJunction="J5" toJunction="J7" end="180" vehsPerHour="27.450057449631835"/>
  <flow id="JF17481" begin="120" fromJunction="J6" toJunction="J0" end="180" vehsPerHour="36.43773559126087"/>
  <flow id="JF17482" begin="120" fromJunction="J6" toJunction="J3" end="180" vehsPerHour="50.60822947327694"/>
  <flow id="JF17483" begin="120" fromJunction="J6" toJunction="J4" end="180" vehsPerHour="10.64794288652436"/>
  <flow id="JF17484" begin="120" fromJunction="J7" toJunction="J0" end="180" vehsPerHour="40.42404063718935"/>
  <flow id="JF17485" begin="120" fromJunction="J7" toJunction="J4" end="180" vehsPerHour="54.84529300276317"/>
  <flow id="JF17486" begin="180" fromJunction="J0" toJunction="J4" end="240" vehsPerHour="6.962960755163114"/>
  <flow id="JF17487" begin="180" fromJunction="J0" toJunction="J5" end="240" vehsPerHour="128.74004112690295"/>
  <flow id="JF17488" begin="180" fromJunction="J0" toJunction="J6" end="240" vehsPerHour="95.51243185792259"/>
  <flow id="JF17489" begin="180" fromJunction="J0" toJunction="J7" end="240" vehsPerHour="25.863871444663427"/>
  <flow id="JF17490" begin="180" fromJunction="J3" toJunction="J0" end="240" vehsPerHour="8.385183388655536"/>
  <flow id="JF17491" begin="180" fromJunction="J3" toJunction="J4" end="240" vehsPerHour="42.965840345903096"/>
  <flow id="JF17492" begin="180" fromJunction="J3" toJunction="J5" end="240" vehsPerHour="13.716689261122054"/>
  <flow id="JF17493" begin="180" fromJunction="J3" toJunction="J7" end="240" vehsPerHour="123.35232148981419"/>
  <flow id="JF17494" begin="180" fromJunction="J4" toJunction="J6" end="240" vehsPerHour="48.635184999651884"/>
  <flow id="JF17495" begin="180" fromJunction="J5" toJunction="J3" end="240" vehsPerHour="44.48627124576543"/>
  <flow id="JF17496" begin="180" fromJunction="J5" toJunction="J4" end="240" vehsPerHour="65.19175819179246"/>
  <flow id="JF17497" begin="180" fromJunction="J5" toJunction="J7" end="240" vehsPerHour="54.50187192277158"/>
  <flow id="JF17498" begin="180" fromJunction="J6" toJunction="J4" end="240" vehsPerHour="32.580414222406105"/>
  <flow id="JF17499" begin="180" fromJunction="J6" toJunction="J7" end="240" vehsPerHour="5.246022781593491"/>
  <flow id="JF17500" begin="180" fromJunction="J7" toJunction="J3" end="240" vehsPerHour="67.20682844402216"/>
  <flow id="JF17501" begin="180" fromJunction="J7" toJunction="J4" end="240" vehsPerHour="18.54696732725232"/>
  <flow id="JF17502" begin="180" fromJunction="J7" toJunction="J6" end="240" vehsPerHour="22.566617217257974"/>
  <flow id="JF17503" begin="240" fromJunction="J0" toJunction="J3" end="300" vehsPerHour="73.56814787554916"/>
  <flow id="JF17504" begin="240" fromJunction="J0" toJunction="J4" end="300" vehsPerHour="8.947365439366195"/>
  <flow id="JF17505" begin="240" fromJunction="J0" toJunction="J6" end="300" vehsPerHour="46.10413161216741"/>
  <flow id="JF17506" begin="240" fromJunction="J0" toJunction="J7" end="300" vehsPerHour="24.89546884632916"/>
  <flow id="JF17507" begin="240" fromJunction="J3" toJunction="J0" end="300" vehsPerHour="21.24317490342613"/>
  <flow id="JF17508" begin="240" fromJunction="J3" toJunction="J4" end="300" vehsPerHour="116.1118763965964"/>
  <flow id="JF17509" begin="240" fromJunction="J3" toJunction="J6" end="300" vehsPerHour="35.99084099603602"/>
  <flow id="JF17510" begin="240" fromJunction="J3" toJunction="J7" end="300" vehsPerHour="119.3978992158114"/>
  <flow id="JF17511" begin="240" fromJunction="J4" toJunction="J0" end="300" vehsPerHour="52.20490264729842"/>
  <flow id="JF17512" begin="240" fromJunction="J4" toJunction="J3" end="300" vehsPerHour="62.23723286032914"/>
  <flow id="JF17513" begin="240" fromJunction="J4" toJunction="J5" end="300" vehsPerHour="49.48172778262847"/>
  <flow id="JF17514" begin="240" fromJunction="J4" toJunction="J6" end="300" vehsPerHour="10.207138908840617"/>
  <flow id="JF17515" begin="240" fromJunction="J5" toJunction="J0" end="300" vehsPerHour="4.110020554596335"/>
  <flow id="JF17516" begin="240" fromJunction="J5" toJunction="J3" end="300" vehsPerHour="32.57272431907795"/>
  <flow id="JF17517" begin="240" fromJunction="J5" toJunction="J7" end="300" vehsPerHour="61.40050880093066"/>
  <flow id="JF17518" begin="240" fromJunction="J6" toJunction="J0" end="300" vehsPerHour="19.255271401680385"/>
  <flow id="JF17519" begin="240" fromJunction="J6" toJunction="J4" end="300" vehsPerHour="53.00676325446646"/>
  <flow id="JF17520" begin="240" fromJunction="J6" toJunction="J5" end="300" vehsPerHour="33.08268951381938"/>
  <flow id="JF17521" begin="240" fromJunction="J6" toJunction="J7" end="300" vehsPerHour="43.251136596019975"/>
  <flow id="JF17522" begin="240" fromJunction="J7" toJunction="J0" end="300" vehsPerHour="10.31322047895795"/>
  <flow id="JF17523" begin="240" fromJunction="J7" toJunction="J5" end="300" vehsPerHour="41.40519216183041"/>
  <flow id="JF17524" begin="240" fromJunction="J7" toJunction="J6" end="300" vehsPerHour="10.126432981678622"/>
  <flow id="JF17525" begin="300" fromJunction="J0" toJunction="J3" end="360" vehsPerHour="38.92734962978799"/>
  <flow id="JF17526" begin="300" fromJunction="J0" toJunction="J4" end="360" vehsPerHour="129.03737044662137"/>
  <flow id="JF17527" begin="300" fromJunction="J0" toJunction="J7" end="360" vehsPerHour="14.375389738813437"/>
  <flow id="JF17528" begin="300" fromJunction="J3" toJunction="J0" end="360" vehsPerHour="23.364845618246655"/>
  <flow id="JF17529" begin="300" fromJunction="J3" toJunction="J4" end="360" vehsPerHour="52.71346429803965"/>
  <flow id="JF17530" begin="300" fromJunction="J3" toJunction="J5" end="360" vehsPerHour="75.17364076420516"/>
  <flow id="JF17531" begin="300" fromJunction="J3" toJunction="J7" end="360" vehsPerHour="3.231904297393003"/>
  <flow id="JF17532" begin="300" fromJunction="J4" toJunction="J0" end="360" vehsPerHour="61.571919106391995"/>
  <flow id="JF17533" begin="300" fromJunction="J4" toJunction="J3" end="360" vehsPerHour="16.62157991727914"/>
  <flow id="JF17534" begin="300" fromJunction="J4" toJunction="J5" end="360" vehsPerHour="59.14427696021653"/>
  <flow id="JF17535" begin="300" fromJunction="J4" toJunction="J6" end="360" vehsPerHour="11.322617780923856"/>
  <flow id="JF17536" begin="300" fromJunction="J4" toJunction="J7" end="360" vehsPerHour="36.64565404374276"/>
  <flow id="JF17537" begin="300" fromJunction="J5" toJunction="J4" end="360" vehsPerHour="25.861955814669198"/>
  <flow id="JF17538" begin="300" fromJunction="J5" toJunction="J6" end="360" vehsPerHour="11.830200608669609"/>
  <flow id="JF17539" begin="300" fromJunction="J5" toJunction="J7" end="360" vehsPerHour="19.582761022750844"/>
  <flow id="JF17540" begin="300" fromJunction="J6" toJunction="J0" end="360" vehsPerHour="12.972575134109993"/>
  <flow id="JF17541" begin="300" fromJunction="J6" toJunction="J3" end="360" vehsPerHour="48.65996318639871"/>
  <flow id="JF17542" begin="300" fromJunction="J6" toJunction="J4" end="360" vehsPerHour="13.397593430572606"/>
  <flow id="JF17543" begin="300" fromJunction="J7" toJunction="J0" end="360" vehsPerHour="34.41979653796315"/>
  <flow id="JF17544" begin="300" fromJunction="J7" toJunction="J5" end="360" vehsPerHour="36.23740499699825"/>
  <flow id="JF17545" begin="300" fromJunction="J7" toJunction="J6" end="360" vehsPerHour="67.56753136091062"/>
  <flow id="JF17546" begin="360" fromJunction="J0" toJunction="J3" end="420" vehsPerHour="16.71345216922461"/>
  <flow id="JF17547" begin="360" fromJunction="J0" toJunction="J4" end="420" vehsPerHour="81.64046194456765"/>
  <flow id="JF17548" begin="360" fromJunction="J0" toJunction="J6" end="420" vehsPerHour="30.088846813664208"/>
  <flow id="JF17549" begin="360" fromJunction="J0" toJunction="J7" end="420" vehsPerHour="116.53487410157153"/>
  <flow id="JF17550" begin="360" fromJunction="J3" toJunction="J0" end="420" vehsPerHour="77.73000658981121"/>
  <flow id="JF17551" begin="360" fromJunction="J3" toJunction="J7" end="420" vehsPerHour="128.5904526408995"/>
  <flow id="JF17552" begin="360" fromJunction="J4" toJunction="J0" end="420" vehsPerHour="43.09285627559584"/>
  <flow id="JF17553" begin="360" fromJunction="J4" toJunction="J5" end="420" vehsPerHour="11.837736139214629"/>
  <flow id="JF17554" begin="360" fromJunction="J4" toJunction="J6" end="420" vehsPerHour="58.76330305863417"/>
  <flow id="JF17555" begin="360" fromJunction="J4" toJunction="J7" end="420" vehsPerHour="63.283446161719795"/>
  <flow id="JF17556" begin="360" fromJunction="J5" toJunction="J0" end="420" vehsPerHour="1.2903122122736856"/>
  <flow id="JF17557" begin="360" fromJunction="J5" toJunction="J3" end="420" vehsPerHour="59.79035245197306"/>
  <flow id="JF17558" begin="360" fromJunction="J5" toJunction="J4" end="420" vehsPerHour="64.64969999475716"/>
  <flow id="JF17559" begin="360" fromJunction="J5" toJunction="J6" end="420" vehsPerHour="17.805897697658587"/>
  <flow id="JF17560" begin="360" fromJunction="J5" toJunction="J7" end="420" vehsPerHour="31.969464947514194"/>
  <flow id="JF17561" begin="360" fromJunction="J6" toJunction="J3" end="420" vehsPerHour="4.385003351684221"/>
  <flow id="JF17562" begin="360" fromJunction="J6" toJunction="J4" end="420" vehsPerHour="32.923755479747044"/>
  <flow id="JF17563" begin="360" fromJunction="J6" toJunction="J5" end="420" vehsPerHour="59.28014751584664"/>
  <flow id="JF17564" begin="360" fromJunction="J6" toJunction="J7" end="420" vehsPerHour="4.698916417821939"/>
  <flow id="JF17565" begin="360" fromJunction="J7" toJunction="J4" end="420" vehsPerHour="54.850894034202526"/>
  <flow id="JF17566" begin="360" fromJunction="J7" toJunction="J5" end="420" vehsPerHour="53.41580300289741"/>
  <flow id="JF17567" begin="360" fromJunction="J7" toJunction="J6" end="420" vehsPerHour="0.4135248946271077"/>
  <flow id="JF17568" begin="420" fromJunction="J0" toJunction="J3" end="480" vehsPerHour="32.27003299751421"/>
  <flow id="JF17569" begin="420" fromJunction="J0" toJunction="J4" end="480" vehsPerHour="26.411952271249426"/>
  <flow id="JF17570" begin="420" fromJunction="J0" toJunction="J5" end="480" vehsPerHour="128.24841332895147"/>
  <flow id="JF17571" begin="420" fromJunction="J0" toJunction="J6" end="480" vehsPerHour="13.96365050069729"/>
  <flow id="JF17572" begin="420" fromJunction="J0" toJunction="J7" end="480" vehsPerHour="34.2212057523702"/>
  <flow id="JF17573" begin="420" fromJunction="J3" toJunction="J4" end="480" vehsPerHour="135.4828530603115"/>
  <flow id="JF17574" begin="420" fromJunction="J3" toJunction="J5" end="480" vehsPerHour="131.56720332840737"/>
  <flow id="JF17575" begin="420" fromJunction="J3" toJunction="J6" end="480" vehsPerHour="13.01629130695955"/>
  <flow id="JF17576" begin="420" fromJunction="J3" toJunction="J7" end="480" vehsPerHour="30.363484586779375"/>
  <flow id="JF17577" begin="420" fromJunction="J4" toJunction="J0" end="480" vehsPerHour="8.073998898290577"/>
  <flow id="JF17578" begin="420" fromJunction="J4" toJunction="J3" end="480" vehsPerHour="4.78685648233752"/>
  <flow id="JF17579" begin="420" fromJunction="J4" toJunction="J7" end="480" vehsPerHour="30.42976131490801"/>
  <flow id="JF17580" begin="420" fromJunction="J5" toJunction="J0" end="480" vehsPerHour="11.443087370383372"/>
  <flow id="JF17581" begin="420" fromJunction="J5" toJunction="J3" end="480" vehsPerHour="3.9153443291565067"/>
  <flow id="JF17582" begin="420" fromJunction="J5" toJunction="J6" end="480" vehsPerHour="31.778518150160725"/>
  <flow id="JF17583" begin="420" fromJunction="J5" toJunction="J7" end="480" vehsPerHour="12.348300758242212"/>
  <flow id="JF17584" begin="420" fromJunction="J6" toJunction="J0" end="480" vehsPerHour="21.400980985307594"/>
  <flow id="JF17585" begin="420" fromJunction="J6" toJunction="J3" end="480" vehsPerHour="36.054788365068084"/>
  <flow id="JF17586" begin="420" fromJunction="J6" toJunction="J4" end="480" vehsPerHour="1.5284328604467519"/>
  <flow id="JF17587" begin="420" fromJunction="J6" toJunction="J5" end="480" vehsPerHour="68.12000244966173"/>
  <flow id="JF17588" begin="420" fromJunction="J6" toJunction="J7" end="480" vehsPerHour="22.560042468290078"/>
  <flow id="JF17589" begin="420" fromJunction="J7" toJunction="J0" end="480" vehsPerHour="29.271294982204438"/>
  <flow id="JF17590" begin="420" fromJunction="J7" toJunction="J3" end="480" vehsPerHour="29.10345222925136"/>
  <flow id="JF17591" begin="420" fromJunction="J7" toJunction="J4" end="480" vehsPerHour="47.48032830104032"/>
  <flow id="JF17592" begin="420" fromJunction="J7" toJunction="J5" end="480" vehsPerHour="15.132024600533017"/>
  <flow id="JF17593" begin="420" fromJunction="J7" toJunction="J6" end="480" vehsPerHour="39.145550138798725"/>
  <flow id="JF17594" begin="480" fromJunction="J0" toJunction="J3" end="540" vehsPerHour="117.27630720435333"/>
  <flow id="JF17595" begin="480" fromJunction="J0" toJunction="J6" end="540" vehsPerHour="65.59168234473256"/>
  <flow id="JF17596" begin="480" fromJunction="J3" toJunction="J0" end="540" vehsPerHour="109.88384629323593"/>
  <flow id="JF17597" begin="480" fromJunction="J3" toJunction="J4" end="540" vehsPerHour="91.87868037875401"/>
  <flow id="JF17598" begin="480" fromJunction="J3" toJunction="J6" end="540" vehsPerHour="29.629045590320406"/>
  <flow id="JF17599" begin="480" fromJunction="J3" toJunction="J7" end="540" vehsPerHour="99.65819180317474"/>
  <flow id="JF17600" begin="480" fromJunction="J4" toJunction="J0" end="540" vehsPerHour="55.19687691115654"/>
  <flow id="JF17601" begin="480" fromJunction="J4" toJunction="J3" end="540" vehsPerHour="22.044567922618658"/>
  <flow id="JF17602" begin="480" fromJunction="J4" toJunction="J5" end="540" vehsPerHour="32.63165585590076"/>
  <flow id="JF17603" begin="480" fromJunction="J4" toJunction="J6" end="540" vehsPerHour="54.11976188526296"/>
  <flow id="JF17604" begin="480" fromJunction="J5" toJunction="J0" end="540" vehsPerHour="37.69883540807892"/>
  <flow id="JF17605" begin="480" fromJunction="J5" toJunction="J3" end="540" vehsPerHour="27.266331660870495"/>
  <flow id="JF17606" begin="480" fromJunction="J5" toJunction="J4" end="540" vehsPerHour="51.744963468490184"/>
  <flow id="JF17607" begin="480" fromJunction="J5" toJunction="J6" end="540" vehsPerHour="57.82576181420367"/>
  <flow id="JF17608" begin="480" fromJunction="J5" toJunction="J7" end="540" vehsPerHour="42.76410805364207"/>
  <flow id="JF17609" begin="480" fromJunction="J6" toJunction="J0" end="540" vehsPerHour="21.598576278009038"/>
  <flow id="JF17610" begin="480" fromJunction="J6" toJunction="J3" end="540" vehsPerHour="42.65000773797702"/>
  <flow id="JF17611" begin="480" fromJunction="J7" toJunction="J3" end="540" vehsPerHour="56.743034679217864"/>
  <flow id="JF17612" begin="480" fromJunction="J7" toJunction="J4" end="540" vehsPerHour="29.324975127546786"/>
  <flow id="JF17613" begin="480" fromJunction="J7" toJunction="J5" end="540" vehsPerHour="12.433443471489978"/>
  <flow id="JF17614" begin="540" fromJunction="J0" toJunction="J3" end="600" vehsPerHour="89.05500502126932"/>
  <flow id="JF17615" begin="540" fromJunction="J0" toJunction="J4" end="600" vehsPerHour="85.04502144980835"/>
  <flow id="JF17616" begin="540" fromJunction="J0" toJunction="J5" end="600" vehsPerHour="135.34463223360808"/>
  <flow id="JF17617" begin="540" fromJunction="J0" toJunction="J6" end="600" vehsPerHour="124.12842819763168"/>
  <flow id="JF17618" begin="540" fromJunction="J3" toJunction="J0" end="600" vehsPerHour="32.540240062392726"/>
  <flow id="JF17619" begin="540" fromJunction="J3" toJunction="J4" end="600" vehsPerHour="43.97600249848031"/>
  <flow id="JF17620" begin="540" fromJunction="J3" toJunction="J5" end="600" vehsPerHour="134.04067991566836"/>
  <flow id="JF17621" begin="540" fromJunction="J3" toJunction="J6" end="600" vehsPerHour="51.16139482762853"/>
  <flow id="JF17622" begin="540" fromJunction="J3" toJunction="J7" end="600" vehsPerHour="66.819063850033"/>
  <flow id="JF17623" begin="540" fromJunction="J4" toJunction="J0" end="600" vehsPerHour="5.362547139548643"/>
  <flow id="JF17624" begin="540" fromJunction="J4" toJunction="J5" end="600" vehsPerHour="46.99775788081449"/>
  <flow id="JF17625" begin="540" fromJunction="J4" toJunction="J6" end="600" vehsPerHour="68.60967552170554"/>
  <flow id="JF17626" begin="540" fromJunction="J5" toJunction="J0" end="600" vehsPerHour="47.614805890591896"/>
  <flow id="JF17627" begin="540" fromJunction="J5" toJunction="J4" end="600" vehsPerHour="5.470935826385397"/>
  <flow id="JF17628" begin="540" fromJunction="J5" toJunction="J6" end="600" vehsPerHour="40.82512043704172"/>
  <flow id="JF17629" begin="540" fromJunction="J5" toJunction="J7" end="600" vehsPerHour="46.67093105624409"/>
  <flow id="JF17630" begin="540" fromJunction="J6" toJunction="J0" end="600" vehsPerHour="48.16712036208442"/>
  <flow id="JF17631" begin="540" fromJunction="J6" toJunction="J3" end="600" vehsPerHour="32.099062843139606"/>
  <flow id="JF17632" begin="540" fromJunction="J6" toJunction="J7" end="600" vehsPerHour="52.7068718283388"/>
  <flow id="JF17633" begin="540" fromJunction="J7" toJunction="J3" end="600" vehsPerHour="15.33437898076245"/>
  <flow id="JF17634" begin="540" fromJunction="J7" toJunction="J4" end="600" vehsPerHour="11.4679491438766"/>
  <flow id="JF17635" begin="540" fromJunction="J7" toJunction="J5" end="600" vehsPerHour="12.700478778657615"/>
  <flow id="JF17636" begin="540" fromJunction="J7" toJunction="J6" end="600" vehsPerHour="1.2157556550664603"/>
  <flow id="JF17637" begin="600" fromJunction="J0" toJunction="J3" end="660" vehsPerHour="4.4937586191645"/>
  <flow id="JF17638" begin="600" fromJunction="J0" toJunction="J4" end="660" vehsPerHour="36.65330866340893"/>
  <flow id="JF17639" begin="600" fromJunction="J0" toJunction="J6" end="660" vehsPerHour="1.0561217162117498"/>
  <flow id="JF17640" begin="600" fromJunction="J3" toJunction="J0" end="660" vehsPerHour="80.57008658161455"/>
  <flow id="JF17641" begin="600" fromJunction="J3" toJunction="J4" end="660" vehsPerHour="101.03535791374483"/>
  <flow id="JF17642" begin="600" fromJunction="J3" toJunction="J5" end="660" vehsPerHour="5.696182347374099"/>
  <flow id="JF17643" begin="600" fromJunction="J3" toJunction="J6" end="660" vehsPerHour="82.25418846653064"/>
  <flow id="JF17644" begin="600" fromJunction="J3" toJunction="J7" end="660" vehsPerHour="7.8458258187134735"/>
  <flow id="JF17645" begin="600" fromJunction="J4" toJunction="J0" end="660" vehsPerHour="9.296305893831228"/>
  <flow id="JF17646" begin="600" fromJunction="J4" toJunction="J5" end="660" vehsPerHour="59.00199490757288"/>
  <flow id="JF17647" begin="600" fromJunction="J5" toJunction="J0" end="660" vehsPerHour="27.079464673989502"/>
  <flow id="JF17648" begin="600" fromJunction="J5" toJunction="J3" end="660" vehsPerHour="65.45412924245537"/>
  <flow id="JF17649" begin="600" fromJunction="J5" toJunction="J4" end="660" vehsPerHour="47.08568734904434"/>
  <flow id="JF17650" begin="600" fromJunction="J5" toJunction="J6" end="660" vehsPerHour="62.35910524697186"/>
  <flow id="JF17651" begin="600" fromJunction="J5" toJunction="J7" end="660" vehsPerHour="3.6810007086164256"/>
  <flow id="JF17652" begin="600" fromJunction="J6" toJunction="J0" end="660" vehsPerHour="61.29502985708469"/>
  <flow id="JF17653" begin="600" fromJunction="J6" toJunction="J3" end="660" vehsPerHour="41.9329515816887"/>
  <flow id="JF17654" begin="600" fromJunction="J6" toJunction="J4" end="660" vehsPerHour="0.1501657985836647"/>
  <flow id="JF17655" begin="600" fromJunction="J6" toJunction="J5" end="660" vehsPerHour="62.0111644909269"/>
  <flow id="JF17656" begin="600" fromJunction="J6" toJunction="J7" end="660" vehsPerHour="54.78632677237467"/>
  <flow id="JF17657" begin="600" fromJunction="J7" toJunction="J0" end="660" vehsPerHour="30.195860766706843"/>
  <flow id="JF17658" begin="600" fromJunction="J7" toJunction="J3" end="660" vehsPerHour="63.71301342367308"/>
  <flow id="JF17659" begin="600" fromJunction="J7" toJunction="J4" end="660" vehsPerHour="19.235710874722717"/>
  <flow id="JF17660" begin="600" fromJunction="J7" toJunction="J6" end="660" vehsPerHour="26.04957200572129"/>
  <flow id="JF17661" begin="660" fromJunction="J0" toJunction="J3" end="720" vehsPerHour="52.77922059983903"/>
  <flow id="JF17662" begin="660" fromJunction="J0" toJunction="J4" end="720" vehsPerHour="130.44710358090992"/>
  <flow id="JF17663" begin="660" fromJunction="J0" toJunction="J5" end="720" vehsPerHour="93.34801494815426"/>
  <flow id="JF17664" begin="660" fromJunction="J0" toJunction="J7" end="720" vehsPerHour="117.70304256601997"/>
  <flow id="JF17665" begin="660" fromJunction="J3" toJunction="J0" end="720" vehsPerHour="38.111616963743394"/>
  <flow id="JF17666" begin="660" fromJunction="J3" toJunction="J4" end="720" vehsPerHour="47.72516713224767"/>
  <flow id="JF17667" begin="660" fromJunction="J3" toJunction="J6" end="720" vehsPerHour="92.80636119565402"/>
  <flow id="JF17668" begin="660" fromJunction="J3" toJunction="J7" end="720" vehsPerHour="69.96320103845095"/>
  <flow id="JF17669" begin="660" fromJunction="J4" toJunction="J3" end="720" vehsPerHour="24.789185994440498"/>
  <flow id="JF17670" begin="660" fromJunction="J4" toJunction="J5" end="720" vehsPerHour="39.82759601851617"/>
  <flow id="JF17671" begin="660" fromJunction="J4" toJunction="J7" end="720" vehsPerHour="34.16680998694503"/>
  <flow id="JF17672" begin="660" fromJunction="J5" toJunction="J3" end="720" vehsPerHour="47.64460767690693"/>
  <flow id="JF17673" begin="660" fromJunction="J5" toJunction="J4" end="720" vehsPerHour="16.109624567467723"/>
  <flow id="JF17674" begin="660" fromJunction="J5" toJunction="J6" end="720" vehsPerHour="2.101520958299958"/>
  <flow id="JF17675" begin="660" fromJunction="J6" toJunction="J0" end="720" vehsPerHour="18.79268441343186"/>
  <flow id="JF17676" begin="660" fromJunction="J6" toJunction="J3" end="720" vehsPerHour="16.375307695622116"/>
  <flow id="JF17677" begin="660" fromJunction="J6" toJunction="J7" end="720" vehsPerHour="44.969479662327366"/>
  <flow id="JF17678" begin="660" fromJunction="J7" toJunction="J0" end="720" vehsPerHour="28.258616032116482"/>
  <flow id="JF17679" begin="660" fromJunction="J7" toJunction="J3" end="720" vehsPerHour="18.884253144512957"/>
  <flow id="JF17680" begin="660" fromJunction="J7" toJunction="J4" end="720" vehsPerHour="30.620673689150617"/>
  <flow id="JF17681" begin="660" fromJunction="J7" toJunction="J5" end="720" vehsPerHour="57.97414523487925"/>
  <flow id="JF17682" begin="720" fromJunction="J0" toJunction="J3" end="780" vehsPerHour="8.906537736554716"/>
  <flow id="JF17683" begin="720" fromJunction="J0" toJunction="J7" end="780" vehsPerHour="60.90041578005408"/>
  <flow id="JF17684" begin="720" fromJunction="J3" toJunction="J4" end="780" vehsPerHour="24.920782547026082"/>
  <flow id="JF17685" begin="720" fromJunction="J3" toJunction="J5" end="780" vehsPerHour="10.395599400710227"/>
  <flow id="JF17686" begin="720" fromJunction="J3" toJunction="J6" end="780" vehsPerHour="109.76169729311923"/>
  <flow id="JF17687" begin="720" fromJunction="J3" toJunction="J7" end="780" vehsPerHour="85.43224747252636"/>