<?xml version="1.0" encoding="UTF-8"?>
<routes xmlns:xsi="http://www.w3.org/2001/XMLSchema-instance" xsi:noNamespaceSchemaLocation="http://sumo.dlr.de/xsd/routes_file.xsd">
  <flow id="JF6909" begin="0" fromJunction="J0" toJunction="J4" end="60" vehsPerHour="129.94349429133212"/>
  <flow id="JF6910" begin="0" fromJunction="J0" toJunction="J5" end="60" vehsPerHour="129.98472568869607"/>
  <flow id="JF6911" begin="0" fromJunction="J0" toJunction="J7" end="60" vehsPerHour="111.64057298418206"/>
  <flow id="JF6912" begin="0" fromJunction="J3" toJunction="J5" end="60" vehsPerHour="104.38888113726418"/>
  <flow id="JF6913" begin="0" fromJunction="J3" toJunction="J6" end="60" vehsPerHour="36.33878073462833"/>
  <flow id="JF6914" begin="0" fromJunction="J3" toJunction="J7" end="60" vehsPerHour="114.76928262293691"/>
  <flow id="JF6915" begin="0" fromJunction="J4" toJunction="J0" end="60" vehsPerHour="9.654214399049074"/>
  <flow id="JF6916" begin="0" fromJunction="J4" toJunction="J5" end="60" vehsPerHour="45.284295488838346"/>
  <flow id="JF6917" begin="0" fromJunction="J4" toJunction="J6" end="60" vehsPerHour="59.4546970820095"/>
  <flow id="JF6918" begin="0" fromJunction="J5" toJunction="J3" end="60" vehsPerHour="13.076900777908005"/>
  <flow id="JF6919" begin="0" fromJunction="J5" toJunction="J7" end="60" vehsPerHour="50.46629973689832"/>
  <flow id="JF6920" begin="0" fromJunction="J6" toJunction="J0" end="60" vehsPerHour="39.27487265427238"/>
  <flow id="JF6921" begin="0" fromJunction="J6" toJunction="J5" end="60" vehsPerHour="1.9550219574069099"/>
  <flow id="JF6922" begin="0" fromJunction="J6" toJunction="J7" end="60" vehsPerHour="14.727755354835784"/>
  <flow id="JF6923" begin="0" fromJunction="J7" toJunction="J5" end="60" vehsPerHour="55.983590048506485"/>
  <flow id="JF6924" begin="0" fromJunction="J7" toJunction="J6" end="60" vehsPerHour="56.658469827043305"/>
  <flow id="JF6925" begin="60" fromJunction="J3" toJunction="J4" end="120" vehsPerHour="84.90838595066069"/>
  <flow id="JF6926" begin="60" fromJunction="J3" toJunction="J5" end="120" vehsPerHour="136.16834838392973"/>
  <flow id="JF6927" begin="60" fromJunction="J4" toJunction="J0" end="120" vehsPerHour="47.66665613020126"/>
  <flow id="JF6928" begin="60" fromJunction="J4" toJunction="J3" end="120" vehsPerHour="7.502056714733927"/>
  <flow id="JF6929" begin="60" fromJunction="J4" toJunction="J5" end="120" vehsPerHour="57.479860765902195"/>
  <flow id="JF6930" begin="60" fromJunction="J4" toJunction="J6" end="120" vehsPerHour="61.33670528199972"/>
  <flow id="JF6931" begin="60" fromJunction="J4" toJunction="J7" end="120" vehsPerHour="61.82567453283683"/>
  <flow id="JF6932" begin="60" fromJunction="J5" toJunction="J0" end="120" vehsPerHour="28.765136454182315"/>
  <flow id="JF6933" begin="60" fromJunction="J5" toJunction="J3" end="120" vehsPerHour="22.654730769213757"/>
  <flow id="JF6934" begin="60" fromJunction="J5" toJunction="J4" end="120" vehsPerHour="18.30483773466698"/>
  <flow id="JF6935" begin="60" fromJunction="J5" toJunction="J6" end="120" vehsPerHour="11.141900283258865"/>
  <flow id="JF6936" begin="60" fromJunction="J6" toJunction="J0" end="120" vehsPerHour="25.594424718014924"/>
  <flow id="JF6937" begin="60" fromJunction="J6" toJunction="J3" end="120" vehsPerHour="41.11164589222938"/>
  <flow id="JF6938" begin="60" fromJunction="J6" toJunction="J4" end="120" vehsPerHour="55.09980016470907"/>
  <flow id="JF6939" begin="60" fromJunction="J6" toJunction="J5" end="120" vehsPerHour="36.54788572409865"/>
  <flow id="JF6940" begin="60" fromJunction="J6" toJunction="J7" end="120" vehsPerHour="67.81431810569302"/>
  <flow id="JF6941" begin="60" fromJunction="J7" toJunction="J0" end="120" vehsPerHour="4.671548737300688"/>
  <flow id="JF6942" begin="60" fromJunction="J7" toJunction="J3" end="120" vehsPerHour="47.506927463741384"/>
  <flow id="JF6943" begin="60" fromJunction="J7" toJunction="J4" end="120" vehsPerHour="45.630034072283266"/>
  <flow id="JF6944" begin="60" fromJunction="J7" toJunction="J5" end="120" vehsPerHour="26.76606854869589"/>
  <flow id="JF6945" begin="120" fromJunction="J0" toJunction="J4" end="180" vehsPerHour="97.73527769704981"/>
  <flow id="JF6946" begin="120" fromJunction="J0" toJunction="J5" end="180" vehsPerHour="62.59869847837396"/>
  <flow id="JF6947" begin="120" fromJunction="J0" toJunction="J6" end="180" vehsPerHour="26.60316484871638"/>
  <flow id="JF6948" begin="120" fromJunction="J0" toJunction="J7" end="180" vehsPerHour="36.286806510234804"/>
  <flow id="JF6949" begin="120" fromJunction="J3" toJunction="J0" end="180" vehsPerHour="84.24255028681942"/>
  <flow id="JF6950" begin="120" fromJunction="J3" toJunction="J4" end="180" vehsPerHour="7.479960458302708"/>
  <flow id="JF6951" begin="120" fromJunction="J3" toJunction="J5" end="180" vehsPerHour="88.16115086645331"/>
  <flow id="JF6952" begin="120" fromJunction="J3" toJunction="J7" end="180" vehsPerHour="35.347135382490634"/>
  <flow id="JF6953" begin="120" fromJunction="J4" toJunction="J3" end="180" vehsPerHour="38.97694102725526"/>
  <flow id="JF6954" begin="120" fromJunction="J4" toJunction="J6" end="180" vehsPerHour="12.265610553364654"/>
  <flow id="JF6955" begin="120" fromJunction="J4" toJunction="J7" end="180" vehsPerHour="33.918233072294036"/>
  <flow id="JF6956" begin="120" fromJunction="J5" toJunction="J0" end="180" vehsPerHour="62.293731968996575"/>
  <flow id="JF6957" begin="120" fromJunction="J5" toJunction="J3" end="180" vehsPerHour="54.20577906797268"/>
  <flow id="JF6958" begin="120" fromJunction="J5" toJunction="J4" end="180" vehsPerHour="46.74873911807021"/>
  <flow id="JF6959" begin="120" fromJunction="J5" toJunction="J6" end="180" vehsPerHour="0.40743693185225066"/>
  <flow id="JF6960" begin="120" fromJunction="J5" toJunction="J7" end="180" vehsPerHour="54.14874346209706"/>
  <flow id="JF6961" begin="120" fromJunction="J6" toJunction="J0" end="180" vehsPerHour="25.474865589997254"/>
  <flow id="JF6962" begin="120" fromJunction="J6" toJunction="J3" end="180" vehsPerHour="8.265460776699028"/>
  <flow id="JF6963" begin="120" fromJunction="J6" toJunction="J4" end="180" vehsPerHour="19.850728656579033"/>
  <flow id="JF6964" begin="120" fromJunction="J6" toJunction="J5" end="180" vehsPerHour="19.821236206404194"/>
  <flow id="JF6965" begin="120" fromJunction="J7" toJunction="J3" end="180" vehsPerHour="28.755126632618126"/>
  <flow id="JF6966" begin="120" fromJunction="J7" toJunction="J5" end="180" vehsPerHour="36.68528098143664"/>
  <flow id="JF6967" begin="120" fromJunction="J7" toJunction="J6" end="180" vehsPerHour="11.303951833869041"/>
  <flow id="JF6968" begin="180" fromJunction="J0" toJunction="J3" end="240" vehsPerHour="25.352527081640915"/>
  <flow id="JF6969" begin="180" fromJunction="J0" toJunction="J5" end="240" vehsPerHour="117.36203727840459"/>
  <flow id="JF6970" begin="180" fromJunction="J0" toJunction="J6" end="240" vehsPerHour="128.03492944993425"/>
  <flow id="JF6971" begin="180" fromJunction="J0" toJunction="J7" end="240" vehsPerHour="58.53513154536468"/>
  <flow id="JF6972" begin="180" fromJunction="J3" toJunction="J4" end="240" vehsPerHour="36.968016340770504"/>
  <flow id="JF6973" begin="180" fromJunction="J3" toJunction="J5" end="240" vehsPerHour="117.61391325101195"/>
  <flow id="JF6974" begin="180" fromJunction="J3" toJunction="J7" end="240" vehsPerHour="88.09315612877752"/>
  <flow id="JF6975" begin="180" fromJunction="J4" toJunction="J3" end="240" vehsPerHour="10.558660737738084"/>
  <flow id="JF6976" begin="180" fromJunction="J4" toJunction="J6" end="240" vehsPerHour="14.468672600742142"/>
  <flow id="JF6977" begin="180" fromJunction="J4" toJunction="J7" end="240" vehsPerHour="21.203297191810073"/>
  <flow id="JF6978" begin="180" fromJunction="J5" toJunction="J4" end="240" vehsPerHour="26.057962425782474"/>
  <flow id="JF6979" begin="180" fromJunction="J5" toJunction="J6" end="240" vehsPerHour="1.026776475657038"/>
  <flow id="JF6980" begin="180" fromJunction="J5" toJunction="J7" end="240" vehsPerHour="55.2616329422494"/>
  <flow id="JF6981" begin="180" fromJunction="J6" toJunction="J3" end="240" vehsPerHour="38.63237728005242"/>
  <flow id="JF6982" begin="180" fromJunction="J6" toJunction="J4" end="240" vehsPerHour="8.44407530708658"/>
  <flow id="JF6983" begin="180" fromJunction="J6" toJunction="J5" end="240" vehsPerHour="28.392766237053188"/>
  <flow id="JF6984" begin="180" fromJunction="J6" toJunction="J7" end="240" vehsPerHour="34.81277674476049"/>
  <flow id="JF6985" begin="180" fromJunction="J7" toJunction="J0" end="240" vehsPerHour="47.15787752372637"/>
  <flow id="JF6986" begin="180" fromJunction="J7" toJunction="J3" end="240" vehsPerHour="19.22551107517084"/>
  <flow id="JF6987" begin="180" fromJunction="J7" toJunction="J5" end="240" vehsPerHour="61.663785258999674"/>
  <flow id="JF6988" begin="180" fromJunction="J7" toJunction="J6" end="240" vehsPerHour="47.52610302715361"/>
  <flow id="JF6989" begin="240" fromJunction="J0" toJunction="J4" end="300" vehsPerHour="20.117872762266988"/>
  <flow id="JF6990" begin="240" fromJunction="J0" toJunction="J5" end="300" vehsPerHour="33.95835240255188"/>
  <flow id="JF6991" begin="240" fromJunction="J0" toJunction="J6" end="300" vehsPerHour="125.21592275916986"/>
  <flow id="JF6992" begin="240" fromJunction="J0" toJunction="J7" end="300" vehsPerHour="36.86500725374006"/>
  <flow id="JF6993" begin="240" fromJunction="J3" toJunction="J0" end="300" vehsPerHour="5.030616630073253"/>
  <flow id="JF6994" begin="240" fromJunction="J3" toJunction="J4" end="300" vehsPerHour="134.55058834352567"/>
  <flow id="JF6995" begin="240" fromJunction="J3" toJunction="J5" end="300" vehsPerHour="104.39993227161926"/>
  <flow id="JF6996" begin="240" fromJunction="J3" toJunction="J6" end="300" vehsPerHour="73.09432078698985"/>
  <flow id="JF6997" begin="240" fromJunction="J3" toJunction="J7" end="300" vehsPerHour="110.77118831650647"/>
  <flow id="JF6998" begin="240" fromJunction="J4" toJunction="J0" end="300" vehsPerHour="30.902117043368456"/>
  <flow id="JF6999" begin="240" fromJunction="J4" toJunction="J3" end="300" vehsPerHour="53.756775384146884"/>
  <flow id="JF7000" begin="240" fromJunction="J4" toJunction="J6" end="300" vehsPerHour="20.58123498017741"/>
  <flow id="JF7001" begin="240" fromJunction="J4" toJunction="J7" end="300" vehsPerHour="67.31583514210786"/>
  <flow id="JF7002" begin="240" fromJunction="J5" toJunction="J0" end="300" vehsPerHour="15.822049891989051"/>
  <flow id="JF7003" begin="240" fromJunction="J5" toJunction="J3" end="300" vehsPerHour="29.605622389166562"/>
  <flow id="JF7004" begin="240" fromJunction="J5" toJunction="J4" end="300" vehsPerHour="36.26546484718132"/>
  <flow id="JF7005" begin="240" fromJunction="J5" toJunction="J6" end="300" vehsPerHour="16.99911744788044"/>
  <flow id="JF7006" begin="240" fromJunction="J5" toJunction="J7" end="300" vehsPerHour="33.203459650386485"/>
  <flow id="JF7007" begin="240" fromJunction="J6" toJunction="J0" end="300" vehsPerHour="53.730505501850864"/>
  <flow id="JF7008" begin="240" fromJunction="J6" toJunction="J4" end="300" vehsPerHour="27.733185998900026"/>
  <flow id="JF7009" begin="240" fromJunction="J6" toJunction="J5" end="300" vehsPerHour="32.387302774968866"/>
  <flow id="JF7010" begin="240" fromJunction="J6" toJunction="J7" end="300" vehsPerHour="0.6658063344025454"/>
  <flow id="JF7011" begin="240" fromJunction="J7" toJunction="J0" end="300" vehsPerHour="16.13212952887275"/>
  <flow id="JF7012" begin="300" fromJunction="J0" toJunction="J3" end="360" vehsPerHour="49.79602142323801"/>
  <flow id="JF7013" begin="300" fromJunction="J0" toJunction="J4" end="360" vehsPerHour="62.13928120276182"/>
  <flow id="JF7014" begin="300" fromJunction="J0" toJunction="J5" end="360" vehsPerHour="129.89103398014302"/>
  <flow id="JF7015" begin="300" fromJunction="J0" toJunction="J6" end="360" vehsPerHour="43.92594636543652"/>
  <flow id="JF7016" begin="300" fromJunction="J3" toJunction="J0" end="360" vehsPerHour="88.9697036222424"/>
  <flow id="JF7017" begin="300" fromJunction="J3" toJunction="J5" end="360" vehsPerHour="41.56681454413151"/>
  <flow id="JF7018" begin="300" fromJunction="J3" toJunction="J6" end="360" vehsPerHour="32.82183555203656"/>
  <flow id="JF7019" begin="300" fromJunction="J5" toJunction="J0" end="360" vehsPerHour="47.9115144112116"/>
  <flow id="JF7020" begin="300" fromJunction="J5" toJunction="J4" end="360" vehsPerHour="28.1880025748819"/>
  <flow id="JF7021" begin="300" fromJunction="J5" toJunction="J7" end="360" vehsPerHour="56.79490363945913"/>
  <flow id="JF7022" begin="300" fromJunction="J6" toJunction="J0" end="360" vehsPerHour="50.31232399368764"/>
  <flow id="JF7023" begin="300" fromJunction="J6" toJunction="J3" end="360" vehsPerHour="25.82251319006058"/>
  <flow id="JF7024" begin="300" fromJunction="J6" toJunction="J5" end="360" vehsPerHour="9.869169689886636"/>
  <flow id="JF7025" begin="300" fromJunction="J6" toJunction="J7" end="360" vehsPerHour="21.46546404198519"/>
  <flow id="JF7026" begin="300" fromJunction="J7" toJunction="J0" end="360" vehsPerHour="32.95043385264043"/>
  <flow id="JF7027" begin="300" fromJunction="J7" toJunction="J3" end="360" vehsPerHour="42.63482287221428"/>
  <flow id="JF7028" begin="300" fromJunction="J7" toJunction="J4" end="360" vehsPerHour="40.28197651446166"/>
  <flow id="JF7029" begin="300" fromJunction="J7" toJunction="J5" end="360" vehsPerHour="4.6223335347863355"/>
  <flow id="JF7030" begin="360" fromJunction="J0" toJunction="J5" end="420" vehsPerHour="90.51939453731421"/>
  <flow id="JF7031" begin="360" fromJunction="J0" toJunction="J7" end="420" vehsPerHour="62.3773313755758"/>
  <flow id="JF7032" begin="360" fromJunction="J3" toJunction="J0" end="420" vehsPerHour="6.761377873587004"/>
  <flow id="JF7033" begin="360" fromJunction="J3" toJunction="J5" end="420" vehsPerHour="95.71356843727081"/>
  <flow id="JF7034" begin="360" fromJunction="J4" toJunction="J0" end="420" vehsPerHour="11.50267116609608"/>
  <flow id="JF7035" begin="360" fromJunction="J4" toJunction="J3" end="420" vehsPerHour="22.18711690954955"/>
  <flow id="JF7036" begin="360" fromJunction="J4" toJunction="J5" end="420" vehsPerHour="63.49554507712345"/>
  <flow id="JF7037" begin="360" fromJunction="J4" toJunction="J6" end="420" vehsPerHour="51.84271752903427"/>
  <flow id="JF7038" begin="360" fromJunction="J4" toJunction="J7" end="420" vehsPerHour="66.76375783708733"/>
  <flow id="JF7039" begin="360" fromJunction="J5" toJunction="J0" end="420" vehsPerHour="38.50624763456219"/>
  <flow id="JF7040" begin="360" fromJunction="J5" toJunction="J6" end="420" vehsPerHour="63.19807726312904"/>
  <flow id="JF7041" begin="360" fromJunction="J5" toJunction="J7" end="420" vehsPerHour="21.68059718133294"/>
  <flow id="JF7042" begin="360" fromJunction="J6" toJunction="J0" end="420" vehsPerHour="11.89057338052416"/>
  <flow id="JF7043" begin="360" fromJunction="J6" toJunction="J3" end="420" vehsPerHour="40.953501015352856"/>
  <flow id="JF7044" begin="360" fromJunction="J6" toJunction="J4" end="420" vehsPerHour="4.213111044369638"/>
  <flow id="JF7045" begin="360" fromJunction="J7" toJunction="J0" end="420" vehsPerHour="28.464798533816513"/>
  <flow id="JF7046" begin="360" fromJunction="J7" toJunction="J3" end="420" vehsPerHour="55.321786239524926"/>
  <flow id="JF7047" begin="360" fromJunction="J7" toJunction="J4" end="420" vehsPerHour="25.733856338724344"/>
  <flow id="JF7048" begin="420" fromJunction="J0" toJunction="J4" end="480" vehsPerHour="71.56474232320863"/>
  <flow id="JF7049" begin="420" fromJunction="J0" toJunction="J5" end="480" vehsPerHour="5.763048354042514"/>
  <flow id="JF7050" begin="420" fromJunction="J0" toJunction="J7" end="480" vehsPerHour="74.24920349336658"/>
  <flow id="JF7051" begin="420" fromJunction="J3" toJunction="J0" end="480" vehsPerHour="61.5999629434766"/>
  <flow id="JF7052" begin="420" fromJunction="J3" toJunction="J4" end="480" vehsPerHour="120.01975569928172"/>
  <flow id="JF7053" begin="420" fromJunction="J3" toJunction="J5" end="480" vehsPerHour="102.40211435374403"/>
  <flow id="JF7054" begin="420" fromJunction="J3" toJunction="J7" end="480" vehsPerHour="53.07847607050232"/>
  <flow id="JF7055" begin="420" fromJunction="J4" toJunction="J3" end="480" vehsPerHour="31.679619774596492"/>
  <flow id="JF7056" begin="420" fromJunction="J4" toJunction="J6" end="480" vehsPerHour="35.07043454319921"/>
  <flow id="JF7057" begin="420" fromJunction="J4" toJunction="J7" end="480" vehsPerHour="51.985893782743396"/>
  <flow id="JF7058" begin="420" fromJunction="J5" toJunction="J0" end="480" vehsPerHour="8.67090711953593"/>
  <flow id="JF7059" begin="420" fromJunction="J5" toJunction="J3" end="480" vehsPerHour="42.43277462323021"/>
  <flow id="JF7060" begin="420" fromJunction="J5" toJunction="J4" end="480" vehsPerHour="53.46021254503431"/>
  <flow id="JF7061" begin="420" fromJunction="J5" toJunction="J6" end="480" vehsPerHour="16.0727856000874"/>
  <flow id="JF7062" begin="420" fromJunction="J5" toJunction="J7" end="480" vehsPerHour="18.49896239348698"/>
  <flow id="JF7063" begin="420" fromJunction="J6" toJunction="J0" end="480" vehsPerHour="64.97768195705162"/>
  <flow id="JF7064" begin="420" fromJunction="J6" toJunction="J3" end="480" vehsPerHour="34.96950657156383"/>
  <flow id="JF7065" begin="420" fromJunction="J6" toJunction="J4" end="480" vehsPerHour="49.28075742645362"/>
  <flow id="JF7066" begin="420" fromJunction="J6" toJunction="J5" end="480" vehsPerHour="3.4642445724539463"/>
  <flow id="JF7067" begin="420" fromJunction="J7" toJunction="J0" end="480" vehsPerHour="46.75451216274269"/>
  <flow id="JF7068" begin="420" fromJunction="J7" toJunction="J4" end="480" vehsPerHour="38.313671117270786"/>
  <flow id="JF7069" begin="420" fromJunction="J7" toJunction="J6" end="480" vehsPerHour="33.172426640522225"/>
  <flow id="JF7070" begin="480" fromJunction="J0" toJunction="J3" end="540" vehsPerHour="99.93684391193335"/>
  <flow id="JF7071" begin="480" fromJunction="J0" toJunction="J4" end="540" vehsPerHour="26.159666673335785"/>
  <flow id="JF7072" begin="480" fromJunction="J0" toJunction="J5" end="540" vehsPerHour="31.34083269571558"/>
  <flow id="JF7073" begin="480" fromJunction="J0" toJunction="J7" end="540" vehsPerHour="128.09651783674957"/>
  <flow id="JF7074" begin="480" fromJunction="J3" toJunction="J0" end="540" vehsPerHour="23.71766232746253"/>
  <flow id="JF7075" begin="480" fromJunction="J3" toJunction="J4" end="540" vehsPerHour="60.46289640653316"/>
  <flow id="JF7076" begin="480" fromJunction="J3" toJunction="J5" end="540" vehsPerHour="46.10984927115167"/>
  <flow id="JF7077" begin="480" fromJunction="J3" toJunction="J6" end="540" vehsPerHour="44.88669276240483"/>
  <flow id="JF7078" begin="480" fromJunction="J4" toJunction="J0" end="540" vehsPerHour="68.10769358139231"/>
  <flow id="JF7079" begin="480" fromJunction="J4" toJunction="J3" end="540" vehsPerHour="57.13758725921472"/>
  <flow id="JF7080" begin="480" fromJunction="J4" toJunction="J5" end="540" vehsPerHour="17.133155239793542"/>
  <flow id="JF7081" begin="480" fromJunction="J4" toJunction="J6" end="540" vehsPerHour="25.346018295884047"/>
  <flow id="JF7082" begin="480" fromJunction="J4" toJunction="J7" end="540" vehsPerHour="13.900070214732775"/>
  <flow id="JF7083" begin="480" fromJunction="J5" toJunction="J0" end="540" vehsPerHour="53.27546846705527"/>
  <flow id="JF7084" begin="480" fromJunction="J5" toJunction="J3" end="540" vehsPerHour="5.265822724490375"/>
  <flow id="JF7085" begin="480" fromJunction="J5" toJunction="J6" end="540" vehsPerHour="20.582069631250157"/>
  <flow id="JF7086" begin="480" fromJunction="J5" toJunction="J7" end="540" vehsPerHour="2.9099682873971338"/>
  <flow id="JF7087" begin="480" fromJunction="J6" toJunction="J0" end="540" vehsPerHour="42.648872103073586"/>
  <flow id="JF7088" begin="480" fromJunction="J6" toJunction="J3" end="540" vehsPerHour="4.11201360009246"/>
  <flow id="JF7089" begin="480" fromJunction="J6" toJunction="J4" end="540" vehsPerHour="29.747589194654164"/>
  <flow id="JF7090" begin="480" fromJunction="J6" toJunction="J5" end="540" vehsPerHour="15.618816314314406"/>
  <flow id="JF7091" begin="480" fromJunction="J6" toJunction="J7" end="540" vehsPerHour="52.85555407580278"/>
  <flow id="JF7092" begin="480" fromJunction="J7" toJunction="J0" end="540" vehsPerHour="30.764934473846843"/>
  <flow id="JF7093" begin="480" fromJunction="J7" toJunction="J3" end="540" vehsPerHour="23.216941446434816"/>
  <flow id="JF7094" begin="480" fromJunction="J7" toJunction="J6" end="540" vehsPerHour="38.50032923166485"/>
  <flow id="JF7095" begin="540" fromJunction="J0" toJunction="J3" end="600" vehsPerHour="32.79224477173032"/>
  <flow id="JF7096" begin="540" fromJunction="J0" toJunction="J4" end="600" vehsPerHour="95.64904695434586"/>
  <flow id="JF7097" begin="540" fromJunction="J0" toJunction="J5" end="600" vehsPerHour="113.80635687410162"/>
  <flow id="JF7098" begin="540" fromJunction="J0" toJunction="J6" end="600" vehsPerHour="43.453773417062145"/>
  <flow id="JF7099" begin="540" fromJunction="J0" toJunction="J7" end="600" vehsPerHour="111.6983425419684"/>
  <flow id="JF7100" begin="540" fromJunction="J3" toJunction="J0" end="600" vehsPerHour="40.56902602907974"/>
  <flow id="JF7101" begin="540" fromJunction="J3" toJunction="J5" end="600" vehsPerHour="129.267783564448"/>
  <flow id="JF7102" begin="540" fromJunction="J4" toJunction="J3" end="600" vehsPerHour="45.16546075495522"/>
  <flow id="JF7103" begin="540" fromJunction="J4" toJunction="J5" end="600" vehsPerHour="44.42253551047665"/>
  <flow id="JF7104" begin="540" fromJunction="J4" toJunction="J6" end="600" vehsPerHour="13.80553482270823"/>
  <flow id="JF7105" begin="540" fromJunction="J5" toJunction="J0" end="600" vehsPerHour="12.836450174949654"/>
  <flow id="JF7106" begin="540" fromJunction="J5" toJunction="J7" end="600" vehsPerHour="66.69381634766617"/>
  <flow id="JF7107" begin="540" fromJunction="J6" toJunction="J0" end="600" vehsPerHour="27.364817178730682"/>
  <flow id="JF7108" begin="540" fromJunction="J6" toJunction="J4" end="600" vehsPerHour="16.289167174318777"/>
  <flow id="JF7109" begin="540" fromJunction="J6" toJunction="J5" end="600" vehsPerHour="17.990321555556434"/>
  <flow id="JF7110" begin="540" fromJunction="J6" toJunction="J7" end="600" vehsPerHour="60.03693539896222"/>
  <flow id="JF7111" begin="540" fromJunction="J7" toJunction="J3" end="600" vehsPerHour="7.561982593908512"/>
  <flow id="JF7112" begin="540" fromJunction="J7" toJunction="J4" end="600" vehsPerHour="18.52928985350844"/>
  <flow id="JF7113" begin="540" fromJunction="J7" toJunction="J5" end="600" vehsPerHour="10.029363895798385"/>
  <flow id="JF7114" begin="540" fromJunction="J7" toJunction="J6" end="600" vehsPerHour="1.2042103514070095"/>
  <flow id="JF7115" begin="600" fromJunction="J0" toJunction="J3" end="660" vehsPerHour="82.95568785846959"/>
  <flow id="JF7116" begin="600" fromJunction="J0" toJunction="J4" end="660" vehsPerHour="134.37672664664905"/>
  <flow id="JF7117" begin="600" fromJunction="J0" toJunction="J5" end="660" vehsPerHour="93.59618483785319"/>
  <flow id="JF7118" begin="600" fromJunction="J3" toJunction="J0" end="660" vehsPerHour="104.62075108001011"/>
  <flow id="JF7119" begin="600" fromJunction="J3" toJunction="J6" end="660" vehsPerHour="5.4865365568718785"/>
  <flow id="JF7120" begin="600" fromJunction="J3" toJunction="J7" end="660" vehsPerHour="134.13092905400245"/>
  <flow id="JF7121" begin="600" fromJunction="J4" toJunction="J0" end="660" vehsPerHour="59.72479837812013"/>
  <flow id="JF7122" begin="600" fromJunction="J4" toJunction="J3" end="660" vehsPerHour="56.358255314946504"/>
  <flow id="JF7123" begin="600" fromJunction="J4" toJunction="J5" end="660" vehsPerHour="17.924554217762925"/>
  <flow id="JF7124" begin="600" fromJunction="J4" toJunction="J7" end="660" vehsPerHour="30.18066862455215"/>
  <flow id="JF7125" begin="600" fromJunction="J5" toJunction="J3" end="660" vehsPerHour="16.46711534670824"/>
  <flow id="JF7126" begin="600" fromJunction="J5" toJunction="J4" end="660" vehsPerHour="48.605733641475716"/>
  <flow id="JF7127" begin="600" fromJunction="J5" toJunction="J6" end="660" vehsPerHour="8.466967980567865"/>
  <flow id="JF7128" begin="600" fromJunction="J5" toJunction="J7" end="660" vehsPerHour="68.53225635831606"/>
  <flow id="JF7129" begin="600" fromJunction="J6" toJunction="J4" end="660" vehsPerHour="20.62646634981619"/>
  <flow id="JF7130" begin="600" fromJunction="J6" toJunction="J5" end="660" vehsPerHour="28.872612277065652"/>
  <flow id="JF7131" begin="600" fromJunction="J6" toJunction="J7" end="660" vehsPerHour="47.75024192623797"/>
  <flow id="JF7132" begin="600" fromJunction="J7" toJunction="J4" end="660" vehsPerHour="33.267350911959646"/>
  <flow id="JF7133" begin="660" fromJunction="J0" toJunction="J3" end="720" vehsPerHour="135.67450278720207"/>
  <flow id="JF7134" begin="660" fromJunction="J0" toJunction="J4" end="720" vehsPerHour="54.93928952290744"/>
  <flow id="JF7135" begin="660" fromJunction="J0" toJunction="J5" end="720" vehsPerHour="95.6154415584759"/>
  <flow id="JF7136" begin="660" fromJunction="J0" toJunction="J6" end="720" vehsPerHour="64.67161476217488"/>
  <flow id="JF7137" begin="660" fromJunction="J0" toJunction="J7" end="720" vehsPerHour="97.99849987470652"/>
  <flow id="JF7138" begin="660" fromJunction="J3" toJunction="J4" end="720" vehsPerHour="92.7114817984065"/>
  <flow id="JF7139" begin="660" fromJunction="J3" toJunction="J6" end="720" vehsPerHour="89.6042783561858"/>
  <flow id="JF7140" begin="660" fromJunction="J3" toJunction="J7" end="720" vehsPerHour="102.44882130792328"/>
  <flow id="JF7141" begin="660" fromJunction="J4" toJunction="J3" end="720" vehsPerHour="10.386005844214242"/>
  <flow id="JF7142" begin="660" fromJunction="J4" toJunction="J5" end="720" vehsPerHour="15.26748992743089"/>
  <flow id="JF7143" begin="660" fromJunction="J4" toJunction="J6" end="720" vehsPerHour="13.537997158566013"/>
  <flow id="JF7144" begin="660" fromJunction="J4" toJunction="J7" end="720" vehsPerHour="25.460437354892406"/>
  <flow id="JF7145" begin="660" fromJunction="J5" toJunction="J0" end="720" vehsPerHour="54.72233819939796"/>
  <flow id="JF7146" begin="660" fromJunction="J5" toJunction="J4" end="720" vehsPerHour="35.562165353067364"/>
  <flow id="JF7147" begin="660" fromJunction="J5" toJunction="J6" end="720" vehsPerHour="9.739183115577402"/>
  <flow id="JF7148" begin="660" fromJunction="J5" toJunction="J7" end="720" vehsPerHour="56.94104129723638"/>
  <flow id="JF7149" begin="660" fromJunction="J6" toJunction="J0" end="720" vehsPerHour="21.902203242754585"/>
  <flow id="JF7150" begin="660" fromJunction="J6" toJunction="J3" end="720" vehsPerHour="47.25514885940552"/>
  <flow id="JF7151" begin="660" fromJunction="J6" toJunction="J5" end="720" vehsPerHour="62.034596059816664"/>
  <flow id="JF7152" begin="660" fromJunction="J7" toJunction="J0" end="720" vehsPerHour="19.678766297805545"/>
  <flow id="JF7153" begin="660" fromJunction="J7" toJunction="J3" end="720" vehsPerHour="24.481871924281315"/>
  <flow id="JF7154" begin="660" fromJunction="J7" toJunction="J5" end="720" vehsPerHour="22.089531869041068"/>
  <flow id="JF7155" begin="660" fromJunction="J7" toJunction="J6" end="720" vehsPerHour="25.73466351400074"/>
  <flow id="JF7156" begin="720" fromJunction="J0" toJunction="J4" end="780" vehsPerHour="8.066590540643798"/>
  <flow id="JF7157" begin="720" fromJunction="J0" toJunction="J5" end="780" vehsPerHour="124.31848663858821"/>
  <flow id="JF7158" begin="720" fromJunction="J0" toJunction="J6" end="780" vehsPerHour="114.23371694136263"/>
  <flow id="JF7159" begin="720" fromJunction="J3" toJunction="J0" end="780" vehsPerHour="3.1781189346232606"/>
  <flow id="JF7160" begin="720" fromJunction="J3" toJunction="J4" end="780" vehsPerHour="104.93049812664192"/>
  <flow id="JF7161" begin="720" fromJunction="J3" toJunction="J5" end="780" vehsPerHour="100.99514431123404"/>
  <flow id="JF7162" begin="720" fromJunction="J3" toJunction="J6" end="780" vehsPerHour="4.5176269479903945"/>
  <flow id="JF7163" begin="720" fromJunction="J3" toJunction="J7" end="780" vehsPerHour="28.878117694398618"/>
  <flow id="JF7164" begin="720" fromJunction="J4" toJunction="J0" end="780" vehsPerHour="9.987507651923416"/>
  <flow id="JF7165" begin="720" fromJunction="J4" toJunction="J3" end="780" vehsPerHour="11.582997532853021"/>
  <flow id="JF7166" begin="720" fromJunction="J4" toJunction="J6" end="780" vehsPerHour="66.71208092283781"/>
  <flow id="JF7167" begin="720" fromJunction="J4" toJunction="J7" end="780" vehsPerHour="22.295060211729435"/>
  <flow id="JF7168" begin="720" fromJunction="J5" toJunction="J3" end="780" vehsPerHour="28.221750537130564"/>
  <flow id="JF7169" begin="720" fromJunction="J5" toJunction="J4" end="780" vehsPerHour="49.83831248094324"/>
  <flow id="JF7170" begin="720" fromJunction="J6" toJunction="J0" end="780" vehsPerHour="3.8732189856258303"/>
  <flow id="JF7171" begin="720" fromJunction="J6" toJunction="J3" end="780" vehsPerHour="1.9922235109211572"/>
  <flow id="JF7172" begin="720" fromJunction="J6" toJunction="J5" end="780" vehsPerHour="26.39223291482321"/>
  <flow id="JF7173" begin="720" fromJunction="J6" toJunction="J7" end="780" vehsPerHour="58.405017204202515"/>
  <flow id="JF7174" begin="720" fromJunction="J7" toJunction="J0" end="780" vehsPerHour="42.26353747728482"/>
  <flow id="JF7175" begin="720" fromJunction="J7" toJunction="J3" end="780" vehsPerHour="29.326613207483607"/>
  <flow id="JF7176" begin="720" fromJunction="J7" toJunction="J5" end="780" vehsPerHour="38.02542232464417"/>
  <flow id="JF7177" begin="720" fromJunction="J7" toJunction="J6" end="780" vehsPerHour="23.716887715151948"/>
  <flow id="JF7178" begin="780" fromJunction="J0" toJunction="J3" end="840" vehsPerHour="78.31886071064163"/>