<?xml version="1.0" encoding="UTF-8"?>
<routes xmlns:xsi="http://www.w3.org/2001/XMLSchema-instance" xsi:noNamespaceSchemaLocation="http://sumo.dlr.de/xsd/routes_file.xsd">
  <flow id="JF10417" begin="0" fromJunction="J0" toJunction="J3" end="60" vehsPerHour="16.30555271156672"/>
  <flow id="JF10418" begin="0" fromJunction="J0" toJunction="J4" end="60" vehsPerHour="91.3205757878375"/>
  <flow id="JF10419" begin="0" fromJunction="J0" toJunction="J7" end="60" vehsPerHour="13.81026942053629"/>
  <flow id="JF10420" begin="0" fromJunction="J3" toJunction="J0" end="60" vehsPerHour="53.25407751330518"/>
  <flow id="JF10421" begin="0" fromJunction="J3" toJunction="J4" end="60" vehsPerHour="102.59914873331239"/>
  <flow id="JF10422" begin="0" fromJunction="J3" toJunction="J6" end="60" vehsPerHour="102.12189518449537"/>
  <flow id="JF10423" begin="0" fromJunction="J3" toJunction="J7" end="60" vehsPerHour="10.077614329351512"/>
  <flow id="JF10424" begin="0" fromJunction="J4" toJunction="J3" end="60" vehsPerHour="17.54197835407673"/>
  <flow id="JF10425" begin="0" fromJunction="J4" toJunction="J5" end="60" vehsPerHour="48.64599918810028"/>
  <flow id="JF10426" begin="0" fromJunction="J4" toJunction="J6" end="60" vehsPerHour="12.048713790378226"/>
  <flow id="JF10427" begin="0" fromJunction="J4" toJunction="J7" end="60" vehsPerHour="20.260158352335832"/>
  <flow id="JF10428" begin="0" fromJunction="J5" toJunction="J0" end="60" vehsPerHour="37.10847921215314"/>
  <flow id="JF10429" begin="0" fromJunction="J5" toJunction="J3" end="60" vehsPerHour="11.591054639513752"/>
  <flow id="JF10430" begin="0" fromJunction="J5" toJunction="J4" end="60" vehsPerHour="36.74436466411379"/>
  <flow id="JF10431" begin="0" fromJunction="J5" toJunction="J6" end="60" vehsPerHour="55.05924314648102"/>
  <flow id="JF10432" begin="0" fromJunction="J5" toJunction="J7" end="60" vehsPerHour="30.036595293590597"/>
  <flow id="JF10433" begin="0" fromJunction="J6" toJunction="J0" end="60" vehsPerHour="15.737647208950007"/>
  <flow id="JF10434" begin="0" fromJunction="J6" toJunction="J4" end="60" vehsPerHour="49.962578245840696"/>
  <flow id="JF10435" begin="0" fromJunction="J6" toJunction="J5" end="60" vehsPerHour="57.228247415889136"/>
  <flow id="JF10436" begin="0" fromJunction="J7" toJunction="J4" end="60" vehsPerHour="11.47560879923853"/>
  <flow id="JF10437" begin="0" fromJunction="J7" toJunction="J6" end="60" vehsPerHour="41.58146041006914"/>
  <flow id="JF10438" begin="60" fromJunction="J0" toJunction="J3" end="120" vehsPerHour="27.21564152236352"/>
  <flow id="JF10439" begin="60" fromJunction="J3" toJunction="J4" end="120" vehsPerHour="66.88549790224067"/>
  <flow id="JF10440" begin="60" fromJunction="J3" toJunction="J6" end="120" vehsPerHour="53.33743928271862"/>
  <flow id="JF10441" begin="60" fromJunction="J4" toJunction="J5" end="120" vehsPerHour="17.359957872349543"/>
  <flow id="JF10442" begin="60" fromJunction="J4" toJunction="J7" end="120" vehsPerHour="34.78161688429415"/>
  <flow id="JF10443" begin="60" fromJunction="J5" toJunction="J0" end="120" vehsPerHour="61.14085482343053"/>
  <flow id="JF10444" begin="60" fromJunction="J5" toJunction="J4" end="120" vehsPerHour="38.656476496962476"/>
  <flow id="JF10445" begin="60" fromJunction="J5" toJunction="J6" end="120" vehsPerHour="18.400693989504155"/>
  <flow id="JF10446" begin="60" fromJunction="J6" toJunction="J0" end="120" vehsPerHour="15.305952074661663"/>
  <flow id="JF10447" begin="60" fromJunction="J6" toJunction="J3" end="120" vehsPerHour="32.70759731105209"/>
  <flow id="JF10448" begin="60" fromJunction="J6" toJunction="J4" end="120" vehsPerHour="59.10361328595833"/>
  <flow id="JF10449" begin="60" fromJunction="J6" toJunction="J5" end="120" vehsPerHour="58.15006811317142"/>
  <flow id="JF10450" begin="60" fromJunction="J7" toJunction="J0" end="120" vehsPerHour="5.909693296790755"/>
  <flow id="JF10451" begin="60" fromJunction="J7" toJunction="J3" end="120" vehsPerHour="4.113700500090378"/>
  <flow id="JF10452" begin="60" fromJunction="J7" toJunction="J4" end="120" vehsPerHour="7.767868064527054"/>
  <flow id="JF10453" begin="60" fromJunction="J7" toJunction="J5" end="120" vehsPerHour="67.8957840742196"/>
  <flow id="JF10454" begin="60" fromJunction="J7" toJunction="J6" end="120" vehsPerHour="7.115068071556282"/>
  <flow id="JF10455" begin="120" fromJunction="J0" toJunction="J4" end="180" vehsPerHour="3.245355770854577"/>
  <flow id="JF10456" begin="120" fromJunction="J0" toJunction="J5" end="180" vehsPerHour="136.6578725090888"/>
  <flow id="JF10457" begin="120" fromJunction="J0" toJunction="J7" end="180" vehsPerHour="19.02281886740669"/>
  <flow id="JF10458" begin="120" fromJunction="J3" toJunction="J0" end="180" vehsPerHour="115.74448371908375"/>
  <flow id="JF10459" begin="120" fromJunction="J3" toJunction="J4" end="180" vehsPerHour="99.8363867586178"/>
  <flow id="JF10460" begin="120" fromJunction="J3" toJunction="J5" end="180" vehsPerHour="75.22181344552664"/>
  <flow id="JF10461" begin="120" fromJunction="J3" toJunction="J6" end="180" vehsPerHour="59.87895243486688"/>
  <flow id="JF10462" begin="120" fromJunction="J3" toJunction="J7" end="180" vehsPerHour="84.60515570084584"/>
  <flow id="JF10463" begin="120" fromJunction="J4" toJunction="J0" end="180" vehsPerHour="32.46239950823958"/>
  <flow id="JF10464" begin="120" fromJunction="J4" toJunction="J5" end="180" vehsPerHour="21.38933399647353"/>
  <flow id="JF10465" begin="120" fromJunction="J4" toJunction="J6" end="180" vehsPerHour="22.444687000200524"/>
  <flow id="JF10466" begin="120" fromJunction="J4" toJunction="J7" end="180" vehsPerHour="45.20949030548765"/>
  <flow id="JF10467" begin="120" fromJunction="J5" toJunction="J0" end="180" vehsPerHour="63.90868041411404"/>
  <flow id="JF10468" begin="120" fromJunction="J5" toJunction="J3" end="180" vehsPerHour="33.02394812964956"/>
  <flow id="JF10469" begin="120" fromJunction="J5" toJunction="J4" end="180" vehsPerHour="55.23838678078314"/>
  <flow id="JF10470" begin="120" fromJunction="J5" toJunction="J6" end="180" vehsPerHour="44.64965210707796"/>
  <flow id="JF10471" begin="120" fromJunction="J6" toJunction="J0" end="180" vehsPerHour="55.597376545460726"/>
  <flow id="JF10472" begin="120" fromJunction="J6" toJunction="J5" end="180" vehsPerHour="18.715847994935107"/>
  <flow id="JF10473" begin="120" fromJunction="J6" toJunction="J7" end="180" vehsPerHour="3.461951946276451"/>
  <flow id="JF10474" begin="120" fromJunction="J7" toJunction="J0" end="180" vehsPerHour="30.301405267541625"/>
  <flow id="JF10475" begin="120" fromJunction="J7" toJunction="J3" end="180" vehsPerHour="2.3572469569609775"/>
  <flow id="JF10476" begin="120" fromJunction="J7" toJunction="J4" end="180" vehsPerHour="25.49266268745785"/>
  <flow id="JF10477" begin="120" fromJunction="J7" toJunction="J5" end="180" vehsPerHour="51.805607615364046"/>
  <flow id="JF10478" begin="120" fromJunction="J7" toJunction="J6" end="180" vehsPerHour="46.25537924508926"/>
  <flow id="JF10479" begin="180" fromJunction="J0" toJunction="J3" end="240" vehsPerHour="3.4985834612992908"/>
  <flow id="JF10480" begin="180" fromJunction="J0" toJunction="J4" end="240" vehsPerHour="72.57694742678497"/>
  <flow id="JF10481" begin="180" fromJunction="J0" toJunction="J7" end="240" vehsPerHour="0.12258219283982655"/>
  <flow id="JF10482" begin="180" fromJunction="J3" toJunction="J0" end="240" vehsPerHour="72.62356677274441"/>
  <flow id="JF10483" begin="180" fromJunction="J3" toJunction="J4" end="240" vehsPerHour="54.59477139091372"/>
  <flow id="JF10484" begin="180" fromJunction="J3" toJunction="J5" end="240" vehsPerHour="110.73969175109802"/>
  <flow id="JF10485" begin="180" fromJunction="J3" toJunction="J6" end="240" vehsPerHour="14.82012205021084"/>
  <flow id="JF10486" begin="180" fromJunction="J3" toJunction="J7" end="240" vehsPerHour="100.46402576819611"/>
  <flow id="JF10487" begin="180" fromJunction="J4" toJunction="J3" end="240" vehsPerHour="5.554107900268487"/>
  <flow id="JF10488" begin="180" fromJunction="J4" toJunction="J6" end="240" vehsPerHour="56.362023499555924"/>
  <flow id="JF10489" begin="180" fromJunction="J5" toJunction="J3" end="240" vehsPerHour="3.448993905979887"/>
  <flow id="JF10490" begin="180" fromJunction="J5" toJunction="J4" end="240" vehsPerHour="31.45745356360141"/>
  <flow id="JF10491" begin="180" fromJunction="J6" toJunction="J0" end="240" vehsPerHour="54.626035046186246"/>
  <flow id="JF10492" begin="180" fromJunction="J6" toJunction="J3" end="240" vehsPerHour="29.007442767679102"/>
  <flow id="JF10493" begin="180" fromJunction="J6" toJunction="J5" end="240" vehsPerHour="27.554304645103944"/>
  <flow id="JF10494" begin="180" fromJunction="J6" toJunction="J7" end="240" vehsPerHour="39.06913083399514"/>
  <flow id="JF10495" begin="180" fromJunction="J7" toJunction="J0" end="240" vehsPerHour="22.108089239207555"/>
  <flow id="JF10496" begin="180" fromJunction="J7" toJunction="J3" end="240" vehsPerHour="17.234776872112967"/>
  <flow id="JF10497" begin="180" fromJunction="J7" toJunction="J4" end="240" vehsPerHour="28.037134233244707"/>
  <flow id="JF10498" begin="180" fromJunction="J7" toJunction="J5" end="240" vehsPerHour="60.576996741206706"/>
  <flow id="JF10499" begin="180" fromJunction="J7" toJunction="J6" end="240" vehsPerHour="38.98788171574568"/>
  <flow id="JF10500" begin="240" fromJunction="J0" toJunction="J3" end="300" vehsPerHour="77.69198529818607"/>
  <flow id="JF10501" begin="240" fromJunction="J0" toJunction="J4" end="300" vehsPerHour="16.081833659147282"/>
  <flow id="JF10502" begin="240" fromJunction="J0" toJunction="J5" end="300" vehsPerHour="131.69138122482673"/>
  <flow id="JF10503" begin="240" fromJunction="J0" toJunction="J6" end="300" vehsPerHour="135.67282028354998"/>
  <flow id="JF10504" begin="240" fromJunction="J0" toJunction="J7" end="300" vehsPerHour="61.325971919840526"/>
  <flow id="JF10505" begin="240" fromJunction="J3" toJunction="J5" end="300" vehsPerHour="70.11599458383942"/>
  <flow id="JF10506" begin="240" fromJunction="J4" toJunction="J0" end="300" vehsPerHour="22.98505601907326"/>
  <flow id="JF10507" begin="240" fromJunction="J4" toJunction="J6" end="300" vehsPerHour="53.5047563269219"/>
  <flow id="JF10508" begin="240" fromJunction="J4" toJunction="J7" end="300" vehsPerHour="29.028332344771925"/>
  <flow id="JF10509" begin="240" fromJunction="J5" toJunction="J3" end="300" vehsPerHour="54.99838692951814"/>
  <flow id="JF10510" begin="240" fromJunction="J5" toJunction="J4" end="300" vehsPerHour="47.74578825781337"/>
  <flow id="JF10511" begin="240" fromJunction="J5" toJunction="J6" end="300" vehsPerHour="39.45541519277032"/>
  <flow id="JF10512" begin="240" fromJunction="J6" toJunction="J4" end="300" vehsPerHour="24.523981933737304"/>
  <flow id="JF10513" begin="240" fromJunction="J6" toJunction="J5" end="300" vehsPerHour="25.87328124374923"/>
  <flow id="JF10514" begin="240" fromJunction="J6" toJunction="J7" end="300" vehsPerHour="30.171056383344638"/>
  <flow id="JF10515" begin="240" fromJunction="J7" toJunction="J4" end="300" vehsPerHour="15.761059125299623"/>
  <flow id="JF10516" begin="240" fromJunction="J7" toJunction="J5" end="300" vehsPerHour="56.55377777616177"/>
  <flow id="JF10517" begin="240" fromJunction="J7" toJunction="J6" end="300" vehsPerHour="63.78516858958778"/>
  <flow id="JF10518" begin="300" fromJunction="J0" toJunction="J3" end="360" vehsPerHour="0.10434332074755065"/>
  <flow id="JF10519" begin="300" fromJunction="J0" toJunction="J4" end="360" vehsPerHour="80.1417696566479"/>
  <flow id="JF10520" begin="300" fromJunction="J0" toJunction="J5" end="360" vehsPerHour="91.08055942043312"/>
  <flow id="JF10521" begin="300" fromJunction="J0" toJunction="J6" end="360" vehsPerHour="113.9404585855949"/>
  <flow id="JF10522" begin="300" fromJunction="J0" toJunction="J7" end="360" vehsPerHour="47.48458837630252"/>
  <flow id="JF10523" begin="300" fromJunction="J3" toJunction="J0" end="360" vehsPerHour="0.017697061169180617"/>
  <flow id="JF10524" begin="300" fromJunction="J3" toJunction="J4" end="360" vehsPerHour="89.78446211965615"/>
  <flow id="JF10525" begin="300" fromJunction="J3" toJunction="J5" end="360" vehsPerHour="53.65341988202041"/>
  <flow id="JF10526" begin="300" fromJunction="J3" toJunction="J6" end="360" vehsPerHour="34.17083845897937"/>
  <flow id="JF10527" begin="300" fromJunction="J3" toJunction="J7" end="360" vehsPerHour="123.73370590114205"/>
  <flow id="JF10528" begin="300" fromJunction="J4" toJunction="J0" end="360" vehsPerHour="56.49802624001558"/>
  <flow id="JF10529" begin="300" fromJunction="J4" toJunction="J5" end="360" vehsPerHour="14.804546025305719"/>
  <flow id="JF10530" begin="300" fromJunction="J4" toJunction="J7" end="360" vehsPerHour="66.06039206295057"/>
  <flow id="JF10531" begin="300" fromJunction="J5" toJunction="J0" end="360" vehsPerHour="28.187022998071164"/>
  <flow id="JF10532" begin="300" fromJunction="J5" toJunction="J3" end="360" vehsPerHour="41.91532946863275"/>
  <flow id="JF10533" begin="300" fromJunction="J5" toJunction="J7" end="360" vehsPerHour="67.36508449990804"/>
  <flow id="JF10534" begin="300" fromJunction="J6" toJunction="J3" end="360" vehsPerHour="25.703988294907653"/>
  <flow id="JF10535" begin="300" fromJunction="J6" toJunction="J4" end="360" vehsPerHour="65.13557839337398"/>
  <flow id="JF10536" begin="300" fromJunction="J7" toJunction="J0" end="360" vehsPerHour="13.445883265696098"/>
  <flow id="JF10537" begin="300" fromJunction="J7" toJunction="J3" end="360" vehsPerHour="41.95765802396116"/>
  <flow id="JF10538" begin="300" fromJunction="J7" toJunction="J5" end="360" vehsPerHour="62.13548798767716"/>
  <flow id="JF10539" begin="300" fromJunction="J7" toJunction="J6" end="360" vehsPerHour="40.40880103835073"/>
  <flow id="JF10540" begin="360" fromJunction="J0" toJunction="J3" end="420" vehsPerHour="88.9963160143943"/>
  <flow id="JF10541" begin="360" fromJunction="J0" toJunction="J4" end="420" vehsPerHour="89.14030313731949"/>
  <flow id="JF10542" begin="360" fromJunction="J0" toJunction="J5" end="420" vehsPerHour="12.04642361327562"/>
  <flow id="JF10543" begin="360" fromJunction="J0" toJunction="J6" end="420" vehsPerHour="115.62070285480189"/>
  <flow id="JF10544" begin="360" fromJunction="J3" toJunction="J0" end="420" vehsPerHour="27.246254227515124"/>
  <flow id="JF10545" begin="360" fromJunction="J3" toJunction="J4" end="420" vehsPerHour="64.08139870379419"/>
  <flow id="JF10546" begin="360" fromJunction="J3" toJunction="J6" end="420" vehsPerHour="6.7896251961374325"/>
  <flow id="JF10547" begin="360" fromJunction="J4" toJunction="J0" end="420" vehsPerHour="26.653569793104587"/>
  <flow id="JF10548" begin="360" fromJunction="J4" toJunction="J5" end="420" vehsPerHour="15.704645338138782"/>
  <flow id="JF10549" begin="360" fromJunction="J4" toJunction="J7" end="420" vehsPerHour="38.59854371244087"/>
  <flow id="JF10550" begin="360" fromJunction="J5" toJunction="J0" end="420" vehsPerHour="36.099395912239764"/>
  <flow id="JF10551" begin="360" fromJunction="J5" toJunction="J3" end="420" vehsPerHour="29.370452630152418"/>
  <flow id="JF10552" begin="360" fromJunction="J5" toJunction="J4" end="420" vehsPerHour="42.59692387690705"/>
  <flow id="JF10553" begin="360" fromJunction="J5" toJunction="J6" end="420" vehsPerHour="64.82422037823517"/>
  <flow id="JF10554" begin="360" fromJunction="J5" toJunction="J7" end="420" vehsPerHour="13.0198275636019"/>
  <flow id="JF10555" begin="360" fromJunction="J6" toJunction="J3" end="420" vehsPerHour="16.41977622440524"/>
  <flow id="JF10556" begin="360" fromJunction="J6" toJunction="J4" end="420" vehsPerHour="0.5056907362837209"/>
  <flow id="JF10557" begin="360" fromJunction="J6" toJunction="J5" end="420" vehsPerHour="3.5439275325015323"/>
  <flow id="JF10558" begin="360" fromJunction="J6" toJunction="J7" end="420" vehsPerHour="20.784047038206268"/>
  <flow id="JF10559" begin="360" fromJunction="J7" toJunction="J0" end="420" vehsPerHour="28.719272785198097"/>
  <flow id="JF10560" begin="360" fromJunction="J7" toJunction="J3" end="420" vehsPerHour="64.42509878597838"/>
  <flow id="JF10561" begin="360" fromJunction="J7" toJunction="J5" end="420" vehsPerHour="22.232520868732898"/>
  <flow id="JF10562" begin="420" fromJunction="J0" toJunction="J3" end="480" vehsPerHour="50.04621400036322"/>
  <flow id="JF10563" begin="420" fromJunction="J0" toJunction="J4" end="480" vehsPerHour="41.34474335869124"/>
  <flow id="JF10564" begin="420" fromJunction="J0" toJunction="J6" end="480" vehsPerHour="74.04430343702982"/>
  <flow id="JF10565" begin="420" fromJunction="J0" toJunction="J7" end="480" vehsPerHour="98.53313867193467"/>
  <flow id="JF10566" begin="420" fromJunction="J3" toJunction="J4" end="480" vehsPerHour="51.35858302683789"/>
  <flow id="JF10567" begin="420" fromJunction="J3" toJunction="J7" end="480" vehsPerHour="112.90087170314561"/>
  <flow id="JF10568" begin="420" fromJunction="J4" toJunction="J0" end="480" vehsPerHour="22.383811220026995"/>
  <flow id="JF10569" begin="420" fromJunction="J4" toJunction="J3" end="480" vehsPerHour="10.659747275642976"/>
  <flow id="JF10570" begin="420" fromJunction="J4" toJunction="J6" end="480" vehsPerHour="50.493219771162856"/>
  <flow id="JF10571" begin="420" fromJunction="J4" toJunction="J7" end="480" vehsPerHour="61.61006634274437"/>
  <flow id="JF10572" begin="420" fromJunction="J5" toJunction="J0" end="480" vehsPerHour="7.684875173124328"/>
  <flow id="JF10573" begin="420" fromJunction="J5" toJunction="J3" end="480" vehsPerHour="56.82883969715608"/>
  <flow id="JF10574" begin="420" fromJunction="J5" toJunction="J4" end="480" vehsPerHour="3.225906873283042"/>
  <flow id="JF10575" begin="420" fromJunction="J5" toJunction="J6" end="480" vehsPerHour="67.21098317085718"/>
  <flow id="JF10576" begin="420" fromJunction="J5" toJunction="J7" end="480" vehsPerHour="27.09498585184001"/>
  <flow id="JF10577" begin="420" fromJunction="J6" toJunction="J0" end="480" vehsPerHour="42.79815794387548"/>
  <flow id="JF10578" begin="420" fromJunction="J6" toJunction="J4" end="480" vehsPerHour="30.086387935214734"/>
  <flow id="JF10579" begin="420" fromJunction="J6" toJunction="J7" end="480" vehsPerHour="11.402384073222935"/>
  <flow id="JF10580" begin="420" fromJunction="J7" toJunction="J0" end="480" vehsPerHour="1.9933919013494208"/>
  <flow id="JF10581" begin="420" fromJunction="J7" toJunction="J3" end="480" vehsPerHour="28.437412473365622"/>
  <flow id="JF10582" begin="420" fromJunction="J7" toJunction="J4" end="480" vehsPerHour="18.40196199812053"/>
  <flow id="JF10583" begin="420" fromJunction="J7" toJunction="J5" end="480" vehsPerHour="67.29947655914226"/>
  <flow id="JF10584" begin="420" fromJunction="J7" toJunction="J6" end="480" vehsPerHour="21.16893837091951"/>
  <flow id="JF10585" begin="480" fromJunction="J0" toJunction="J3" end="540" vehsPerHour="78.73062140244774"/>
  <flow id="JF10586" begin="480" fromJunction="J0" toJunction="J4" end="540" vehsPerHour="19.53603418133218"/>
  <flow id="JF10587" begin="480" fromJunction="J0" toJunction="J5" end="540" vehsPerHour="95.07769909675598"/>
  <flow id="JF10588" begin="480" fromJunction="J0" toJunction="J6" end="540" vehsPerHour="76.18770561829764"/>
  <flow id="JF10589" begin="480" fromJunction="J0" toJunction="J7" end="540" vehsPerHour="136.27786962411798"/>
  <flow id="JF10590" begin="480" fromJunction="J3" toJunction="J0" end="540" vehsPerHour="73.50352810156134"/>
  <flow id="JF10591" begin="480" fromJunction="J3" toJunction="J4" end="540" vehsPerHour="23.589460274827754"/>
  <flow id="JF10592" begin="480" fromJunction="J3" toJunction="J7" end="540" vehsPerHour="76.8505088288931"/>
  <flow id="JF10593" begin="480" fromJunction="J4" toJunction="J3" end="540" vehsPerHour="55.370516445584904"/>
  <flow id="JF10594" begin="480" fromJunction="J4" toJunction="J5" end="540" vehsPerHour="52.41995645276898"/>
  <flow id="JF10595" begin="480" fromJunction="J4" toJunction="J6" end="540" vehsPerHour="28.25041618724947"/>
  <flow id="JF10596" begin="480" fromJunction="J4" toJunction="J7" end="540" vehsPerHour="29.379654951766774"/>
  <flow id="JF10597" begin="480" fromJunction="J5" toJunction="J3" end="540" vehsPerHour="14.312062631714605"/>
  <flow id="JF10598" begin="480" fromJunction="J5" toJunction="J4" end="540" vehsPerHour="33.08616817449952"/>
  <flow id="JF10599" begin="480" fromJunction="J5" toJunction="J6" end="540" vehsPerHour="49.482722481392734"/>
  <flow id="JF10600" begin="480" fromJunction="J5" toJunction="J7" end="540" vehsPerHour="44.841841056288324"/>
  <flow id="JF10601" begin="480" fromJunction="J6" toJunction="J0" end="540" vehsPerHour="20.06616249390129"/>
  <flow id="JF10602" begin="480" fromJunction="J6" toJunction="J4" end="540" vehsPerHour="37.29521950218618"/>
  <flow id="JF10603" begin="480" fromJunction="J6" toJunction="J5" end="540" vehsPerHour="67.09706313509024"/>
  <flow id="JF10604" begin="480" fromJunction="J6" toJunction="J7" end="540" vehsPerHour="48.41492981065897"/>
  <flow id="JF10605" begin="480" fromJunction="J7" toJunction="J0" end="540" vehsPerHour="43.90866439746936"/>
  <flow id="JF10606" begin="480" fromJunction="J7" toJunction="J4" end="540" vehsPerHour="23.901010690492445"/>
  <flow id="JF10607" begin="480" fromJunction="J7" toJunction="J5" end="540" vehsPerHour="54.19783527065002"/>
  <flow id="JF10608" begin="480" fromJunction="J7" toJunction="J6" end="540" vehsPerHour="45.80236161894639"/>
  <flow id="JF10609" begin="540" fromJunction="J0" toJunction="J3" end="600" vehsPerHour="72.23929446200907"/>
  <flow id="JF10610" begin="540" fromJunction="J0" toJunction="J6" end="600" vehsPerHour="113.84101912054145"/>
  <flow id="JF10611" begin="540" fromJunction="J0" toJunction="J7" end="600" vehsPerHour="64.40593753806363"/>
  <flow id="JF10612" begin="540" fromJunction="J3" toJunction="J4" end="600" vehsPerHour="73.140024367302"/>
  <flow id="JF10613" begin="540" fromJunction="J3" toJunction="J5" end="600" vehsPerHour="43.47545604999441"/>
  <flow id="JF10614" begin="540" fromJunction="J3" toJunction="J6" end="600" vehsPerHour="36.12775881593332"/>
  <flow id="JF10615" begin="540" fromJunction="J4" toJunction="J0" end="600" vehsPerHour="63.4195515537311"/>
  <flow id="JF10616" begin="540" fromJunction="J4" toJunction="J5" end="600" vehsPerHour="52.828981855013765"/>
  <flow id="JF10617" begin="540" fromJunction="J4" toJunction="J7" end="600" vehsPerHour="25.260203659486894"/>
  <flow id="JF10618" begin="540" fromJunction="J5" toJunction="J0" end="600" vehsPerHour="49.201122126723554"/>
  <flow id="JF10619" begin="540" fromJunction="J5" toJunction="J3" end="600" vehsPerHour="62.617579467895055"/>
  <flow id="JF10620" begin="540" fromJunction="J5" toJunction="J4" end="600" vehsPerHour="18.32466381195368"/>
  <flow id="JF10621" begin="540" fromJunction="J5" toJunction="J6" end="600" vehsPerHour="5.379788108383586"/>
  <flow id="JF10622" begin="540" fromJunction="J6" toJunction="J0" end="600" vehsPerHour="20.921495370817127"/>
  <flow id="JF10623" begin="540" fromJunction="J6" toJunction="J3" end="600" vehsPerHour="55.27908008757574"/>
  <flow id="JF10624" begin="540" fromJunction="J6" toJunction="J5" end="600" vehsPerHour="9.382093910634703"/>
  <flow id="JF10625" begin="540" fromJunction="J6" toJunction="J7" end="600" vehsPerHour="62.66849704145227"/>
  <flow id="JF10626" begin="540" fromJunction="J7" toJunction="J5" end="600" vehsPerHour="28.112520859662148"/>
  <flow id="JF10627" begin="540" fromJunction="J7" toJunction="J6" end="600" vehsPerHour="10.346960131798907"/>
  <flow id="JF10628" begin="600" fromJunction="J0" toJunction="J3" end="660" vehsPerHour="81.54445695794772"/>
  <flow id="JF10629" begin="600" fromJunction="J0" toJunction="J6" end="660" vehsPerHour="97.55840809798768"/>
  <flow id="JF10630" begin="600" fromJunction="J0" toJunction="J7" end="660" vehsPerHour="60.651525332564965"/>
  <flow id="JF10631" begin="600" fromJunction="J3" toJunction="J0" end="660" vehsPerHour="29.577373401664357"/>
  <flow id="JF10632" begin="600" fromJunction="J3" toJunction="J4" end="660" vehsPerHour="133.1375475185988"/>
  <flow id="JF10633" begin="600" fromJunction="J3" toJunction="J5" end="660" vehsPerHour="122.77760994111212"/>
  <flow id="JF10634" begin="600" fromJunction="J3" toJunction="J6" end="660" vehsPerHour="129.5930139262387"/>
  <flow id="JF10635" begin="600" fromJunction="J4" toJunction="J0" end="660" vehsPerHour="68.3831625179173"/>
  <flow id="JF10636" begin="600" fromJunction="J4" toJunction="J3" end="660" vehsPerHour="63.330042469149596"/>
  <flow id="JF10637" begin="600" fromJunction="J4" toJunction="J5" end="660" vehsPerHour="62.49605509785497"/>
  <flow id="JF10638" begin="600" fromJunction="J4" toJunction="J6" end="660" vehsPerHour="16.813265210748657"/>
  <flow id="JF10639" begin="600" fromJunction="J4" toJunction="J7" end="660" vehsPerHour="26.82464911792922"/>
  <flow id="JF10640" begin="600" fromJunction="J5" toJunction="J0" end="660" vehsPerHour="30.194404477511824"/>
  <flow id="JF10641" begin="600" fromJunction="J5" toJunction="J3" end="660" vehsPerHour="10.477372835691408"/>
  <flow id="JF10642" begin="600" fromJunction="J5" toJunction="J4" end="660" vehsPerHour="21.96372275217446"/>
  <flow id="JF10643" begin="600" fromJunction="J5" toJunction="J6" end="660" vehsPerHour="15.465903051479287"/>
  <flow id="JF10644" begin="600" fromJunction="J6" toJunction="J0" end="660" vehsPerHour="4.581534640456977"/>
  <flow id="JF10645" begin="600" fromJunction="J6" toJunction="J4" end="660" vehsPerHour="55.240773347195685"/>
  <flow id="JF10646" begin="600" fromJunction="J6" toJunction="J5" end="660" vehsPerHour="40.40891880823122"/>
  <flow id="JF10647" begin="600" fromJunction="J6" toJunction="J7" end="660" vehsPerHour="48.20074559876436"/>
  <flow id="JF10648" begin="600" fromJunction="J7" toJunction="J0" end="660" vehsPerHour="7.601787244924229"/>
  <flow id="JF10649" begin="600" fromJunction="J7" toJunction="J4" end="660" vehsPerHour="43.19584752031154"/>
  <flow id="JF10650" begin="660" fromJunction="J0" toJunction="J3" end="720" vehsPerHour="68.17236301091161"/>
  <flow id="JF10651" begin="660" fromJunction="J0" toJunction="J4" end="720" vehsPerHour="107.11650432315433"/>
  <flow id="JF10652" begin="660" fromJunction="J0" toJunction="J5" end="720" vehsPerHour="78.41208278511391"/>
  <flow id="JF10653" begin="660" fromJunction="J0" toJunction="J6" end="720" vehsPerHour="6.808242133928848"/>
  <flow id="JF10654" begin="660" fromJunction="J0" toJunction="J7" end="720" vehsPerHour="134.66164658181697"/>
  <flow id="JF10655" begin="660" fromJunction="J3" toJunction="J0" end="720" vehsPerHour="33.169269458660665"/>
  <flow id="JF10656" begin="660" fromJunction="J3" toJunction="J4" end="720" vehsPerHour="46.64921444336668"/>
  <flow id="JF10657" begin="660" fromJunction="J3" toJunction="J5" end="720" vehsPerHour="86.60442851493808"/>
  <flow id="JF10658" begin="660" fromJunction="J3" toJunction="J6" end="720" vehsPerHour="30.191054331385498"/>
  <flow id="JF10659" begin="660" fromJunction="J3" toJunction="J7" end="720" vehsPerHour="34.958730476288686"/>
  <flow id="JF10660" begin="660" fromJunction="J4" toJunction="J3" end="720" vehsPerHour="27.538957899706425"/>
  <flow id="JF10661" begin="660" fromJunction="J4" toJunction="J5" end="720" vehsPerHour="20.82295821144258"/>
  <flow id="JF10662" begin="660" fromJunction="J4" toJunction="J6" end="720" vehsPerHour="11.494590893128706"/>
  <flow id="JF10663" begin="660" fromJunction="J5" toJunction="J3" end="720" vehsPerHour="40.362073263968824"/>
  <flow id="JF10664" begin="660" fromJunction="J5" toJunction="J6" end="720" vehsPerHour="67.00448570940726"/>
  <flow id="JF10665" begin="660" fromJunction="J5" toJunction="J7" end="720" vehsPerHour="47.50440623151892"/>
  <flow id="JF10666" begin="660" fromJunction="J6" toJunction="J0" end="720" vehsPerHour="57.0540233978472"/>
  <flow id="JF10667" begin="660" fromJunction="J6" toJunction="J3" end="720" vehsPerHour="45.94448833436707"/>
  <flow id="JF10668" begin="660" fromJunction="J6" toJunction="J5" end="720" vehsPerHour="4.94991129638341"/>
  <flow id="JF10669" begin="660" fromJunction="J6" toJunction="J7" end="720" vehsPerHour="52.758320699075725"/>
  <flow id="JF10670" begin="660" fromJunction="J7" toJunction="J0" end="720" vehsPerHour="33.75604834954627"/>
  <flow id="JF10671" begin="660" fromJunction="J7" toJunction="J3" end="720" vehsPerHour="33.81248419718707"/>
  <flow id="JF10672" begin="660" fromJunction="J7" toJunction="J4" end="720" vehsPerHour="1.8003803551183444"/>
  <flow id="JF10673" begin="720" fromJunction="J0" toJunction="J3" end="780" vehsPerHour="22.021076753878837"/>
  <flow id="JF10674" begin="720" fromJunction="J0" toJunction="J4" end="780" vehsPerHour="76.12775757397405"/>
  <flow id="JF10675" begin="720" fromJunction="J0" toJunction="J6" end="780" vehsPerHour="14.503823836582605"/>
  <flow id="JF10676" begin="720" fromJunction="J0" toJunction="J7" end="780" vehsPerHour="83.907085396472"/>
  <flow id="JF10677" begin="720" fromJunction="J3" toJunction="J4" end="780" vehsPerHour="118.1685806717045"/>
  <flow id="JF10678" begin="720" fromJunction="J3" toJunction="J5" end="780" vehsPerHour="127.38184371659268"/>
  <flow id="JF10679" begin="720" fromJunction="J4" toJunction="J0" end="780" vehsPerHour="51.833530102519155"/>
  <flow id="JF10680" begin="720" fromJunction="J4" toJunction="J3" end="780" vehsPerHour="17.494642242815324"/>
  <flow id="JF10681" begin="720" fromJunction="J4" toJunction="J5" end="780" vehsPerHour="2.13028999902319"/>
  <flow id="JF10682" begin="720" fromJunction="J4" toJunction="J6" end="780" vehsPerHour="14.9358135573069"/>
  <flow id="JF10683" begin="720" fromJunction="J4" toJunction="J7" end="780" vehsPerHour="33.2892241806155"/>
  <flow id="JF10684" begin="720" fromJunction="J5" toJunction="J0" end="780" vehsPerHour="62.245420381631014"/>