<?xml version="1.0" encoding="UTF-8"?>
<routes xmlns:xsi="http://www.w3.org/2001/XMLSchema-instance" xsi:noNamespaceSchemaLocation="http://sumo.dlr.de/xsd/routes_file.xsd">
  <flow id="JF3439" begin="0" fromJunction="J0" toJunction="J4" end="60" vehsPerHour="19.041139504248665"/>
  <flow id="JF3440" begin="0" fromJunction="J0" toJunction="J5" end="60" vehsPerHour="18.81310151443321"/>
  <flow id="JF3441" begin="0" fromJunction="J0" toJunction="J6" end="60" vehsPerHour="34.44559562139077"/>
  <flow id="JF3442" begin="0" fromJunction="J0" toJunction="J7" end="60" vehsPerHour="47.19593850429373"/>
  <flow id="JF3443" begin="0" fromJunction="J3" toJunction="J4" end="60" vehsPerHour="120.57530141369101"/>
  <flow id="JF3444" begin="0" fromJunction="J3" toJunction="J5" end="60" vehsPerHour="9.81212681208906"/>
  <flow id="JF3445" begin="0" fromJunction="J3" toJunction="J6" end="60" vehsPerHour="94.46445269874461"/>
  <flow id="JF3446" begin="0" fromJunction="J3" toJunction="J7" end="60" vehsPerHour="52.43635651843547"/>
  <flow id="JF3447" begin="0" fromJunction="J4" toJunction="J0" end="60" vehsPerHour="50.024918046933884"/>
  <flow id="JF3448" begin="0" fromJunction="J4" toJunction="J3" end="60" vehsPerHour="2.579027823765123"/>
  <flow id="JF3449" begin="0" fromJunction="J4" toJunction="J5" end="60" vehsPerHour="30.74153147747567"/>
  <flow id="JF3450" begin="0" fromJunction="J4" toJunction="J6" end="60" vehsPerHour="9.624177597938486"/>
  <flow id="JF3451" begin="0" fromJunction="J5" toJunction="J0" end="60" vehsPerHour="3.941313311261259"/>
  <flow id="JF3452" begin="0" fromJunction="J5" toJunction="J3" end="60" vehsPerHour="42.97449925430538"/>
  <flow id="JF3453" begin="0" fromJunction="J5" toJunction="J4" end="60" vehsPerHour="1.1398019253410543"/>
  <flow id="JF3454" begin="0" fromJunction="J5" toJunction="J7" end="60" vehsPerHour="1.3089006038258952"/>
  <flow id="JF3455" begin="0" fromJunction="J6" toJunction="J3" end="60" vehsPerHour="30.167209375040365"/>
  <flow id="JF3456" begin="0" fromJunction="J6" toJunction="J4" end="60" vehsPerHour="25.13669866304026"/>
  <flow id="JF3457" begin="0" fromJunction="J6" toJunction="J5" end="60" vehsPerHour="16.316389804073896"/>
  <flow id="JF3458" begin="0" fromJunction="J6" toJunction="J7" end="60" vehsPerHour="26.1118334018637"/>
  <flow id="JF3459" begin="0" fromJunction="J7" toJunction="J0" end="60" vehsPerHour="56.261117454411604"/>
  <flow id="JF3460" begin="0" fromJunction="J7" toJunction="J3" end="60" vehsPerHour="44.34657894242788"/>
  <flow id="JF3461" begin="0" fromJunction="J7" toJunction="J5" end="60" vehsPerHour="48.943335187327115"/>
  <flow id="JF3462" begin="0" fromJunction="J7" toJunction="J6" end="60" vehsPerHour="20.29484557533191"/>
  <flow id="JF3463" begin="60" fromJunction="J0" toJunction="J3" end="120" vehsPerHour="11.877833361084194"/>
  <flow id="JF3464" begin="60" fromJunction="J0" toJunction="J4" end="120" vehsPerHour="124.64764277331246"/>
  <flow id="JF3465" begin="60" fromJunction="J0" toJunction="J6" end="120" vehsPerHour="122.76308555168922"/>
  <flow id="JF3466" begin="60" fromJunction="J3" toJunction="J0" end="120" vehsPerHour="13.328713291431697"/>
  <flow id="JF3467" begin="60" fromJunction="J3" toJunction="J5" end="120" vehsPerHour="97.97372478253848"/>
  <flow id="JF3468" begin="60" fromJunction="J3" toJunction="J6" end="120" vehsPerHour="85.6790667807388"/>
  <flow id="JF3469" begin="60" fromJunction="J4" toJunction="J0" end="120" vehsPerHour="52.37057446663614"/>
  <flow id="JF3470" begin="60" fromJunction="J4" toJunction="J3" end="120" vehsPerHour="52.759763955913705"/>
  <flow id="JF3471" begin="60" fromJunction="J4" toJunction="J5" end="120" vehsPerHour="40.69647785429424"/>
  <flow id="JF3472" begin="60" fromJunction="J4" toJunction="J6" end="120" vehsPerHour="43.76616842771458"/>
  <flow id="JF3473" begin="60" fromJunction="J4" toJunction="J7" end="120" vehsPerHour="47.021453683229055"/>
  <flow id="JF3474" begin="60" fromJunction="J5" toJunction="J0" end="120" vehsPerHour="40.00913247240564"/>
  <flow id="JF3475" begin="60" fromJunction="J5" toJunction="J3" end="120" vehsPerHour="56.99923345819355"/>
  <flow id="JF3476" begin="60" fromJunction="J5" toJunction="J4" end="120" vehsPerHour="8.48379049174432"/>
  <flow id="JF3477" begin="60" fromJunction="J5" toJunction="J6" end="120" vehsPerHour="32.70367448971323"/>
  <flow id="JF3478" begin="60" fromJunction="J6" toJunction="J0" end="120" vehsPerHour="7.695151115602345"/>
  <flow id="JF3479" begin="60" fromJunction="J6" toJunction="J3" end="120" vehsPerHour="60.151409241092686"/>
  <flow id="JF3480" begin="60" fromJunction="J6" toJunction="J4" end="120" vehsPerHour="46.8681956253327"/>
  <flow id="JF3481" begin="60" fromJunction="J7" toJunction="J3" end="120" vehsPerHour="29.434187879348563"/>
  <flow id="JF3482" begin="60" fromJunction="J7" toJunction="J4" end="120" vehsPerHour="50.69409627365205"/>
  <flow id="JF3483" begin="60" fromJunction="J7" toJunction="J5" end="120" vehsPerHour="32.79865219670597"/>
  <flow id="JF3484" begin="60" fromJunction="J7" toJunction="J6" end="120" vehsPerHour="63.382923275350024"/>
  <flow id="JF3485" begin="120" fromJunction="J0" toJunction="J4" end="180" vehsPerHour="70.77004258011186"/>
  <flow id="JF3486" begin="120" fromJunction="J0" toJunction="J6" end="180" vehsPerHour="11.084649982119583"/>
  <flow id="JF3487" begin="120" fromJunction="J3" toJunction="J0" end="180" vehsPerHour="119.89541539517813"/>
  <flow id="JF3488" begin="120" fromJunction="J3" toJunction="J5" end="180" vehsPerHour="74.02947743229134"/>
  <flow id="JF3489" begin="120" fromJunction="J3" toJunction="J6" end="180" vehsPerHour="122.89975080747195"/>
  <flow id="JF3490" begin="120" fromJunction="J4" toJunction="J3" end="180" vehsPerHour="58.933960290875035"/>
  <flow id="JF3491" begin="120" fromJunction="J4" toJunction="J5" end="180" vehsPerHour="24.068691299025033"/>
  <flow id="JF3492" begin="120" fromJunction="J4" toJunction="J6" end="180" vehsPerHour="24.027153632043092"/>
  <flow id="JF3493" begin="120" fromJunction="J4" toJunction="J7" end="180" vehsPerHour="5.416736051761711"/>
  <flow id="JF3494" begin="120" fromJunction="J5" toJunction="J0" end="180" vehsPerHour="23.18502421348376"/>
  <flow id="JF3495" begin="120" fromJunction="J5" toJunction="J3" end="180" vehsPerHour="21.036811098978063"/>
  <flow id="JF3496" begin="120" fromJunction="J5" toJunction="J4" end="180" vehsPerHour="8.591399458030285"/>
  <flow id="JF3497" begin="120" fromJunction="J5" toJunction="J6" end="180" vehsPerHour="47.445691551548954"/>
  <flow id="JF3498" begin="120" fromJunction="J5" toJunction="J7" end="180" vehsPerHour="47.786721074451535"/>
  <flow id="JF3499" begin="120" fromJunction="J6" toJunction="J3" end="180" vehsPerHour="48.98344918798255"/>
  <flow id="JF3500" begin="120" fromJunction="J6" toJunction="J4" end="180" vehsPerHour="42.78155375345497"/>
  <flow id="JF3501" begin="120" fromJunction="J6" toJunction="J5" end="180" vehsPerHour="66.14960244047832"/>
  <flow id="JF3502" begin="120" fromJunction="J7" toJunction="J0" end="180" vehsPerHour="2.459860496741324"/>
  <flow id="JF3503" begin="120" fromJunction="J7" toJunction="J3" end="180" vehsPerHour="20.920683652055722"/>
  <flow id="JF3504" begin="120" fromJunction="J7" toJunction="J4" end="180" vehsPerHour="17.852424045058193"/>
  <flow id="JF3505" begin="120" fromJunction="J7" toJunction="J5" end="180" vehsPerHour="28.71854678223786"/>
  <flow id="JF3506" begin="120" fromJunction="J7" toJunction="J6" end="180" vehsPerHour="31.91062180472395"/>
  <flow id="JF3507" begin="180" fromJunction="J0" toJunction="J3" end="240" vehsPerHour="29.595397111611497"/>
  <flow id="JF3508" begin="180" fromJunction="J0" toJunction="J4" end="240" vehsPerHour="127.58743248100312"/>
  <flow id="JF3509" begin="180" fromJunction="J0" toJunction="J5" end="240" vehsPerHour="3.5603431782364368"/>
  <flow id="JF3510" begin="180" fromJunction="J3" toJunction="J7" end="240" vehsPerHour="115.76534119965318"/>
  <flow id="JF3511" begin="180" fromJunction="J4" toJunction="J0" end="240" vehsPerHour="64.4535921297188"/>
  <flow id="JF3512" begin="180" fromJunction="J4" toJunction="J3" end="240" vehsPerHour="21.50511856374399"/>
  <flow id="JF3513" begin="180" fromJunction="J4" toJunction="J6" end="240" vehsPerHour="52.710725879517426"/>
  <flow id="JF3514" begin="180" fromJunction="J4" toJunction="J7" end="240" vehsPerHour="1.2243562497806242"/>
  <flow id="JF3515" begin="180" fromJunction="J5" toJunction="J0" end="240" vehsPerHour="14.378337616938687"/>
  <flow id="JF3516" begin="180" fromJunction="J5" toJunction="J3" end="240" vehsPerHour="34.488598404159745"/>
  <flow id="JF3517" begin="180" fromJunction="J5" toJunction="J4" end="240" vehsPerHour="2.7947409491936797"/>
  <flow id="JF3518" begin="180" fromJunction="J5" toJunction="J6" end="240" vehsPerHour="22.692918990224562"/>
  <flow id="JF3519" begin="180" fromJunction="J6" toJunction="J0" end="240" vehsPerHour="62.705168594813884"/>
  <flow id="JF3520" begin="180" fromJunction="J6" toJunction="J3" end="240" vehsPerHour="59.34590099848927"/>
  <flow id="JF3521" begin="180" fromJunction="J6" toJunction="J7" end="240" vehsPerHour="26.53072166214132"/>
  <flow id="JF3522" begin="180" fromJunction="J7" toJunction="J4" end="240" vehsPerHour="42.77132433134343"/>
  <flow id="JF3523" begin="180" fromJunction="J7" toJunction="J6" end="240" vehsPerHour="49.395453509452565"/>
  <flow id="JF3524" begin="240" fromJunction="J0" toJunction="J3" end="300" vehsPerHour="83.42982625758268"/>
  <flow id="JF3525" begin="240" fromJunction="J0" toJunction="J4" end="300" vehsPerHour="127.18104707377648"/>
  <flow id="JF3526" begin="240" fromJunction="J0" toJunction="J5" end="300" vehsPerHour="42.73757155961454"/>
  <flow id="JF3527" begin="240" fromJunction="J0" toJunction="J7" end="300" vehsPerHour="62.75332845047576"/>
  <flow id="JF3528" begin="240" fromJunction="J3" toJunction="J0" end="300" vehsPerHour="95.83219917266041"/>
  <flow id="JF3529" begin="240" fromJunction="J3" toJunction="J4" end="300" vehsPerHour="24.745386662432306"/>
  <flow id="JF3530" begin="240" fromJunction="J3" toJunction="J5" end="300" vehsPerHour="56.61104505480476"/>
  <flow id="JF3531" begin="240" fromJunction="J3" toJunction="J6" end="300" vehsPerHour="61.223017443120376"/>
  <flow id="JF3532" begin="240" fromJunction="J3" toJunction="J7" end="300" vehsPerHour="35.65293108412718"/>
  <flow id="JF3533" begin="240" fromJunction="J4" toJunction="J0" end="300" vehsPerHour="32.142394097152774"/>
  <flow id="JF3534" begin="240" fromJunction="J4" toJunction="J5" end="300" vehsPerHour="45.63801374196452"/>
  <flow id="JF3535" begin="240" fromJunction="J4" toJunction="J6" end="300" vehsPerHour="35.2175081899243"/>
  <flow id="JF3536" begin="240" fromJunction="J4" toJunction="J7" end="300" vehsPerHour="4.595883073052966"/>
  <flow id="JF3537" begin="240" fromJunction="J5" toJunction="J0" end="300" vehsPerHour="35.65450053368774"/>
  <flow id="JF3538" begin="240" fromJunction="J5" toJunction="J3" end="300" vehsPerHour="41.74338851880156"/>
  <flow id="JF3539" begin="240" fromJunction="J5" toJunction="J6" end="300" vehsPerHour="16.493815180222015"/>
  <flow id="JF3540" begin="240" fromJunction="J5" toJunction="J7" end="300" vehsPerHour="37.83634914125375"/>
  <flow id="JF3541" begin="240" fromJunction="J6" toJunction="J0" end="300" vehsPerHour="8.299192183718164"/>
  <flow id="JF3542" begin="240" fromJunction="J6" toJunction="J3" end="300" vehsPerHour="51.08369679178222"/>
  <flow id="JF3543" begin="240" fromJunction="J6" toJunction="J4" end="300" vehsPerHour="64.73656656384426"/>
  <flow id="JF3544" begin="240" fromJunction="J6" toJunction="J7" end="300" vehsPerHour="23.824035278950305"/>
  <flow id="JF3545" begin="240" fromJunction="J7" toJunction="J3" end="300" vehsPerHour="39.27183251457238"/>
  <flow id="JF3546" begin="240" fromJunction="J7" toJunction="J4" end="300" vehsPerHour="33.67711139017325"/>
  <flow id="JF3547" begin="240" fromJunction="J7" toJunction="J5" end="300" vehsPerHour="62.513307519226665"/>
  <flow id="JF3548" begin="240" fromJunction="J7" toJunction="J6" end="300" vehsPerHour="59.8693782555964"/>
  <flow id="JF3549" begin="300" fromJunction="J0" toJunction="J3" end="360" vehsPerHour="10.206535989983857"/>
  <flow id="JF3550" begin="300" fromJunction="J0" toJunction="J4" end="360" vehsPerHour="4.854245346567067"/>
  <flow id="JF3551" begin="300" fromJunction="J0" toJunction="J5" end="360" vehsPerHour="107.38907403089584"/>
  <flow id="JF3552" begin="300" fromJunction="J0" toJunction="J6" end="360" vehsPerHour="41.35484800318334"/>
  <flow id="JF3553" begin="300" fromJunction="J3" toJunction="J4" end="360" vehsPerHour="75.05660669709532"/>
  <flow id="JF3554" begin="300" fromJunction="J3" toJunction="J5" end="360" vehsPerHour="117.73135979369718"/>
  <flow id="JF3555" begin="300" fromJunction="J3" toJunction="J7" end="360" vehsPerHour="97.02075483048289"/>
  <flow id="JF3556" begin="300" fromJunction="J4" toJunction="J3" end="360" vehsPerHour="53.72983542458656"/>
  <flow id="JF3557" begin="300" fromJunction="J4" toJunction="J7" end="360" vehsPerHour="44.34013373055842"/>
  <flow id="JF3558" begin="300" fromJunction="J5" toJunction="J3" end="360" vehsPerHour="34.20243045928884"/>
  <flow id="JF3559" begin="300" fromJunction="J5" toJunction="J4" end="360" vehsPerHour="19.277347913796092"/>
  <flow id="JF3560" begin="300" fromJunction="J5" toJunction="J6" end="360" vehsPerHour="40.6156160068292"/>
  <flow id="JF3561" begin="300" fromJunction="J5" toJunction="J7" end="360" vehsPerHour="35.37003013983936"/>
  <flow id="JF3562" begin="300" fromJunction="J6" toJunction="J0" end="360" vehsPerHour="29.575717230184132"/>
  <flow id="JF3563" begin="300" fromJunction="J6" toJunction="J3" end="360" vehsPerHour="65.15333426248483"/>
  <flow id="JF3564" begin="300" fromJunction="J6" toJunction="J4" end="360" vehsPerHour="19.378731908658136"/>
  <flow id="JF3565" begin="300" fromJunction="J6" toJunction="J5" end="360" vehsPerHour="49.51288677429848"/>
  <flow id="JF3566" begin="300" fromJunction="J7" toJunction="J0" end="360" vehsPerHour="43.417090993537144"/>
  <flow id="JF3567" begin="300" fromJunction="J7" toJunction="J3" end="360" vehsPerHour="53.81970315808233"/>
  <flow id="JF3568" begin="300" fromJunction="J7" toJunction="J4" end="360" vehsPerHour="40.59977288685655"/>
  <flow id="JF3569" begin="360" fromJunction="J0" toJunction="J5" end="420" vehsPerHour="123.80677249310548"/>
  <flow id="JF3570" begin="360" fromJunction="J0" toJunction="J7" end="420" vehsPerHour="8.858197274764562"/>
  <flow id="JF3571" begin="360" fromJunction="J3" toJunction="J4" end="420" vehsPerHour="12.457319622719162"/>
  <flow id="JF3572" begin="360" fromJunction="J3" toJunction="J5" end="420" vehsPerHour="20.68994597418648"/>
  <flow id="JF3573" begin="360" fromJunction="J3" toJunction="J6" end="420" vehsPerHour="34.061844954623744"/>
  <flow id="JF3574" begin="360" fromJunction="J3" toJunction="J7" end="420" vehsPerHour="56.962821044424324"/>
  <flow id="JF3575" begin="360" fromJunction="J4" toJunction="J0" end="420" vehsPerHour="44.19738470507105"/>
  <flow id="JF3576" begin="360" fromJunction="J4" toJunction="J5" end="420" vehsPerHour="23.52422608100346"/>
  <flow id="JF3577" begin="360" fromJunction="J4" toJunction="J6" end="420" vehsPerHour="30.305024059125223"/>
  <flow id="JF3578" begin="360" fromJunction="J4" toJunction="J7" end="420" vehsPerHour="60.64891938204033"/>
  <flow id="JF3579" begin="360" fromJunction="J5" toJunction="J0" end="420" vehsPerHour="26.306277421695132"/>
  <flow id="JF3580" begin="360" fromJunction="J5" toJunction="J3" end="420" vehsPerHour="8.360383687481882"/>
  <flow id="JF3581" begin="360" fromJunction="J5" toJunction="J7" end="420" vehsPerHour="11.26419031079689"/>
  <flow id="JF3582" begin="360" fromJunction="J6" toJunction="J0" end="420" vehsPerHour="27.849467275387855"/>
  <flow id="JF3583" begin="360" fromJunction="J6" toJunction="J3" end="420" vehsPerHour="43.84399782364007"/>
  <flow id="JF3584" begin="360" fromJunction="J6" toJunction="J4" end="420" vehsPerHour="12.340720753319085"/>
  <flow id="JF3585" begin="360" fromJunction="J6" toJunction="J5" end="420" vehsPerHour="64.41449390191069"/>
  <flow id="JF3586" begin="360" fromJunction="J6" toJunction="J7" end="420" vehsPerHour="29.21916625328636"/>
  <flow id="JF3587" begin="360" fromJunction="J7" toJunction="J3" end="420" vehsPerHour="10.249739770261957"/>
  <flow id="JF3588" begin="360" fromJunction="J7" toJunction="J5" end="420" vehsPerHour="46.78579331304394"/>
  <flow id="JF3589" begin="420" fromJunction="J0" toJunction="J3" end="480" vehsPerHour="132.04441096788634"/>
  <flow id="JF3590" begin="420" fromJunction="J0" toJunction="J4" end="480" vehsPerHour="71.64552834027184"/>
  <flow id="JF3591" begin="420" fromJunction="J0" toJunction="J5" end="480" vehsPerHour="80.98959413806658"/>
  <flow id="JF3592" begin="420" fromJunction="J0" toJunction="J6" end="480" vehsPerHour="33.57526850086555"/>
  <flow id="JF3593" begin="420" fromJunction="J0" toJunction="J7" end="480" vehsPerHour="86.32682795080896"/>
  <flow id="JF3594" begin="420" fromJunction="J3" toJunction="J0" end="480" vehsPerHour="42.43032608068467"/>
  <flow id="JF3595" begin="420" fromJunction="J3" toJunction="J4" end="480" vehsPerHour="120.11298247325702"/>
  <flow id="JF3596" begin="420" fromJunction="J3" toJunction="J5" end="480" vehsPerHour="45.31666620042137"/>
  <flow id="JF3597" begin="420" fromJunction="J3" toJunction="J6" end="480" vehsPerHour="69.00137804098998"/>
  <flow id="JF3598" begin="420" fromJunction="J3" toJunction="J7" end="480" vehsPerHour="73.92198950429393"/>
  <flow id="JF3599" begin="420" fromJunction="J4" toJunction="J0" end="480" vehsPerHour="66.02310630441657"/>
  <flow id="JF3600" begin="420" fromJunction="J4" toJunction="J5" end="480" vehsPerHour="67.8719338781999"/>
  <flow id="JF3601" begin="420" fromJunction="J4" toJunction="J6" end="480" vehsPerHour="32.95391891863518"/>
  <flow id="JF3602" begin="420" fromJunction="J4" toJunction="J7" end="480" vehsPerHour="39.35998253473237"/>
  <flow id="JF3603" begin="420" fromJunction="J5" toJunction="J3" end="480" vehsPerHour="17.60279958743738"/>
  <flow id="JF3604" begin="420" fromJunction="J5" toJunction="J4" end="480" vehsPerHour="12.839274951725242"/>
  <flow id="JF3605" begin="420" fromJunction="J5" toJunction="J7" end="480" vehsPerHour="50.93550033435347"/>
  <flow id="JF3606" begin="420" fromJunction="J6" toJunction="J0" end="480" vehsPerHour="32.79826990453493"/>
  <flow id="JF3607" begin="420" fromJunction="J6" toJunction="J3" end="480" vehsPerHour="33.73236838942391"/>
  <flow id="JF3608" begin="420" fromJunction="J6" toJunction="J4" end="480" vehsPerHour="23.36547123837435"/>
  <flow id="JF3609" begin="420" fromJunction="J6" toJunction="J5" end="480" vehsPerHour="57.2448866406143"/>
  <flow id="JF3610" begin="420" fromJunction="J6" toJunction="J7" end="480" vehsPerHour="16.579830592232707"/>
  <flow id="JF3611" begin="420" fromJunction="J7" toJunction="J0" end="480" vehsPerHour="14.646315228964292"/>
  <flow id="JF3612" begin="420" fromJunction="J7" toJunction="J3" end="480" vehsPerHour="49.2909055336604"/>
  <flow id="JF3613" begin="420" fromJunction="J7" toJunction="J5" end="480" vehsPerHour="16.98332716905629"/>
  <flow id="JF3614" begin="420" fromJunction="J7" toJunction="J6" end="480" vehsPerHour="68.57333858372256"/>
  <flow id="JF3615" begin="480" fromJunction="J0" toJunction="J4" end="540" vehsPerHour="45.83607148039293"/>
  <flow id="JF3616" begin="480" fromJunction="J0" toJunction="J5" end="540" vehsPerHour="32.07094962516474"/>
  <flow id="JF3617" begin="480" fromJunction="J0" toJunction="J6" end="540" vehsPerHour="53.182595979542015"/>
  <flow id="JF3618" begin="480" fromJunction="J0" toJunction="J7" end="540" vehsPerHour="67.44933564049641"/>
  <flow id="JF3619" begin="480" fromJunction="J3" toJunction="J6" end="540" vehsPerHour="84.86757803443862"/>
  <flow id="JF3620" begin="480" fromJunction="J4" toJunction="J0" end="540" vehsPerHour="20.664285335143997"/>
  <flow id="JF3621" begin="480" fromJunction="J4" toJunction="J3" end="540" vehsPerHour="14.850533518657524"/>
  <flow id="JF3622" begin="480" fromJunction="J4" toJunction="J5" end="540" vehsPerHour="58.62269417044534"/>
  <flow id="JF3623" begin="480" fromJunction="J5" toJunction="J0" end="540" vehsPerHour="10.037316741372258"/>
  <flow id="JF3624" begin="480" fromJunction="J5" toJunction="J3" end="540" vehsPerHour="63.051928909233915"/>
  <flow id="JF3625" begin="480" fromJunction="J5" toJunction="J4" end="540" vehsPerHour="19.43000500683255"/>
  <flow id="JF3626" begin="480" fromJunction="J5" toJunction="J7" end="540" vehsPerHour="65.03033480446095"/>
  <flow id="JF3627" begin="480" fromJunction="J6" toJunction="J4" end="540" vehsPerHour="28.281421581705306"/>
  <flow id="JF3628" begin="480" fromJunction="J6" toJunction="J7" end="540" vehsPerHour="53.7022299130315"/>
  <flow id="JF3629" begin="480" fromJunction="J7" toJunction="J0" end="540" vehsPerHour="39.065604267195326"/>
  <flow id="JF3630" begin="480" fromJunction="J7" toJunction="J3" end="540" vehsPerHour="60.9433147559088"/>
  <flow id="JF3631" begin="480" fromJunction="J7" toJunction="J4" end="540" vehsPerHour="7.868659962357357"/>
  <flow id="JF3632" begin="480" fromJunction="J7" toJunction="J5" end="540" vehsPerHour="46.847484160658055"/>
  <flow id="JF3633" begin="480" fromJunction="J7" toJunction="J6" end="540" vehsPerHour="55.832084494961016"/>
  <flow id="JF3634" begin="540" fromJunction="J0" toJunction="J3" end="600" vehsPerHour="69.74541217550288"/>
  <flow id="JF3635" begin="540" fromJunction="J0" toJunction="J6" end="600" vehsPerHour="73.78427278301716"/>
  <flow id="JF3636" begin="540" fromJunction="J0" toJunction="J7" end="600" vehsPerHour="31.815058247297035"/>
  <flow id="JF3637" begin="540" fromJunction="J3" toJunction="J0" end="600" vehsPerHour="34.69906672369935"/>
  <flow id="JF3638" begin="540" fromJunction="J3" toJunction="J4" end="600" vehsPerHour="38.317551638133295"/>
  <flow id="JF3639" begin="540" fromJunction="J3" toJunction="J5" end="600" vehsPerHour="129.77327787446032"/>
  <flow id="JF3640" begin="540" fromJunction="J3" toJunction="J7" end="600" vehsPerHour="131.16417325481117"/>
  <flow id="JF3641" begin="540" fromJunction="J4" toJunction="J0" end="600" vehsPerHour="21.045396849558834"/>
  <flow id="JF3642" begin="540" fromJunction="J4" toJunction="J5" end="600" vehsPerHour="23.06101778912058"/>
  <flow id="JF3643" begin="540" fromJunction="J4" toJunction="J6" end="600" vehsPerHour="44.93296225898794"/>
  <flow id="JF3644" begin="540" fromJunction="J4" toJunction="J7" end="600" vehsPerHour="5.7502465321041925"/>
  <flow id="JF3645" begin="540" fromJunction="J5" toJunction="J0" end="600" vehsPerHour="41.63139911269945"/>
  <flow id="JF3646" begin="540" fromJunction="J5" toJunction="J7" end="600" vehsPerHour="40.00568432881717"/>
  <flow id="JF3647" begin="540" fromJunction="J6" toJunction="J3" end="600" vehsPerHour="3.7365572670377043"/>
  <flow id="JF3648" begin="540" fromJunction="J6" toJunction="J4" end="600" vehsPerHour="52.20951194442336"/>
  <flow id="JF3649" begin="540" fromJunction="J6" toJunction="J5" end="600" vehsPerHour="17.194561100456077"/>
  <flow id="JF3650" begin="540" fromJunction="J6" toJunction="J7" end="600" vehsPerHour="31.090417970546028"/>
  <flow id="JF3651" begin="540" fromJunction="J7" toJunction="J4" end="600" vehsPerHour="57.573830980484075"/>
  <flow id="JF3652" begin="540" fromJunction="J7" toJunction="J5" end="600" vehsPerHour="49.47060833287593"/>
  <flow id="JF3653" begin="540" fromJunction="J7" toJunction="J6" end="600" vehsPerHour="4.1747455191666605"/>
  <flow id="JF3654" begin="600" fromJunction="J0" toJunction="J3" end="660" vehsPerHour="89.86098933525362"/>
  <flow id="JF3655" begin="600" fromJunction="J0" toJunction="J4" end="660" vehsPerHour="19.502345140370444"/>
  <flow id="JF3656" begin="600" fromJunction="J0" toJunction="J5" end="660" vehsPerHour="81.97002394986603"/>
  <flow id="JF3657" begin="600" fromJunction="J0" toJunction="J7" end="660" vehsPerHour="134.64556606694492"/>
  <flow id="JF3658" begin="600" fromJunction="J3" toJunction="J0" end="660" vehsPerHour="48.56232667854663"/>
  <flow id="JF3659" begin="600" fromJunction="J3" toJunction="J4" end="660" vehsPerHour="87.83206109457313"/>
  <flow id="JF3660" begin="600" fromJunction="J3" toJunction="J5" end="660" vehsPerHour="54.239726881581475"/>
  <flow id="JF3661" begin="600" fromJunction="J3" toJunction="J6" end="660" vehsPerHour="29.881189858454263"/>
  <flow id="JF3662" begin="600" fromJunction="J4" toJunction="J0" end="660" vehsPerHour="65.84958234949447"/>
  <flow id="JF3663" begin="600" fromJunction="J4" toJunction="J5" end="660" vehsPerHour="64.92933796030951"/>
  <flow id="JF3664" begin="600" fromJunction="J4" toJunction="J6" end="660" vehsPerHour="18.86726439982288"/>
  <flow id="JF3665" begin="600" fromJunction="J4" toJunction="J7" end="660" vehsPerHour="39.74126066467568"/>
  <flow id="JF3666" begin="600" fromJunction="J5" toJunction="J3" end="660" vehsPerHour="24.53861087353929"/>
  <flow id="JF3667" begin="600" fromJunction="J5" toJunction="J6" end="660" vehsPerHour="64.49513042605398"/>
  <flow id="JF3668" begin="600" fromJunction="J5" toJunction="J7" end="660" vehsPerHour="2.3682648164005045"/>
  <flow id="JF3669" begin="600" fromJunction="J6" toJunction="J3" end="660" vehsPerHour="67.2568836297751"/>
  <flow id="JF3670" begin="600" fromJunction="J6" toJunction="J4" end="660" vehsPerHour="40.20528032458282"/>
  <flow id="JF3671" begin="600" fromJunction="J6" toJunction="J5" end="660" vehsPerHour="36.95459451180911"/>
  <flow id="JF3672" begin="600" fromJunction="J6" toJunction="J7" end="660" vehsPerHour="33.75043728854409"/>
  <flow id="JF3673" begin="600" fromJunction="J7" toJunction="J3" end="660" vehsPerHour="52.87412991785494"/>
  <flow id="JF3674" begin="600" fromJunction="J7" toJunction="J5" end="660" vehsPerHour="60.29012675370224"/>
  <flow id="JF3675" begin="660" fromJunction="J0" toJunction="J3" end="720" vehsPerHour="36.924746591501275"/>
  <flow id="JF3676" begin="660" fromJunction="J0" toJunction="J4" end="720" vehsPerHour="85.6975583506281"/>
  <flow id="JF3677" begin="660" fromJunction="J0" toJunction="J6" end="720" vehsPerHour="124.45120738237298"/>
  <flow id="JF3678" begin="660" fromJunction="J0" toJunction="J7" end="720" vehsPerHour="39.397581336285"/>
  <flow id="JF3679" begin="660" fromJunction="J3" toJunction="J0" end="720" vehsPerHour="67.31401075944252"/>
  <flow id="JF3680" begin="660" fromJunction="J3" toJunction="J7" end="720" vehsPerHour="94.17132150265026"/>
  <flow id="JF3681" begin="660" fromJunction="J4" toJunction="J3" end="720" vehsPerHour="21.636572761738186"/>
  <flow id="JF3682" begin="660" fromJunction="J4" toJunction="J6" end="720" vehsPerHour="52.48940260518523"/>
  <flow id="JF3683" begin="660" fromJunction="J5" toJunction="J0" end="720" vehsPerHour="24.37557657717157"/>
  <flow id="JF3684" begin="660" fromJunction="J5" toJunction="J3" end="720" vehsPerHour="37.849158209988275"/>
  <flow id="JF3685" begin="660" fromJunction="J5" toJunction="J4" end="720" vehsPerHour="58.735653664370425"/>
  <flow id="JF3686" begin="660" fromJunction="J5" toJunction="J6" end="720" vehsPerHour="59.72795166777814"/>
  <flow id="JF3687" begin="660" fromJunction="J5" toJunction="J7" end="720" vehsPerHour="57.72316712462679"/>
  <flow id="JF3688" begin="660" fromJunction="J6" toJunction="J0" end="720" vehsPerHour="17.977836586132305"/>
  <flow id="JF3689" begin="660" fromJunction="J6" toJunction="J4" end="720" vehsPerHour="33.098662854553474"/>
  <flow id="JF3690" begin="660" fromJunction="J6" toJunction="J5" end="720" vehsPerHour="51.06162930098466"/>
  <flow id="JF3691" begin="660" fromJunction="J6" toJunction="J7" end="720" vehsPerHour="23.050114357314875"/>
  <flow id="JF3692" begin="660" fromJunction="J7" toJunction="J3" end="720" vehsPerHour="40.7405146795289"/>
  <flow id="JF3693" begin="660" fromJunction="J7" toJunction="J4" end="720" vehsPerHour="16.334085446825757"/>
  <flow id="JF3694" begin="660" fromJunction="J7" toJunction="J6" end="720" vehsPerHour="50.40187638045701"/>
  <flow id="JF3695" begin="720" fromJunction="J0" toJunction="J4" end="780" vehsPerHour="55.34113573523997"/>
  <flow id="JF3696" begin="720" fromJunction="J0" toJunction="J5" end="780" vehsPerHour="65.99283344603417"/>
  <flow id="JF3697" begin="720" fromJunction="J0" toJunction="J6" end="780" vehsPerHour="39.684271747031346"/>
  <flow id="JF3698" begin="720" fromJunction="J3" toJunction="J4" end="780" vehsPerHour="120.08782711932854"/>
  <flow id="JF3699" begin="720" fromJunction="J3" toJunction="J5" end="780" vehsPerHour="47.800146318932356"/>
  <flow id="JF3700" begin="720" fromJunction="J4" toJunction="J0" end="780" vehsPerHour="41.39365608786578"/>
  <flow id="JF3701" begin="720" fromJunction="J4" toJunction="J3" end="780" vehsPerHour="19.452077837262397"/>
  <flow id="JF3702" begin="720" fromJunction="J4" toJunction="J6" end="780" vehsPerHour="15.38941765964876"/>
  <flow id="JF3703" begin="720" fromJunction="J4" toJunction="J7" end="780" vehsPerHour="1.612649782489304"/>
  <flow id="JF3704" begin="720" fromJunction="J5" toJunction="J0" end="780" vehsPerHour="28.340345560510983"/>
  <flow id="JF3705" begin="720" fromJunction="J5" toJunction="J4" end="780" vehsPerHour="63.676397259233596"/>
  <flow id="JF3706" begin="720" fromJunction="J5" toJunction="J7" end="780" vehsPerHour="24.91480566990133"/>
  <flow id="JF3707" begin="720" fromJunction="J6" toJunction="J0" end="780" vehsPerHour="44.55286990862056"/>
  <flow id="JF3708" begin="720" fromJunction="J6" toJunction="J3" end="780" vehsPerHour="3.465923285358212"/>
  <flow id="JF3709" begin="720" fromJunction="J6" toJunction="J7" end="780" vehsPerHour="19.339745005318086"/>