<?xml version="1.0" encoding="UTF-8"?>
<routes xmlns:xsi="http://www.w3.org/2001/XMLSchema-instance" xsi:noNamespaceSchemaLocation="http://sumo.dlr.de/xsd/routes_file.xsd">
  <flow id="JF0" begin="0" fromJunction="J0" toJunction="J4" end="60" vehsPerHour="40.38758999672181"/>
  <flow id="JF1" begin="0" fromJunction="J0" toJunction="J6" end="60" vehsPerHour="110.97054788532247"/>
  <flow id="JF2" begin="0" fromJunction="J3" toJunction="J0" end="60" vehsPerHour="23.793099286617917"/>
  <flow id="JF3" begin="0" fromJunction="J3" toJunction="J4" end="60" vehsPerHour="74.99959725402317"/>
  <flow id="JF4" begin="0" fromJunction="J3" toJunction="J5" end="60" vehsPerHour="49.77014872882964"/>
  <flow id="JF5" begin="0" fromJunction="J3" toJunction="J7" end="60" vehsPerHour="2.5392751002229264"/>
  <flow id="JF6" begin="0" fromJunction="J4" toJunction="J3" end="60" vehsPerHour="30.94542032170515"/>
  <flow id="JF7" begin="0" fromJunction="J4" toJunction="J7" end="60" vehsPerHour="38.02319714669732"/>
  <flow id="JF8" begin="0" fromJunction="J5" toJunction="J0" end="60" vehsPerHour="67.70440887609308"/>
  <flow id="JF9" begin="0" fromJunction="J5" toJunction="J4" end="60" vehsPerHour="39.003081489403804"/>
  <flow id="JF10" begin="0" fromJunction="J5" toJunction="J6" end="60" vehsPerHour="50.449372096193585"/>
  <flow id="JF11" begin="0" fromJunction="J5" toJunction="J7" end="60" vehsPerHour="6.242586983109421"/>
  <flow id="JF12" begin="0" fromJunction="J6" toJunction="J3" end="60" vehsPerHour="17.08879283449631"/>
  <flow id="JF13" begin="0" fromJunction="J6" toJunction="J5" end="60" vehsPerHour="57.06196038854243"/>
  <flow id="JF14" begin="0" fromJunction="J6" toJunction="J7" end="60" vehsPerHour="6.938471714429892"/>
  <flow id="JF15" begin="0" fromJunction="J7" toJunction="J0" end="60" vehsPerHour="13.891557948315077"/>
  <flow id="JF16" begin="0" fromJunction="J7" toJunction="J3" end="60" vehsPerHour="11.903297147819119"/>
  <flow id="JF17" begin="0" fromJunction="J7" toJunction="J5" end="60" vehsPerHour="60.76155166019862"/>
  <flow id="JF18" begin="60" fromJunction="J0" toJunction="J4" end="120" vehsPerHour="115.48675995052888"/>
  <flow id="JF19" begin="60" fromJunction="J0" toJunction="J5" end="120" vehsPerHour="29.161831344442415"/>
  <flow id="JF20" begin="60" fromJunction="J0" toJunction="J6" end="120" vehsPerHour="24.862485946264467"/>
  <flow id="JF21" begin="60" fromJunction="J0" toJunction="J7" end="120" vehsPerHour="131.16220666264547"/>
  <flow id="JF22" begin="60" fromJunction="J3" toJunction="J0" end="120" vehsPerHour="21.577903293440464"/>
  <flow id="JF23" begin="60" fromJunction="J3" toJunction="J4" end="120" vehsPerHour="37.80332720248633"/>
  <flow id="JF24" begin="60" fromJunction="J3" toJunction="J6" end="120" vehsPerHour="30.174009168216273"/>
  <flow id="JF25" begin="60" fromJunction="J3" toJunction="J7" end="120" vehsPerHour="41.04337334195832"/>
  <flow id="JF26" begin="60" fromJunction="J4" toJunction="J0" end="120" vehsPerHour="56.255998431808926"/>
  <flow id="JF27" begin="60" fromJunction="J4" toJunction="J3" end="120" vehsPerHour="4.217857614473781"/>
  <flow id="JF28" begin="60" fromJunction="J4" toJunction="J6" end="120" vehsPerHour="33.72119004168785"/>
  <flow id="JF29" begin="60" fromJunction="J4" toJunction="J7" end="120" vehsPerHour="9.920931341990476"/>
  <flow id="JF30" begin="60" fromJunction="J5" toJunction="J0" end="120" vehsPerHour="11.283859145645218"/>
  <flow id="JF31" begin="60" fromJunction="J5" toJunction="J7" end="120" vehsPerHour="40.13432800151615"/>
  <flow id="JF32" begin="60" fromJunction="J6" toJunction="J0" end="120" vehsPerHour="32.601673915559985"/>
  <flow id="JF33" begin="60" fromJunction="J6" toJunction="J4" end="120" vehsPerHour="48.08169112705172"/>
  <flow id="JF34" begin="60" fromJunction="J6" toJunction="J5" end="120" vehsPerHour="42.544034930678265"/>
  <flow id="JF35" begin="60" fromJunction="J7" toJunction="J0" end="120" vehsPerHour="55.26992368876647"/>
  <flow id="JF36" begin="60" fromJunction="J7" toJunction="J3" end="120" vehsPerHour="66.21938326538672"/>
  <flow id="JF37" begin="60" fromJunction="J7" toJunction="J4" end="120" vehsPerHour="22.03895853111715"/>
  <flow id="JF38" begin="60" fromJunction="J7" toJunction="J6" end="120" vehsPerHour="24.656700582491915"/>
  <flow id="JF39" begin="120" fromJunction="J0" toJunction="J4" end="180" vehsPerHour="136.71982654085818"/>
  <flow id="JF40" begin="120" fromJunction="J0" toJunction="J5" end="180" vehsPerHour="43.80442035803914"/>
  <flow id="JF41" begin="120" fromJunction="J0" toJunction="J7" end="180" vehsPerHour="26.13456328406601"/>
  <flow id="JF42" begin="120" fromJunction="J3" toJunction="J0" end="180" vehsPerHour="70.06810925559843"/>
  <flow id="JF43" begin="120" fromJunction="J3" toJunction="J4" end="180" vehsPerHour="103.28909722771614"/>
  <flow id="JF44" begin="120" fromJunction="J3" toJunction="J5" end="180" vehsPerHour="36.18696019023737"/>
  <flow id="JF45" begin="120" fromJunction="J3" toJunction="J6" end="180" vehsPerHour="102.54612172821679"/>
  <flow id="JF46" begin="120" fromJunction="J3" toJunction="J7" end="180" vehsPerHour="125.47284536505127"/>
  <flow id="JF47" begin="120" fromJunction="J4" toJunction="J3" end="180" vehsPerHour="12.58301419039279"/>
  <flow id="JF48" begin="120" fromJunction="J4" toJunction="J5" end="180" vehsPerHour="27.468939146680373"/>
  <flow id="JF49" begin="120" fromJunction="J4" toJunction="J6" end="180" vehsPerHour="32.823894024748135"/>
  <flow id="JF50" begin="120" fromJunction="J4" toJunction="J7" end="180" vehsPerHour="30.437886999964636"/>
  <flow id="JF51" begin="120" fromJunction="J5" toJunction="J3" end="180" vehsPerHour="24.4053755131894"/>
  <flow id="JF52" begin="120" fromJunction="J5" toJunction="J6" end="180" vehsPerHour="18.283718186084002"/>
  <flow id="JF53" begin="120" fromJunction="J6" toJunction="J3" end="180" vehsPerHour="49.91926166624876"/>
  <flow id="JF54" begin="120" fromJunction="J6" toJunction="J4" end="180" vehsPerHour="39.6265512654052"/>
  <flow id="JF55" begin="120" fromJunction="J6" toJunction="J5" end="180" vehsPerHour="17.464299837660374"/>
  <flow id="JF56" begin="120" fromJunction="J6" toJunction="J7" end="180" vehsPerHour="11.699253121368047"/>
  <flow id="JF57" begin="120" fromJunction="J7" toJunction="J0" end="180" vehsPerHour="11.282793734533076"/>
  <flow id="JF58" begin="120" fromJunction="J7" toJunction="J3" end="180" vehsPerHour="21.85294200289719"/>
  <flow id="JF59" begin="120" fromJunction="J7" toJunction="J4" end="180" vehsPerHour="33.02383487323123"/>
  <flow id="JF60" begin="120" fromJunction="J7" toJunction="J5" end="180" vehsPerHour="26.685983163563577"/>
  <flow id="JF61" begin="120" fromJunction="J7" toJunction="J6" end="180" vehsPerHour="40.70894255849011"/>
  <flow id="JF62" begin="180" fromJunction="J0" toJunction="J3" end="240" vehsPerHour="5.808945703916559"/>
  <flow id="JF63" begin="180" fromJunction="J0" toJunction="J4" end="240" vehsPerHour="94.28792496443019"/>
  <flow id="JF64" begin="180" fromJunction="J0" toJunction="J5" end="240" vehsPerHour="64.95296565516861"/>
  <flow id="JF65" begin="180" fromJunction="J0" toJunction="J7" end="240" vehsPerHour="23.875631426177126"/>
  <flow id="JF66" begin="180" fromJunction="J3" toJunction="J0" end="240" vehsPerHour="106.64610700498935"/>
  <flow id="JF67" begin="180" fromJunction="J3" toJunction="J4" end="240" vehsPerHour="7.734948858501972"/>
  <flow id="JF68" begin="180" fromJunction="J3" toJunction="J6" end="240" vehsPerHour="108.86450062306477"/>
  <flow id="JF69" begin="180" fromJunction="J3" toJunction="J7" end="240" vehsPerHour="134.77010987484513"/>
  <flow id="JF70" begin="180" fromJunction="J4" toJunction="J0" end="240" vehsPerHour="65.85230650717747"/>
  <flow id="JF71" begin="180" fromJunction="J4" toJunction="J3" end="240" vehsPerHour="23.970651019112974"/>
  <flow id="JF72" begin="180" fromJunction="J4" toJunction="J7" end="240" vehsPerHour="33.14075031805234"/>
  <flow id="JF73" begin="180" fromJunction="J5" toJunction="J0" end="240" vehsPerHour="15.049984772983189"/>
  <flow id="JF74" begin="180" fromJunction="J5" toJunction="J4" end="240" vehsPerHour="53.874558224841614"/>
  <flow id="JF75" begin="180" fromJunction="J5" toJunction="J6" end="240" vehsPerHour="54.38473518961269"/>
  <flow id="JF76" begin="180" fromJunction="J5" toJunction="J7" end="240" vehsPerHour="8.242988556911405"/>
  <flow id="JF77" begin="180" fromJunction="J6" toJunction="J0" end="240" vehsPerHour="52.48487050362431"/>
  <flow id="JF78" begin="180" fromJunction="J6" toJunction="J7" end="240" vehsPerHour="63.39342945855392"/>
  <flow id="JF79" begin="180" fromJunction="J7" toJunction="J0" end="240" vehsPerHour="47.585041587524856"/>
  <flow id="JF80" begin="180" fromJunction="J7" toJunction="J3" end="240" vehsPerHour="58.653744646980094"/>
  <flow id="JF81" begin="180" fromJunction="J7" toJunction="J4" end="240" vehsPerHour="61.15206334294654"/>
  <flow id="JF82" begin="180" fromJunction="J7" toJunction="J5" end="240" vehsPerHour="68.31128436281614"/>
  <flow id="JF83" begin="180" fromJunction="J7" toJunction="J6" end="240" vehsPerHour="50.768866839169036"/>
  <flow id="JF84" begin="240" fromJunction="J0" toJunction="J3" end="300" vehsPerHour="22.37708075662777"/>
  <flow id="JF85" begin="240" fromJunction="J0" toJunction="J4" end="300" vehsPerHour="80.24895417734751"/>
  <flow id="JF86" begin="240" fromJunction="J0" toJunction="J5" end="300" vehsPerHour="20.440416022392988"/>
  <flow id="JF87" begin="240" fromJunction="J0" toJunction="J6" end="300" vehsPerHour="89.4217129566871"/>
  <flow id="JF88" begin="240" fromJunction="J0" toJunction="J7" end="300" vehsPerHour="136.78963132905852"/>
  <flow id="JF89" begin="240" fromJunction="J3" toJunction="J7" end="300" vehsPerHour="107.61645695239018"/>
  <flow id="JF90" begin="240" fromJunction="J4" toJunction="J0" end="300" vehsPerHour="52.68411236278195"/>
  <flow id="JF91" begin="240" fromJunction="J4" toJunction="J5" end="300" vehsPerHour="58.18542371067403"/>
  <flow id="JF92" begin="240" fromJunction="J4" toJunction="J6" end="300" vehsPerHour="25.154256543465035"/>
  <flow id="JF93" begin="240" fromJunction="J5" toJunction="J3" end="300" vehsPerHour="42.36978938835246"/>
  <flow id="JF94" begin="240" fromJunction="J5" toJunction="J6" end="300" vehsPerHour="5.930189538679675"/>
  <flow id="JF95" begin="240" fromJunction="J5" toJunction="J7" end="300" vehsPerHour="8.58791472586148"/>
  <flow id="JF96" begin="240" fromJunction="J6" toJunction="J4" end="300" vehsPerHour="58.30643556887756"/>
  <flow id="JF97" begin="240" fromJunction="J6" toJunction="J7" end="300" vehsPerHour="14.787016310269918"/>
  <flow id="JF98" begin="240" fromJunction="J7" toJunction="J4" end="300" vehsPerHour="8.595416539884335"/>
  <flow id="JF99" begin="240" fromJunction="J7" toJunction="J6" end="300" vehsPerHour="6.142145800743806"/>
  <flow id="JF100" begin="300" fromJunction="J0" toJunction="J3" end="360" vehsPerHour="97.94175638709115"/>
  <flow id="JF101" begin="300" fromJunction="J0" toJunction="J4" end="360" vehsPerHour="13.330219539078794"/>
  <flow id="JF102" begin="300" fromJunction="J0" toJunction="J5" end="360" vehsPerHour="2.508572703455506"/>
  <flow id="JF103" begin="300" fromJunction="J0" toJunction="J6" end="360" vehsPerHour="114.93876195081704"/>
  <flow id="JF104" begin="300" fromJunction="J3" toJunction="J4" end="360" vehsPerHour="111.96595156942556"/>
  <flow id="JF105" begin="300" fromJunction="J3" toJunction="J5" end="360" vehsPerHour="44.56366999901071"/>
  <flow id="JF106" begin="300" fromJunction="J3" toJunction="J6" end="360" vehsPerHour="71.87086070216259"/>
  <flow id="JF107" begin="300" fromJunction="J3" toJunction="J7" end="360" vehsPerHour="118.11922536516937"/>
  <flow id="JF108" begin="300" fromJunction="J4" toJunction="J0" end="360" vehsPerHour="38.12623497877756"/>
  <flow id="JF109" begin="300" fromJunction="J4" toJunction="J3" end="360" vehsPerHour="56.01930242760044"/>
  <flow id="JF110" begin="300" fromJunction="J4" toJunction="J5" end="360" vehsPerHour="55.517438668124186"/>
  <flow id="JF111" begin="300" fromJunction="J5" toJunction="J0" end="360" vehsPerHour="27.85588248818779"/>
  <flow id="JF112" begin="300" fromJunction="J5" toJunction="J4" end="360" vehsPerHour="47.795278690789594"/>
  <flow id="JF113" begin="300" fromJunction="J5" toJunction="J7" end="360" vehsPerHour="31.50802755393005"/>
  <flow id="JF114" begin="300" fromJunction="J6" toJunction="J4" end="360" vehsPerHour="44.41506666332558"/>
  <flow id="JF115" begin="300" fromJunction="J7" toJunction="J0" end="360" vehsPerHour="8.0180847947882"/>
  <flow id="JF116" begin="300" fromJunction="J7" toJunction="J4" end="360" vehsPerHour="22.283093011675867"/>
  <flow id="JF117" begin="300" fromJunction="J7" toJunction="J6" end="360" vehsPerHour="42.26447418029096"/>
  <flow id="JF118" begin="360" fromJunction="J0" toJunction="J3" end="420" vehsPerHour="129.1455888634288"/>
  <flow id="JF119" begin="360" fromJunction="J0" toJunction="J4" end="420" vehsPerHour="137.09922050630473"/>
  <flow id="JF120" begin="360" fromJunction="J0" toJunction="J5" end="420" vehsPerHour="61.19286943877584"/>
  <flow id="JF121" begin="360" fromJunction="J3" toJunction="J6" end="420" vehsPerHour="112.19371168548957"/>
  <flow id="JF122" begin="360" fromJunction="J3" toJunction="J7" end="420" vehsPerHour="92.75854548638992"/>
  <flow id="JF123" begin="360" fromJunction="J4" toJunction="J0" end="420" vehsPerHour="26.590595745059062"/>
  <flow id="JF124" begin="360" fromJunction="J4" toJunction="J5" end="420" vehsPerHour="47.266431977373465"/>
  <flow id="JF125" begin="360" fromJunction="J4" toJunction="J6" end="420" vehsPerHour="34.15824692346921"/>
  <flow id="JF126" begin="360" fromJunction="J4" toJunction="J7" end="420" vehsPerHour="24.24796669413966"/>
  <flow id="JF127" begin="360" fromJunction="J5" toJunction="J0" end="420" vehsPerHour="22.980600674462988"/>
  <flow id="JF128" begin="360" fromJunction="J5" toJunction="J3" end="420" vehsPerHour="51.97713125880607"/>
  <flow id="JF129" begin="360" fromJunction="J5" toJunction="J4" end="420" vehsPerHour="51.151143185597974"/>
  <flow id="JF130" begin="360" fromJunction="J5" toJunction="J6" end="420" vehsPerHour="31.805107298673555"/>
  <flow id="JF131" begin="360" fromJunction="J5" toJunction="J7" end="420" vehsPerHour="20.566474474314095"/>
  <flow id="JF132" begin="360" fromJunction="J6" toJunction="J0" end="420" vehsPerHour="15.511391610509301"/>
  <flow id="JF133" begin="360" fromJunction="J6" toJunction="J7" end="420" vehsPerHour="27.60475035421971"/>
  <flow id="JF134" begin="360" fromJunction="J7" toJunction="J0" end="420" vehsPerHour="13.370714175826135"/>
  <flow id="JF135" begin="360" fromJunction="J7" toJunction="J3" end="420" vehsPerHour="36.98762791916565"/>
  <flow id="JF136" begin="360" fromJunction="J7" toJunction="J5" end="420" vehsPerHour="1.444351802224429"/>
  <flow id="JF137" begin="420" fromJunction="J0" toJunction="J6" end="480" vehsPerHour="41.94544570124728"/>
  <flow id="JF138" begin="420" fromJunction="J3" toJunction="J0" end="480" vehsPerHour="82.26505813359296"/>
  <flow id="JF139" begin="420" fromJunction="J3" toJunction="J5" end="480" vehsPerHour="57.36926916624026"/>
  <flow id="JF140" begin="420" fromJunction="J3" toJunction="J7" end="480" vehsPerHour="128.26905777652254"/>
  <flow id="JF141" begin="420" fromJunction="J4" toJunction="J0" end="480" vehsPerHour="13.887536398699481"/>
  <flow id="JF142" begin="420" fromJunction="J4" toJunction="J3" end="480" vehsPerHour="30.931256675271197"/>
  <flow id="JF143" begin="420" fromJunction="J4" toJunction="J5" end="480" vehsPerHour="1.386927266540417"/>
  <flow id="JF144" begin="420" fromJunction="J4" toJunction="J6" end="480" vehsPerHour="14.63789648390391"/>
  <flow id="JF145" begin="420" fromJunction="J4" toJunction="J7" end="480" vehsPerHour="28.889353620177676"/>
  <flow id="JF146" begin="420" fromJunction="J5" toJunction="J3" end="480" vehsPerHour="56.33444989459763"/>
  <flow id="JF147" begin="420" fromJunction="J5" toJunction="J4" end="480" vehsPerHour="40.36372246306711"/>
  <flow id="JF148" begin="420" fromJunction="J5" toJunction="J6" end="480" vehsPerHour="27.512944540723865"/>
  <flow id="JF149" begin="420" fromJunction="J5" toJunction="J7" end="480" vehsPerHour="37.29039597095898"/>
  <flow id="JF150" begin="420" fromJunction="J6" toJunction="J3" end="480" vehsPerHour="8.190741046651503"/>
  <flow id="JF151" begin="420" fromJunction="J6" toJunction="J5" end="480" vehsPerHour="25.6394602356372"/>
  <flow id="JF152" begin="420" fromJunction="J7" toJunction="J0" end="480" vehsPerHour="29.23309046644804"/>
  <flow id="JF153" begin="420" fromJunction="J7" toJunction="J3" end="480" vehsPerHour="59.26311402146397"/>
  <flow id="JF154" begin="420" fromJunction="J7" toJunction="J4" end="480" vehsPerHour="49.57337634069132"/>
  <flow id="JF155" begin="420" fromJunction="J7" toJunction="J5" end="480" vehsPerHour="38.02515810972035"/>
  <flow id="JF156" begin="420" fromJunction="J7" toJunction="J6" end="480" vehsPerHour="67.65981012346147"/>
  <flow id="JF157" begin="480" fromJunction="J0" toJunction="J3" end="540" vehsPerHour="8.935242762100314"/>
  <flow id="JF158" begin="480" fromJunction="J0" toJunction="J5" end="540" vehsPerHour="75.77260817415898"/>
  <flow id="JF159" begin="480" fromJunction="J0" toJunction="J6" end="540" vehsPerHour="114.76871730023488"/>
  <flow id="JF160" begin="480" fromJunction="J3" toJunction="J4" end="540" vehsPerHour="136.72823955917266"/>
  <flow id="JF161" begin="480" fromJunction="J3" toJunction="J5" end="540" vehsPerHour="83.81896750464209"/>
  <flow id="JF162" begin="480" fromJunction="J3" toJunction="J6" end="540" vehsPerHour="102.64538482054225"/>
  <flow id="JF163" begin="480" fromJunction="J3" toJunction="J7" end="540" vehsPerHour="87.55472960097369"/>
  <flow id="JF164" begin="480" fromJunction="J4" toJunction="J0" end="540" vehsPerHour="30.974740176476978"/>
  <flow id="JF165" begin="480" fromJunction="J4" toJunction="J3" end="540" vehsPerHour="17.95799360204216"/>
  <flow id="JF166" begin="480" fromJunction="J4" toJunction="J5" end="540" vehsPerHour="43.92388521782165"/>
  <flow id="JF167" begin="480" fromJunction="J4" toJunction="J7" end="540" vehsPerHour="48.90809874366156"/>
  <flow id="JF168" begin="480" fromJunction="J5" toJunction="J3" end="540" vehsPerHour="50.40938567772904"/>
  <flow id="JF169" begin="480" fromJunction="J5" toJunction="J4" end="540" vehsPerHour="37.47025961658799"/>
  <flow id="JF170" begin="480" fromJunction="J5" toJunction="J7" end="540" vehsPerHour="28.84448633219183"/>
  <flow id="JF171" begin="480" fromJunction="J6" toJunction="J0" end="540" vehsPerHour="4.62675645114336"/>
  <flow id="JF172" begin="480" fromJunction="J6" toJunction="J3" end="540" vehsPerHour="65.51606865605872"/>
  <flow id="JF173" begin="480" fromJunction="J6" toJunction="J5" end="540" vehsPerHour="5.444098875265431"/>
  <flow id="JF174" begin="480" fromJunction="J6" toJunction="J7" end="540" vehsPerHour="39.80258230551138"/>
  <flow id="JF175" begin="480" fromJunction="J7" toJunction="J4" end="540" vehsPerHour="16.924039741214767"/>
  <flow id="JF176" begin="480" fromJunction="J7" toJunction="J5" end="540" vehsPerHour="57.34750051554225"/>
  <flow id="JF177" begin="540" fromJunction="J0" toJunction="J3" end="600" vehsPerHour="112.17085133676801"/>
  <flow id="JF178" begin="540" fromJunction="J0" toJunction="J4" end="600" vehsPerHour="44.86980794083154"/>
  <flow id="JF179" begin="540" fromJunction="J0" toJunction="J7" end="600" vehsPerHour="10.376549143202912"/>
  <flow id="JF180" begin="540" fromJunction="J3" toJunction="J4" end="600" vehsPerHour="102.82987400788036"/>
  <flow id="JF181" begin="540" fromJunction="J3" toJunction="J5" end="600" vehsPerHour="108.30166938783351"/>
  <flow id="JF182" begin="540" fromJunction="J3" toJunction="J6" end="600" vehsPerHour="64.37797530577006"/>
  <flow id="JF183" begin="540" fromJunction="J3" toJunction="J7" end="600" vehsPerHour="2.3756113974673907"/>
  <flow id="JF184" begin="540" fromJunction="J4" toJunction="J3" end="600" vehsPerHour="3.657604730171711"/>
  <flow id="JF185" begin="540" fromJunction="J4" toJunction="J5" end="600" vehsPerHour="47.299749851128496"/>
  <flow id="JF186" begin="540" fromJunction="J4" toJunction="J7" end="600" vehsPerHour="30.836195814123926"/>
  <flow id="JF187" begin="540" fromJunction="J5" toJunction="J0" end="600" vehsPerHour="66.22404015556567"/>
  <flow id="JF188" begin="540" fromJunction="J5" toJunction="J3" end="600" vehsPerHour="50.43246920393139"/>
  <flow id="JF189" begin="540" fromJunction="J5" toJunction="J4" end="600" vehsPerHour="65.10340109375133"/>
  <flow id="JF190" begin="540" fromJunction="J5" toJunction="J6" end="600" vehsPerHour="67.17928028947168"/>
  <flow id="JF191" begin="540" fromJunction="J6" toJunction="J3" end="600" vehsPerHour="47.84844721735831"/>
  <flow id="JF192" begin="540" fromJunction="J6" toJunction="J4" end="600" vehsPerHour="8.100793098791883"/>
  <flow id="JF193" begin="540" fromJunction="J6" toJunction="J5" end="600" vehsPerHour="44.84096561915011"/>
  <flow id="JF194" begin="540" fromJunction="J6" toJunction="J7" end="600" vehsPerHour="45.2713598585154"/>
  <flow id="JF195" begin="540" fromJunction="J7" toJunction="J0" end="600" vehsPerHour="56.68108644162576"/>
  <flow id="JF196" begin="540" fromJunction="J7" toJunction="J5" end="600" vehsPerHour="11.274764364265547"/>
  <flow id="JF197" begin="600" fromJunction="J0" toJunction="J3" end="660" vehsPerHour="100.50543591378288"/>
  <flow id="JF198" begin="600" fromJunction="J0" toJunction="J6" end="660" vehsPerHour="48.754540406822585"/>
  <flow id="JF199" begin="600" fromJunction="J3" toJunction="J5" end="660" vehsPerHour="117.97739234546208"/>
  <flow id="JF200" begin="600" fromJunction="J3" toJunction="J6" end="660" vehsPerHour="45.99339188972401"/>
  <flow id="JF201" begin="600" fromJunction="J4" toJunction="J0" end="660" vehsPerHour="34.98843136538073"/>
  <flow id="JF202" begin="600" fromJunction="J4" toJunction="J3" end="660" vehsPerHour="29.568491381470917"/>
  <flow id="JF203" begin="600" fromJunction="J4" toJunction="J5" end="660" vehsPerHour="7.881193970951789"/>
  <flow id="JF204" begin="600" fromJunction="J4" toJunction="J7" end="660" vehsPerHour="22.099043145632994"/>
  <flow id="JF205" begin="600" fromJunction="J5" toJunction="J0" end="660" vehsPerHour="0.7565394304871479"/>
  <flow id="JF206" begin="600" fromJunction="J5" toJunction="J3" end="660" vehsPerHour="41.4830688006669"/>
  <flow id="JF207" begin="600" fromJunction="J5" toJunction="J7" end="660" vehsPerHour="30.555658652161856"/>
  <flow id="JF208" begin="600" fromJunction="J6" toJunction="J0" end="660" vehsPerHour="63.26599918116383"/>
  <flow id="JF209" begin="600" fromJunction="J6" toJunction="J5" end="660" vehsPerHour="34.839116274021734"/>
  <flow id="JF210" begin="600" fromJunction="J6" toJunction="J7" end="660" vehsPerHour="31.517445892278726"/>
  <flow id="JF211" begin="600" fromJunction="J7" toJunction="J0" end="660" vehsPerHour="45.305384580089424"/>
  <flow id="JF212" begin="600" fromJunction="J7" toJunction="J5" end="660" vehsPerHour="7.88694213549472"/>
  <flow id="JF213" begin="600" fromJunction="J7" toJunction="J6" end="660" vehsPerHour="55.52492415116051"/>
  <flow id="JF214" begin="660" fromJunction="J0" toJunction="J4" end="720" vehsPerHour="113.83105096536866"/>
  <flow id="JF215" begin="660" fromJunction="J0" toJunction="J5" end="720" vehsPerHour="81.50266515819472"/>
  <flow id="JF216" begin="660" fromJunction="J0" toJunction="J6" end="720" vehsPerHour="124.79306759856027"/>
  <flow id="JF217" begin="660" fromJunction="J3" toJunction="J0" end="720" vehsPerHour="113.33231954458384"/>
  <flow id="JF218" begin="660" fromJunction="J3" toJunction="J5" end="720" vehsPerHour="74.86028209272897"/>
  <flow id="JF219" begin="660" fromJunction="J3" toJunction="J6" end="720" vehsPerHour="93.38119446923663"/>
  <flow id="JF220" begin="660" fromJunction="J4" toJunction="J3" end="720" vehsPerHour="28.622503250873493"/>
  <flow id="JF221" begin="660" fromJunction="J4" toJunction="J5" end="720" vehsPerHour="62.04310054932341"/>
  <flow id="JF222" begin="660" fromJunction="J4" toJunction="J7" end="720" vehsPerHour="25.74072811653652"/>
  <flow id="JF223" begin="660" fromJunction="J5" toJunction="J0" end="720" vehsPerHour="46.61242895601405"/>
  <flow id="JF224" begin="660" fromJunction="J5" toJunction="J3" end="720" vehsPerHour="25.6272411254728"/>
  <flow id="JF225" begin="660" fromJunction="J5" toJunction="J4" end="720" vehsPerHour="51.72273758105716"/>
  <flow id="JF226" begin="660" fromJunction="J5" toJunction="J7" end="720" vehsPerHour="54.78932452371464"/>
  <flow id="JF227" begin="660" fromJunction="J6" toJunction="J0" end="720" vehsPerHour="28.597179719910955"/>
  <flow id="JF228" begin="660" fromJunction="J6" toJunction="J3" end="720" vehsPerHour="17.8152270108333"/>
  <flow id="JF229" begin="660" fromJunction="J6" toJunction="J5" end="720" vehsPerHour="3.3740641878992306"/>
  <flow id="JF230" begin="660" fromJunction="J6" toJunction="J7" end="720" vehsPerHour="48.422003932243086"/>
  <flow id="JF231" begin="660" fromJunction="J7" toJunction="J4" end="720" vehsPerHour="20.43241228334721"/>
  <flow id="JF232" begin="660" fromJunction="J7" toJunction="J5" end="720" vehsPerHour="37.782344501506856"/>
  <flow id="JF233" begin="660" fromJunction="J7" toJunction="J6" end="720" vehsPerHour="19.50624339992935"/>
  <flow id="JF234" begin="720" fromJunction="J0" toJunction="J4" end="780" vehsPerHour="63.78675425160836"/>
  <flow id="JF235" begin="720" fromJunction="J0" toJunction="J5" end="780" vehsPerHour="116.86554804809798"/>
  <flow id="JF236" begin="720" fromJunction="J0" toJunction="J6" end="780" vehsPerHour="66.20585860126383"/>
  <flow id="JF237" begin="720" fromJunction="J3" toJunction="J0" end="780" vehsPerHour="0.5332426572820143"/>
  <flow id="JF238" begin="720" fromJunction="J3" toJunction="J4" end="780" vehsPerHour="137.21651955996757"/>
  <flow id="JF239" begin="720" fromJunction="J3" toJunction="J6" end="780" vehsPerHour="74.59808003378726"/>
  <flow id="JF240" begin="720" fromJunction="J3" toJunction="J7" end="780" vehsPerHour="38.02087375457437"/>
  <flow id="JF241" begin="720" fromJunction="J4" toJunction="J0" end="780" vehsPerHour="4.571705325280517"/>
  <flow id="JF242" begin="720" fromJunction="J4" toJunction="J3" end="780" vehsPerHour="61.694611871391714"/>
  <flow id="JF243" begin="720" fromJunction="J4" toJunction="J6" end="780" vehsPerHour="44.14063423101144"/>
  <flow id="JF244" begin="720" fromJunction="J4" toJunction="J7" end="780" vehsPerHour="37.524994659756764"/>
  <flow id="JF245" begin="720" fromJunction="J5" toJunction="J6" end="780" vehsPerHour="17.99846246346303"/>
  <flow id="JF246" begin="720" fromJunction="J6" toJunction="J0" end="780" vehsPerHour="6.7212214092973195"/>
  <flow id="JF247" begin="720" fromJunction="J6" toJunction="J4" end="780" vehsPerHour="43.038286942767805"/>
  <flow id="JF248" begin="720" fromJunction="J7" toJunction="J4" end="780" vehsPerHour="34.39879817927114"/>
  <flow id="JF249" begin="720" fromJunction="J7" toJunction="J5" end="780" vehsPerHour="0.13994294789892"/>
  <flow id="JF250" begin="780" fromJunction="J0" toJunction="J3" end="840" vehsPerHour="97.59970784596125"/>
  <flow id="JF251" begin="780" fromJunction="J0" toJunction="J4" end="840" vehsPerHour="119.99227798988288"/>
  <flow id="JF252" begin="780" fromJunction="J0" toJunction="J7" end="840" vehsPerHour="126.0814492732759"/>
  <flow id="JF253" begin="780" fromJunction="J3" toJunction="J0" end="840" vehsPerHour="102.43471694299485"/>
  <flow id="JF254" begin="780" fromJunction="J3" toJunction="J5" end="840" vehsPerHour="47.78527224652698"/>
  <flow id="JF255" begin="780" fromJunction="J3" toJunction="J6" end="840" vehsPerHour="60.88451664095749"/>
  <flow id="JF256" begin="780" fromJunction="J4" toJunction="J0" end="840" vehsPerHour="47.82626026833121"/>
  <flow id="JF257" begin="780" fromJunction="J4" toJunction="J3" end="840" vehsPerHour="29.847452998878367"/>
  <flow id="JF258" begin="780" fromJunction="J4" toJunction="J5" end="840" vehsPerHour="38.6290697312467"/>
  <flow id="JF259" begin="780" fromJunction="J4" toJunction="J7" end="840" vehsPerHour="53.74893831821988"/>
  <flow id="JF260" begin="780" fromJunction="J5" toJunction="J0" end="840" vehsPerHour="25.877908128150114"/>
  <flow id="JF261" begin="780" fromJunction="J5" toJunction="J3" end="840" vehsPerHour="41.97550085610065"/>
  <flow id="JF262" begin="780" fromJunction="J5" toJunction="J6" end="840" vehsPerHour="19.73845205324624"/>
  <flow id="JF263" begin="780" fromJunction="J5" toJunction="J7" end="840" vehsPerHour="64.02386511762155"/>
  <flow id="JF264" begin="780" fromJunction="J6" toJunction="J3" end="840" vehsPerHour="51.85934986371518"/>
  <flow id="JF265" begin="780" fromJunction="J6" toJunction="J4" end="840" vehsPerHour="11.614267535802053"/>
  <flow id="JF266" begin="780" fromJunction="J6" toJunction="J7" end="840" vehsPerHour="42.692161828872045"/>
  <flow id="JF267" begin="780" fromJunction="J7" toJunction="J0" end="840" vehsPerHour="13.092881673567561"/>
  <flow id="JF268" begin="780" fromJunction="J7" toJunction="J3" end="840" vehsPerHour="51.50710971009985"/>
  <flow id="JF269" begin="780" fromJunction="J7" toJunction="J6" end="840" vehsPerHour="28.63718648798345"/>
  <flow id="JF270" begin="840" fromJunction="J0" toJunction="J3" end="900" vehsPerHour="87.74479518147504"/>
  <flow id="JF271" begin="840" fromJunction="J0" toJunction="J5" end="900" vehsPerHour="84.24390756766215"/>
  <flow id="JF272" begin="840" fromJunction="J0" toJunction="J6" end="900" vehsPerHour="126.15233653968778"/>
  <flow id="JF273" begin="840" fromJunction="J0" toJunction="J7" end="900" vehsPerHour="32.89580050377196"/>