<?xml version="1.0" encoding="UTF-8"?>
<routes xmlns:xsi="http://www.w3.org/2001/XMLSchema-instance" xsi:noNamespaceSchemaLocation="http://sumo.dlr.de/xsd/routes_file.xsd">
  <flow id="JF0" begin="0" fromJunction="J0" toJunction="J3" end="360" vehsPerHour="36.02475817775532" departLane="free" arrivalSpeed="0.0"/>
  <flow id="JF1" begin="0" fromJunction="J0" toJunction="J4" end="360" vehsPerHour="8.315873546901035" departLane="free" arrivalSpeed="0.0"/>
  <flow id="JF2" begin="0" fromJunction="J0" toJunction="J5" end="360" vehsPerHour="119.63271379974702" departLane="free" arrivalSpeed="0.0"/>
  <flow id="JF3" begin="0" fromJunction="J0" toJunction="J6" end="360" vehsPerHour="32.944072884201184" departLane="free" arrivalSpeed="0.0"/>
  <flow id="JF4" begin="0" fromJunction="J3" toJunction="J0" end="360" vehsPerHour="54.4007415204127" departLane="free" arrivalSpeed="0.0"/>
  <flow id="JF5" begin="0" fromJunction="J3" toJunction="J5" end="360" vehsPerHour="133.2285048436974" departLane="free" arrivalSpeed="0.0"/>
  <flow id="JF6" begin="0" fromJunction="J3" toJunction="J6" end="360" vehsPerHour="102.4398308345973" departLane="free" arrivalSpeed="0.0"/>
  <flow id="JF7" begin="0" fromJunction="J3" toJunction="J7" end="360" vehsPerHour="48.69432062095142" departLane="free" arrivalSpeed="0.0"/>
  <flow id="JF8" begin="0" fromJunction="J4" toJunction="J3" end="360" vehsPerHour="29.824170631157248" departLane="free" arrivalSpeed="0.0"/>
  <flow id="JF9" begin="0" fromJunction="J4" toJunction="J6" end="360" vehsPerHour="51.02986390135192" departLane="free" arrivalSpeed="0.0"/>
  <flow id="JF10" begin="0" fromJunction="J4" toJunction="J7" end="360" vehsPerHour="21.713586169826414" departLane="free" arrivalSpeed="0.0"/>
  <flow id="JF11" begin="0" fromJunction="J5" toJunction="J3" end="360" vehsPerHour="19.894536540614357" departLane="free" arrivalSpeed="0.0"/>
  <flow id="JF12" begin="0" fromJunction="J5" toJunction="J4" end="360" vehsPerHour="27.266094966994054" departLane="free" arrivalSpeed="0.0"/>
  <flow id="JF13" begin="0" fromJunction="J5" toJunction="J6" end="360" vehsPerHour="31.388749079611223" departLane="free" arrivalSpeed="0.0"/>
  <flow id="JF14" begin="0" fromJunction="J6" toJunction="J0" end="360" vehsPerHour="2.3820989684503906" departLane="free" arrivalSpeed="0.0"/>
  <flow id="JF15" begin="0" fromJunction="J6" toJunction="J3" end="360" vehsPerHour="17.943270943822863" departLane="free" arrivalSpeed="0.0"/>
  <flow id="JF16" begin="0" fromJunction="J6" toJunction="J4" end="360" vehsPerHour="67.03821169501855" departLane="free" arrivalSpeed="0.0"/>
  <flow id="JF17" begin="0" fromJunction="J6" toJunction="J5" end="360" vehsPerHour="37.89183081197419" departLane="free" arrivalSpeed="0.0"/>
  <flow id="JF18" begin="0" fromJunction="J6" toJunction="J7" end="360" vehsPerHour="56.414574377182895" departLane="free" arrivalSpeed="0.0"/>
  <flow id="JF19" begin="0" fromJunction="J7" toJunction="J0" end="360" vehsPerHour="17.299750255668954" departLane="free" arrivalSpeed="0.0"/>
  <flow id="JF20" begin="0" fromJunction="J7" toJunction="J3" end="360" vehsPerHour="41.88193460502863" departLane="free" arrivalSpeed="0.0"/>
  <flow id="JF21" begin="0" fromJunction="J7" toJunction="J4" end="360" vehsPerHour="15.291631907964595" departLane="free" arrivalSpeed="0.0"/>
  <flow id="JF22" begin="0" fromJunction="J7" toJunction="J5" end="360" vehsPerHour="30.80969709026381" departLane="free" arrivalSpeed="0.0"/>
  <flow id="JF23" begin="360" fromJunction="J0" toJunction="J3" end="720" vehsPerHour="95.3356423470215" departLane="free" arrivalSpeed="0.0"/>
  <flow id="JF24" begin="360" fromJunction="J0" toJunction="J4" end="720" vehsPerHour="136.64878723021295" departLane="free" arrivalSpeed="0.0"/>
  <flow id="JF25" begin="360" fromJunction="J0" toJunction="J5" end="720" vehsPerHour="45.54207273476483" departLane="free" arrivalSpeed="0.0"/>
  <flow id="JF26" begin="360" fromJunction="J0" toJunction="J6" end="720" vehsPerHour="95.0901078504112" departLane="free" arrivalSpeed="0.0"/>
  <flow id="JF27" begin="360" fromJunction="J3" toJunction="J0" end="720" vehsPerHour="114.43648878363497" departLane="free" arrivalSpeed="0.0"/>
  <flow id="JF28" begin="360" fromJunction="J3" toJunction="J4" end="720" vehsPerHour="114.37457963143021" departLane="free" arrivalSpeed="0.0"/>
  <flow id="JF29" begin="360" fromJunction="J3" toJunction="J5" end="720" vehsPerHour="89.3213598210146" departLane="free" arrivalSpeed="0.0"/>
  <flow id="JF30" begin="360" fromJunction="J3" toJunction="J6" end="720" vehsPerHour="72.97970110139502" departLane="free" arrivalSpeed="0.0"/>
  <flow id="JF31" begin="360" fromJunction="J3" toJunction="J7" end="720" vehsPerHour="0.970299112145296" departLane="free" arrivalSpeed="0.0"/>
  <flow id="JF32" begin="360" fromJunction="J4" toJunction="J6" end="720" vehsPerHour="58.51144054727442" departLane="free" arrivalSpeed="0.0"/>
  <flow id="JF33" begin="360" fromJunction="J4" toJunction="J7" end="720" vehsPerHour="28.464066804511077" departLane="free" arrivalSpeed="0.0"/>
  <flow id="JF34" begin="360" fromJunction="J5" toJunction="J0" end="720" vehsPerHour="9.334168185300392" departLane="free" arrivalSpeed="0.0"/>
  <flow id="JF35" begin="360" fromJunction="J5" toJunction="J3" end="720" vehsPerHour="51.14319901351981" departLane="free" arrivalSpeed="0.0"/>
  <flow id="JF36" begin="360" fromJunction="J5" toJunction="J7" end="720" vehsPerHour="16.805111517569294" departLane="free" arrivalSpeed="0.0"/>
  <flow id="JF37" begin="360" fromJunction="J6" toJunction="J0" end="720" vehsPerHour="56.4996919573319" departLane="free" arrivalSpeed="0.0"/>
  <flow id="JF38" begin="360" fromJunction="J6" toJunction="J3" end="720" vehsPerHour="25.556150081066406" departLane="free" arrivalSpeed="0.0"/>
  <flow id="JF39" begin="360" fromJunction="J6" toJunction="J4" end="720" vehsPerHour="22.53267703132769" departLane="free" arrivalSpeed="0.0"/>
  <flow id="JF40" begin="360" fromJunction="J6" toJunction="J5" end="720" vehsPerHour="34.555001682834956" departLane="free" arrivalSpeed="0.0"/>
  <flow id="JF41" begin="360" fromJunction="J6" toJunction="J7" end="720" vehsPerHour="12.193824075290918" departLane="free" arrivalSpeed="0.0"/>
  <flow id="JF42" begin="360" fromJunction="J7" toJunction="J0" end="720" vehsPerHour="3.7209399538292987" departLane="free" arrivalSpeed="0.0"/>
  <flow id="JF43" begin="360" fromJunction="J7" toJunction="J3" end="720" vehsPerHour="28.939908682800787" departLane="free" arrivalSpeed="0.0"/>
  <flow id="JF44" begin="360" fromJunction="J7" toJunction="J4" end="720" vehsPerHour="45.48678751854861" departLane="free" arrivalSpeed="0.0"/>
  <flow id="JF45" begin="360" fromJunction="J7" toJunction="J5" end="720" vehsPerHour="36.14390235797488" departLane="free" arrivalSpeed="0.0"/>
  <flow id="JF46" begin="360" fromJunction="J7" toJunction="J6" end="720" vehsPerHour="36.8513217926189" departLane="free" arrivalSpeed="0.0"/>
  <flow id="JF47" begin="720" fromJunction="J0" toJunction="J3" end="1080" vehsPerHour="69.49067255602958" departLane="free" arrivalSpeed="0.0"/>
  <flow id="JF48" begin="720" fromJunction="J0" toJunction="J6" end="1080" vehsPerHour="16.562710403030334" departLane="free" arrivalSpeed="0.0"/>
  <flow id="JF49" begin="720" fromJunction="J0" toJunction="J7" end="1080" vehsPerHour="11.593155305852346" departLane="free" arrivalSpeed="0.0"/>
  <flow id="JF50" begin="720" fromJunction="J3" toJunction="J0" end="1080" vehsPerHour="90.20684516410788" departLane="free" arrivalSpeed="0.0"/>
  <flow id="JF51" begin="720" fromJunction="J3" toJunction="J4" end="1080" vehsPerHour="3.7032130849244713" departLane="free" arrivalSpeed="0.0"/>
  <flow id="JF52" begin="720" fromJunction="J3" toJunction="J5" end="1080" vehsPerHour="84.84857103036754" departLane="free" arrivalSpeed="0.0"/>
  <flow id="JF53" begin="720" fromJunction="J3" toJunction="J6" end="1080" vehsPerHour="5.868570504266811" departLane="free" arrivalSpeed="0.0"/>
  <flow id="JF54" begin="720" fromJunction="J3" toJunction="J7" end="1080" vehsPerHour="95.10064622071519" departLane="free" arrivalSpeed="0.0"/>
  <flow id="JF55" begin="720" fromJunction="J4" toJunction="J3" end="1080" vehsPerHour="53.32675663758581" departLane="free" arrivalSpeed="0.0"/>
  <flow id="JF56" begin="720" fromJunction="J4" toJunction="J6" end="1080" vehsPerHour="4.734052730761698" departLane="free" arrivalSpeed="0.0"/>
  <flow id="JF57" begin="720" fromJunction="J5" toJunction="J0" end="1080" vehsPerHour="27.646387330279687" departLane="free" arrivalSpeed="0.0"/>
  <flow id="JF58" begin="720" fromJunction="J5" toJunction="J4" end="1080" vehsPerHour="11.801686009286005" departLane="free" arrivalSpeed="0.0"/>
  <flow id="JF59" begin="720" fromJunction="J5" toJunction="J7" end="1080" vehsPerHour="3.9861011230699566" departLane="free" arrivalSpeed="0.0"/>
  <flow id="JF60" begin="720" fromJunction="J6" toJunction="J3" end="1080" vehsPerHour="38.35001913466644" departLane="free" arrivalSpeed="0.0"/>
  <flow id="JF61" begin="720" fromJunction="J6" toJunction="J4" end="1080" vehsPerHour="21.944222790408443" departLane="free" arrivalSpeed="0.0"/>
  <flow id="JF62" begin="720" fromJunction="J6" toJunction="J5" end="1080" vehsPerHour="4.556503702557661" departLane="free" arrivalSpeed="0.0"/>
  <flow id="JF63" begin="720" fromJunction="J6" toJunction="J7" end="1080" vehsPerHour="46.7794460780767" departLane="free" arrivalSpeed="0.0"/>
  <flow id="JF64" begin="720" fromJunction="J7" toJunction="J0" end="1080" vehsPerHour="10.44185906266607" departLane="free" arrivalSpeed="0.0"/>
  <flow id="JF65" begin="720" fromJunction="J7" toJunction="J3" end="1080" vehsPerHour="51.51910579771602" departLane="free" arrivalSpeed="0.0"/>
  <flow id="JF66" begin="720" fromJunction="J7" toJunction="J4" end="1080" vehsPerHour="41.47350962533019" departLane="free" arrivalSpeed="0.0"/>
  <flow id="JF67" begin="1080" fromJunction="J0" toJunction="J3" end="1440" vehsPerHour="1.8680172674173894" departLane="free" arrivalSpeed="0.0"/>
  <flow id="JF68" begin="1080" fromJunction="J0" toJunction="J4" end="1440" vehsPerHour="51.315809723325685" departLane="free" arrivalSpeed="0.0"/>
  <flow id="JF69" begin="1080" fromJunction="J0" toJunction="J5" end="1440" vehsPerHour="128.3810116608764" departLane="free" arrivalSpeed="0.0"/>
  <flow id="JF70" begin="1080" fromJunction="J0" toJunction="J6" end="1440" vehsPerHour="66.45319663344515" departLane="free" arrivalSpeed="0.0"/>
  <flow id="JF71" begin="1080" fromJunction="J0" toJunction="J7" end="1440" vehsPerHour="106.921626510837" departLane="free" arrivalSpeed="0.0"/>
  <flow id="JF72" begin="1080" fromJunction="J3" toJunction="J4" end="1440" vehsPerHour="121.87359265126615" departLane="free" arrivalSpeed="0.0"/>
  <flow id="JF73" begin="1080" fromJunction="J3" toJunction="J5" end="1440" vehsPerHour="120.1548158998045" departLane="free" arrivalSpeed="0.0"/>
  <flow id="JF74" begin="1080" fromJunction="J3" toJunction="J6" end="1440" vehsPerHour="44.70109820169171" departLane="free" arrivalSpeed="0.0"/>
  <flow id="JF75" begin="1080" fromJunction="J4" toJunction="J5" end="1440" vehsPerHour="11.61602288481236" departLane="free" arrivalSpeed="0.0"/>
  <flow id="JF76" begin="1080" fromJunction="J5" toJunction="J0" end="1440" vehsPerHour="63.030326974257676" departLane="free" arrivalSpeed="0.0"/>
  <flow id="JF77" begin="1080" fromJunction="J5" toJunction="J3" end="1440" vehsPerHour="46.74797855993733" departLane="free" arrivalSpeed="0.0"/>
  <flow id="JF78" begin="1080" fromJunction="J5" toJunction="J4" end="1440" vehsPerHour="57.93921415254374" departLane="free" arrivalSpeed="0.0"/>
  <flow id="JF79" begin="1080" fromJunction="J5" toJunction="J6" end="1440" vehsPerHour="67.1291023316822" departLane="free" arrivalSpeed="0.0"/>
  <flow id="JF80" begin="1080" fromJunction="J5" toJunction="J7" end="1440" vehsPerHour="8.754598272650048" departLane="free" arrivalSpeed="0.0"/>
  <flow id="JF81" begin="1080" fromJunction="J6" toJunction="J0" end="1440" vehsPerHour="66.08866419858124" departLane="free" arrivalSpeed="0.0"/>
  <flow id="JF82" begin="1080" fromJunction="J6" toJunction="J3" end="1440" vehsPerHour="68.10266350528264" departLane="free" arrivalSpeed="0.0"/>
  <flow id="JF83" begin="1080" fromJunction="J6" toJunction="J7" end="1440" vehsPerHour="23.29832062286966" departLane="free" arrivalSpeed="0.0"/>
  <flow id="JF84" begin="1080" fromJunction="J7" toJunction="J0" end="1440" vehsPerHour="55.12627460248909" departLane="free" arrivalSpeed="0.0"/>
  <flow id="JF85" begin="1080" fromJunction="J7" toJunction="J4" end="1440" vehsPerHour="20.72932845606099" departLane="free" arrivalSpeed="0.0"/>
  <flow id="JF86" begin="1080" fromJunction="J7" toJunction="J6" end="1440" vehsPerHour="37.56399834945407" departLane="free" arrivalSpeed="0.0"/>
  <flow id="JF87" begin="1440" fromJunction="J0" toJunction="J3" end="1800" vehsPerHour="93.69362083166507" departLane="free" arrivalSpeed="0.0"/>
  <flow id="JF88" begin="1440" fromJunction="J0" toJunction="J4" end="1800" vehsPerHour="21.14902337799324" departLane="free" arrivalSpeed="0.0"/>
  <flow id="JF89" begin="1440" fromJunction="J0" toJunction="J5" end="1800" vehsPerHour="29.982903729432508" departLane="free" arrivalSpeed="0.0"/>
  <flow id="JF90" begin="1440" fromJunction="J0" toJunction="J7" end="1800" vehsPerHour="90.52818914584661" departLane="free" arrivalSpeed="0.0"/>
  <flow id="JF91" begin="1440" fromJunction="J3" toJunction="J0" end="1800" vehsPerHour="27.166731946478755" departLane="free" arrivalSpeed="0.0"/>
  <flow id="JF92" begin="1440" fromJunction="J3" toJunction="J4" end="1800" vehsPerHour="122.71404739039643" departLane="free" arrivalSpeed="0.0"/>
  <flow id="JF93" begin="1440" fromJunction="J3" toJunction="J6" end="1800" vehsPerHour="90.14368904050308" departLane="free" arrivalSpeed="0.0"/>
  <flow id="JF94" begin="1440" fromJunction="J4" toJunction="J0" end="1800" vehsPerHour="44.936694163580846" departLane="free" arrivalSpeed="0.0"/>
  <flow id="JF95" begin="1440" fromJunction="J4" toJunction="J3" end="1800" vehsPerHour="46.60611136016268" departLane="free" arrivalSpeed="0.0"/>
  <flow id="JF96" begin="1440" fromJunction="J4" toJunction="J5" end="1800" vehsPerHour="32.01635500936864" departLane="free" arrivalSpeed="0.0"/>
  <flow id="JF97" begin="1440" fromJunction="J4" toJunction="J6" end="1800" vehsPerHour="54.275899198128" departLane="free" arrivalSpeed="0.0"/>
  <flow id="JF98" begin="1440" fromJunction="J4" toJunction="J7" end="1800" vehsPerHour="45.80568619353324" departLane="free" arrivalSpeed="0.0"/>
  <flow id="JF99" begin="1440" fromJunction="J5" toJunction="J0" end="1800" vehsPerHour="33.802563835683394" departLane="free" arrivalSpeed="0.0"/>
  <flow id="JF100" begin="1440" fromJunction="J5" toJunction="J3" end="1800" vehsPerHour="30.58633063572739" departLane="free" arrivalSpeed="0.0"/>
  <flow id="JF101" begin="1440" fromJunction="J5" toJunction="J4" end="1800" vehsPerHour="1.1631642098704904" departLane="free" arrivalSpeed="0.0"/>
  <flow id="JF102" begin="1440" fromJunction="J5" toJunction="J6" end="1800" vehsPerHour="3.2272223689704256" departLane="free" arrivalSpeed="0.0"/>
  <flow id="JF103" begin="1440" fromJunction="J5" toJunction="J7" end="1800" vehsPerHour="42.29790909564117" departLane="free" arrivalSpeed="0.0"/>
  <flow id="JF104" begin="1440" fromJunction="J6" toJunction="J3" end="1800" vehsPerHour="5.216174871201534" departLane="free" arrivalSpeed="0.0"/>
  <flow id="JF105" begin="1440" fromJunction="J6" toJunction="J4" end="1800" vehsPerHour="21.83793681206487" departLane="free" arrivalSpeed="0.0"/>
  <flow id="JF106" begin="1440" fromJunction="J6" toJunction="J5" end="1800" vehsPerHour="67.41654846319386" departLane="free" arrivalSpeed="0.0"/>
  <flow id="JF107" begin="1440" fromJunction="J6" toJunction="J7" end="1800" vehsPerHour="58.26073490324225" departLane="free" arrivalSpeed="0.0"/>
  <flow id="JF108" begin="1440" fromJunction="J7" toJunction="J3" end="1800" vehsPerHour="65.42838525714592" departLane="free" arrivalSpeed="0.0"/>
  <flow id="JF109" begin="1440" fromJunction="J7" toJunction="J5" end="1800" vehsPerHour="37.58558644249447" departLane="free" arrivalSpeed="0.0"/>
  <flow id="JF110" begin="1440" fromJunction="J7" toJunction="J6" end="1800" vehsPerHour="36.889588664799966" departLane="free" arrivalSpeed="0.0"/>
  <flow id="JF111" begin="1800" fromJunction="J0" toJunction="J5" end="2160" vehsPerHour="112.175016415673" departLane="free" arrivalSpeed="0.0"/>
  <flow id="JF112" begin="1800" fromJunction="J0" toJunction="J6" end="2160" vehsPerHour="91.97654167910203" departLane="free" arrivalSpeed="0.0"/>
  <flow id="JF113" begin="1800" fromJunction="J0" toJunction="J7" end="2160" vehsPerHour="75.13107373160133" departLane="free" arrivalSpeed="0.0"/>
  <flow id="JF114" begin="1800" fromJunction="J3" toJunction="J4" end="2160" vehsPerHour="15.63768336839115" departLane="free" arrivalSpeed="0.0"/>
  <flow id="JF115" begin="1800" fromJunction="J3" toJunction="J5" end="2160" vehsPerHour="127.67517530545457" departLane="free" arrivalSpeed="0.0"/>
  <flow id="JF116" begin="1800" fromJunction="J3" toJunction="J7" end="2160" vehsPerHour="113.42267861406847" departLane="free" arrivalSpeed="0.0"/>
  <flow id="JF117" begin="1800" fromJunction="J4" toJunction="J3" end="2160" vehsPerHour="0.030938671308720092" departLane="free" arrivalSpeed="0.0"/>
  <flow id="JF118" begin="1800" fromJunction="J5" toJunction="J0" end="2160" vehsPerHour="18.382184995976218" departLane="free" arrivalSpeed="0.0"/>
  <flow id="JF119" begin="1800" fromJunction="J5" toJunction="J4" end="2160" vehsPerHour="35.03524727442629" departLane="free" arrivalSpeed="0.0"/>
  <flow id="JF120" begin="1800" fromJunction="J5" toJunction="J6" end="2160" vehsPerHour="60.99193297046417" departLane="free" arrivalSpeed="0.0"/>
  <flow id="JF121" begin="1800" fromJunction="J5" toJunction="J7" end="2160" vehsPerHour="45.182572709069376" departLane="free" arrivalSpeed="0.0"/>
  <flow id="JF122" begin="1800" fromJunction="J6" toJunction="J0" end="2160" vehsPerHour="55.215593753293504" departLane="free" arrivalSpeed="0.0"/>
  <flow id="JF123" begin="1800" fromJunction="J6" toJunction="J7" end="2160" vehsPerHour="3.0812182224572493" departLane="free" arrivalSpeed="0.0"/>
  <flow id="JF124" begin="1800" fromJunction="J7" toJunction="J3" end="2160" vehsPerHour="2.8793371978051057" departLane="free" arrivalSpeed="0.0"/>
  <flow id="JF125" begin="1800" fromJunction="J7" toJunction="J5" end="2160" vehsPerHour="26.63693923193325" departLane="free" arrivalSpeed="0.0"/>
  <flow id="JF126" begin="1800" fromJunction="J7" toJunction="J6" end="2160" vehsPerHour="68.38631368191538" departLane="free" arrivalSpeed="0.0"/>
  <flow id="JF127" begin="2160" fromJunction="J0" toJunction="J3" end="2520" vehsPerHour="112.25182465619037" departLane="free" arrivalSpeed="0.0"/>
  <flow id="JF128" begin="2160" fromJunction="J0" toJunction="J4" end="2520" vehsPerHour="14.833623535570203" departLane="free" arrivalSpeed="0.0"/>
  <flow id="JF129" begin="2160" fromJunction="J0" toJunction="J7" end="2520" vehsPerHour="79.56697712691047" departLane="free" arrivalSpeed="0.0"/>
  <flow id="JF130" begin="2160" fromJunction="J3" toJunction="J4" end="2520" vehsPerHour="121.18844930403897" departLane="free" arrivalSpeed="0.0"/>
  <flow id="JF131" begin="2160" fromJunction="J3" toJunction="J5" end="2520" vehsPerHour="65.03278653070973" departLane="free" arrivalSpeed="0.0"/>
  <flow id="JF132" begin="2160" fromJunction="J3" toJunction="J6" end="2520" vehsPerHour="81.83542792430883" departLane="free" arrivalSpeed="0.0"/>
  <flow id="JF133" begin="2160" fromJunction="J3" toJunction="J7" end="2520" vehsPerHour="106.61970764835253" departLane="free" arrivalSpeed="0.0"/>
  <flow id="JF134" begin="2160" fromJunction="J4" toJunction="J0" end="2520" vehsPerHour="38.96570297087282" departLane="free" arrivalSpeed="0.0"/>
  <flow id="JF135" begin="2160" fromJunction="J4" toJunction="J3" end="2520" vehsPerHour="36.215578417065075" departLane="free" arrivalSpeed="0.0"/>
  <flow id="JF136" begin="2160" fromJunction="J4" toJunction="J5" end="2520" vehsPerHour="68.60281985225033" departLane="free" arrivalSpeed="0.0"/>
  <flow id="JF137" begin="2160" fromJunction="J4" toJunction="J6" end="2520" vehsPerHour="6.656032216348978" departLane="free" arrivalSpeed="0.0"/>
  <flow id="JF138" begin="2160" fromJunction="J4" toJunction="J7" end="2520" vehsPerHour="38.855047740047375" departLane="free" arrivalSpeed="0.0"/>
  <flow id="JF139" begin="2160" fromJunction="J5" toJunction="J0" end="2520" vehsPerHour="60.20914972477765" departLane="free" arrivalSpeed="0.0"/>
  <flow id="JF140" begin="2160" fromJunction="J5" toJunction="J3" end="2520" vehsPerHour="33.238619922223236" departLane="free" arrivalSpeed="0.0"/>
  <flow id="JF141" begin="2160" fromJunction="J5" toJunction="J4" end="2520" vehsPerHour="24.65824181919003" departLane="free" arrivalSpeed="0.0"/>
  <flow id="JF142" begin="2160" fromJunction="J5" toJunction="J7" end="2520" vehsPerHour="5.5786979159349" departLane="free" arrivalSpeed="0.0"/>
  <flow id="JF143" begin="2160" fromJunction="J6" toJunction="J0" end="2520" vehsPerHour="56.894640970624636" departLane="free" arrivalSpeed="0.0"/>
  <flow id="JF144" begin="2160" fromJunction="J6" toJunction="J3" end="2520" vehsPerHour="4.34391120889743" departLane="free" arrivalSpeed="0.0"/>
  <flow id="JF145" begin="2160" fromJunction="J6" toJunction="J5" end="2520" vehsPerHour="31.740324201688594" departLane="free" arrivalSpeed="0.0"/>
  <flow id="JF146" begin="2160" fromJunction="J7" toJunction="J0" end="2520" vehsPerHour="12.779320732583546" departLane="free" arrivalSpeed="0.0"/>
  <flow id="JF147" begin="2160" fromJunction="J7" toJunction="J4" end="2520" vehsPerHour="66.17580509287919" departLane="free" arrivalSpeed="0.0"/>
  <flow id="JF148" begin="2160" fromJunction="J7" toJunction="J5" end="2520" vehsPerHour="37.452940970746056" departLane="free" arrivalSpeed="0.0"/>
  <flow id="JF149" begin="2160" fromJunction="J7" toJunction="J6" end="2520" vehsPerHour="8.40761006789498" departLane="free" arrivalSpeed="0.0"/>
  <flow id="JF150" begin="2520" fromJunction="J0" toJunction="J4" end="2880" vehsPerHour="30.512205160704596" departLane="free" arrivalSpeed="0.0"/>
  <flow id="JF151" begin="2520" fromJunction="J0" toJunction="J7" end="2880" vehsPerHour="130.9496782781525" departLane="free" arrivalSpeed="0.0"/>
  <flow id="JF152" begin="2520" fromJunction="J3" toJunction="J0" end="2880" vehsPerHour="120.22161468917881" departLane="free" arrivalSpeed="0.0"/>
  <flow id="JF153" begin="2520" fromJunction="J3" toJunction="J4" end="2880" vehsPerHour="97.62662480450679" departLane="free" arrivalSpeed="0.0"/>
  <flow id="JF154" begin="2520" fromJunction="J3" toJunction="J5" end="2880" vehsPerHour="41.560476703636134" departLane="free" arrivalSpeed="0.0"/>
  <flow id="JF155" begin="2520" fromJunction="J3" toJunction="J6" end="2880" vehsPerHour="47.73595657608145" departLane="free" arrivalSpeed="0.0"/>
  <flow id="JF156" begin="2520" fromJunction="J4" toJunction="J6" end="2880" vehsPerHour="63.93127529971387" departLane="free" arrivalSpeed="0.0"/>
  <flow id="JF157" begin="2520" fromJunction="J4" toJunction="J7" end="2880" vehsPerHour="35.769846922635374" departLane="free" arrivalSpeed="0.0"/>
  <flow id="JF158" begin="2520" fromJunction="J5" toJunction="J0" end="2880" vehsPerHour="22.221968781603042" departLane="free" arrivalSpeed="0.0"/>
  <flow id="JF159" begin="2520" fromJunction="J5" toJunction="J3" end="2880" vehsPerHour="62.79957370522647" departLane="free" arrivalSpeed="0.0"/>
  <flow id="JF160" begin="2520" fromJunction="J5" toJunction="J6" end="2880" vehsPerHour="14.950313312901635" departLane="free" arrivalSpeed="0.0"/>
  <flow id="JF161" begin="2520" fromJunction="J5" toJunction="J7" end="2880" vehsPerHour="54.13757960592342" departLane="free" arrivalSpeed="0.0"/>
  <flow id="JF162" begin="2520" fromJunction="J6" toJunction="J0" end="2880" vehsPerHour="45.3928879776123" departLane="free" arrivalSpeed="0.0"/>
  <flow id="JF163" begin="2520" fromJunction="J6" toJunction="J3" end="2880" vehsPerHour="25.367450494037005" departLane="free" arrivalSpeed="0.0"/>
  <flow id="JF164" begin="2520" fromJunction="J6" toJunction="J4" end="2880" vehsPerHour="5.543254654138978" departLane="free" arrivalSpeed="0.0"/>
  <flow id="JF165" begin="2520" fromJunction="J6" toJunction="J5" end="2880" vehsPerHour="46.109220382319066" departLane="free" arrivalSpeed="0.0"/>
  <flow id="JF166" begin="2520" fromJunction="J6" toJunction="J7" end="2880" vehsPerHour="61.71234380687992" departLane="free" arrivalSpeed="0.0"/>
  <flow id="JF167" begin="2520" fromJunction="J7" toJunction="J3" end="2880" vehsPerHour="8.839395151097648" departLane="free" arrivalSpeed="0.0"/>
  <flow id="JF168" begin="2520" fromJunction="J7" toJunction="J4" end="2880" vehsPerHour="53.25204111071403" departLane="free" arrivalSpeed="0.0"/>
  <flow id="JF169" begin="2880" fromJunction="J0" toJunction="J4" end="3240" vehsPerHour="93.220690648645" departLane="free" arrivalSpeed="0.0"/>
  <flow id="JF170" begin="2880" fromJunction="J0" toJunction="J5" end="3240" vehsPerHour="122.53689763165704" departLane="free" arrivalSpeed="0.0"/>
  <flow id="JF171" begin="2880" fromJunction="J0" toJunction="J6" end="3240" vehsPerHour="126.75182163377204" departLane="free" arrivalSpeed="0.0"/>
  <flow id="JF172" begin="2880" fromJunction="J0" toJunction="J7" end="3240" vehsPerHour="124.7336220426356" departLane="free" arrivalSpeed="0.0"/>
  <flow id="JF173" begin="2880" fromJunction="J3" toJunction="J0" end="3240" vehsPerHour="50.23110300555503" departLane="free" arrivalSpeed="0.0"/>
  <flow id="JF174" begin="2880" fromJunction="J3" toJunction="J5" end="3240" vehsPerHour="37.792935754131264" departLane="free" arrivalSpeed="0.0"/>
  <flow id="JF175" begin="2880" fromJunction="J3" toJunction="J6" end="3240" vehsPerHour="31.09972211880586" departLane="free" arrivalSpeed="0.0"/>
  <flow id="JF176" begin="2880" fromJunction="J3" toJunction="J7" end="3240" vehsPerHour="38.76479113491697" departLane="free" arrivalSpeed="0.0"/>
  <flow id="JF177" begin="2880" fromJunction="J4" toJunction="J3" end="3240" vehsPerHour="11.220368358124372" departLane="free" arrivalSpeed="0.0"/>
  <flow id="JF178" begin="2880" fromJunction="J4" toJunction="J5" end="3240" vehsPerHour="13.036127882544829" departLane="free" arrivalSpeed="0.0"/>
  <flow id="JF179" begin="2880" fromJunction="J4" toJunction="J6" end="3240" vehsPerHour="47.02435022001517" departLane="free" arrivalSpeed="0.0"/>
  <flow id="JF180" begin="2880" fromJunction="J4" toJunction="J7" end="3240" vehsPerHour="19.57938951625829" departLane="free" arrivalSpeed="0.0"/>
  <flow id="JF181" begin="2880" fromJunction="J5" toJunction="J0" end="3240" vehsPerHour="61.71999305704394" departLane="free" arrivalSpeed="0.0"/>
  <flow id="JF182" begin="2880" fromJunction="J5" toJunction="J3" end="3240" vehsPerHour="58.739362650183374" departLane="free" arrivalSpeed="0.0"/>
  <flow id="JF183" begin="2880" fromJunction="J5" toJunction="J4" end="3240" vehsPerHour="44.594636051551795" departLane="free" arrivalSpeed="0.0"/>
  <flow id="JF184" begin="2880" fromJunction="J5" toJunction="J6" end="3240" vehsPerHour="66.371551209198" departLane="free" arrivalSpeed="0.0"/>
  <flow id="JF185" begin="2880" fromJunction="J5" toJunction="J7" end="3240" vehsPerHour="14.047554595869427" departLane="free" arrivalSpeed="0.0"/>
  <flow id="JF186" begin="2880" fromJunction="J6" toJunction="J0" end="3240" vehsPerHour="47.746351130729366" departLane="free" arrivalSpeed="0.0"/>
  <flow id="JF187" begin="2880" fromJunction="J6" toJunction="J3" end="3240" vehsPerHour="1.9948938270856895" departLane="free" arrivalSpeed="0.0"/>
  <flow id="JF188" begin="2880" fromJunction="J6" toJunction="J4" end="3240" vehsPerHour="46.15359535906909" departLane="free" arrivalSpeed="0.0"/>
  <flow id="JF189" begin="2880" fromJunction="J6" toJunction="J5" end="3240" vehsPerHour="1.6722012911926958" departLane="free" arrivalSpeed="0.0"/>
  <flow id="JF190" begin="2880" fromJunction="J7" toJunction="J4" end="3240" vehsPerHour="23.994721046683704" departLane="free" arrivalSpeed="0.0"/>
  <flow id="JF191" begin="2880" fromJunction="J7" toJunction="J5" end="3240" vehsPerHour="57.27847098286674" departLane="free" arrivalSpeed="0.0"/>
  <flow id="JF192" begin="2880" fromJunction="J7" toJunction="J6" end="3240" vehsPerHour="64.37203931093815" departLane="free" arrivalSpeed="0.0"/>
  <flow id="JF193" begin="3240" fromJunction="J0" toJunction="J4" end="3600" vehsPerHour="49.20514219810799" departLane="free" arrivalSpeed="0.0"/>
  <flow id="JF194" begin="3240" fromJunction="J0" toJunction="J6" end="3600" vehsPerHour="86.71426609563629" departLane="free" arrivalSpeed="0.0"/>
  <flow id="JF195" begin="3240" fromJunction="J0" toJunction="J7" end="3600" vehsPerHour="15.075001468436326" departLane="free" arrivalSpeed="0.0"/>
  <flow id="JF196" begin="3240" fromJunction="J3" toJunction="J0" end="3600" vehsPerHour="70.65958817987209" departLane="free" arrivalSpeed="0.0"/>
  <flow id="JF197" begin="3240" fromJunction="J3" toJunction="J4" end="3600" vehsPerHour="55.46930941435562" departLane="free" arrivalSpeed="0.0"/>
  <flow id="JF198" begin="3240" fromJunction="J3" toJunction="J5" end="3600" vehsPerHour="24.73334897435365" departLane="free" arrivalSpeed="0.0"/>
  <flow id="JF199" begin="3240" fromJunction="J3" toJunction="J6" end="3600" vehsPerHour="64.38978226177285" departLane="free" arrivalSpeed="0.0"/>
  <flow id="JF200" begin="3240" fromJunction="J4" toJunction="J0" end="3600" vehsPerHour="2.3662286092638536" departLane="free" arrivalSpeed="0.0"/>
  <flow id="JF201" begin="3240" fromJunction="J4" toJunction="J5" end="3600" vehsPerHour="2.658999109257906" departLane="free" arrivalSpeed="0.0"/>