<?xml version="1.0" encoding="UTF-8"?>
<routes xmlns:xsi="http://www.w3.org/2001/XMLSchema-instance" xsi:noNamespaceSchemaLocation="http://sumo.dlr.de/xsd/routes_file.xsd">
  <flow id="JF28160" begin="0" fromJunction="J0" toJunction="J3" end="60" vehsPerHour="14.856174984188893" departLane="free"/>
  <flow id="JF28161" begin="0" fromJunction="J3" toJunction="J0" end="60" vehsPerHour="13.223223929834798" departLane="free"/>
  <flow id="JF28162" begin="0" fromJunction="J0" toJunction="J6" end="60" vehsPerHour="14.898429493874177" departLane="free"/>
  <flow id="JF28163" begin="0" fromJunction="J0" toJunction="J7" end="60" vehsPerHour="37.38655608855498" departLane="free"/>
  <flow id="JF28164" begin="0" fromJunction="J0" toJunction="J4" end="60" vehsPerHour="161.86556022384823" departLane="free"/>
  <flow id="JF28165" begin="0" fromJunction="J0" toJunction="J5" end="60" vehsPerHour="109.58332472766571" departLane="free"/>
  <flow id="JF28166" begin="0" fromJunction="J3" toJunction="J6" end="60" vehsPerHour="151.22264373666405" departLane="free"/>
  <flow id="JF28167" begin="0" fromJunction="J3" toJunction="J7" end="60" vehsPerHour="116.69373020929335" departLane="free"/>
  <flow id="JF28168" begin="0" fromJunction="J3" toJunction="J4" end="60" vehsPerHour="267.1391707409752" departLane="free"/>
  <flow id="JF28169" begin="0" fromJunction="J3" toJunction="J5" end="60" vehsPerHour="92.28356438683052" departLane="free"/>
  <flow id="JF28170" begin="0" fromJunction="J6" toJunction="J7" end="60" vehsPerHour="26.525476713708866" departLane="free"/>
  <flow id="JF28171" begin="0" fromJunction="J6" toJunction="J4" end="60" vehsPerHour="40.1755617633786" departLane="free"/>
  <flow id="JF28172" begin="0" fromJunction="J6" toJunction="J5" end="60" vehsPerHour="28.24040335929656" departLane="free"/>
  <flow id="JF28173" begin="0" fromJunction="J7" toJunction="J6" end="60" vehsPerHour="26.696086725493398" departLane="free"/>
  <flow id="JF28174" begin="0" fromJunction="J7" toJunction="J4" end="60" vehsPerHour="68.69544773303355" departLane="free"/>
  <flow id="JF28175" begin="0" fromJunction="J7" toJunction="J5" end="60" vehsPerHour="44.31806386744199" departLane="free"/>
  <flow id="JF28176" begin="0" fromJunction="J4" toJunction="J6" end="60" vehsPerHour="12.630677356712225" departLane="free"/>
  <flow id="JF28177" begin="0" fromJunction="J4" toJunction="J7" end="60" vehsPerHour="24.924069604347995" departLane="free"/>
  <flow id="JF28178" begin="0" fromJunction="J4" toJunction="J5" end="60" vehsPerHour="24.503825345917715" departLane="free"/>
  <flow id="JF28179" begin="0" fromJunction="J5" toJunction="J6" end="60" vehsPerHour="33.31301225085219" departLane="free"/>
  <flow id="JF28180" begin="0" fromJunction="J5" toJunction="J7" end="60" vehsPerHour="18.408043279704028" departLane="free"/>
  <flow id="JF28181" begin="0" fromJunction="J5" toJunction="J4" end="60" vehsPerHour="45.95824453524702" departLane="free"/>
  <flow id="JF28182" begin="0" fromJunction="J6" toJunction="J0" end="60" vehsPerHour="126.72951890357882" departLane="free"/>
  <flow id="JF28183" begin="0" fromJunction="J6" toJunction="J3" end="60" vehsPerHour="14.46150234675423" departLane="free"/>
  <flow id="JF28184" begin="0" fromJunction="J7" toJunction="J0" end="60" vehsPerHour="200.01700767945428" departLane="free"/>
  <flow id="JF28185" begin="0" fromJunction="J7" toJunction="J3" end="60" vehsPerHour="6.77392176696418" departLane="free"/>
  <flow id="JF28186" begin="0" fromJunction="J4" toJunction="J0" end="60" vehsPerHour="269.7343011363332" departLane="free"/>
  <flow id="JF28187" begin="0" fromJunction="J4" toJunction="J3" end="60" vehsPerHour="114.68951449876796" departLane="free"/>
  <flow id="JF28188" begin="0" fromJunction="J5" toJunction="J0" end="60" vehsPerHour="127.16220713063028" departLane="free"/>
  <flow id="JF28189" begin="0" fromJunction="J5" toJunction="J3" end="60" vehsPerHour="82.92841099518868" departLane="free"/>
  <flow id="JF28190" begin="60" fromJunction="J0" toJunction="J3" end="120" vehsPerHour="30.554421048034516" departLane="free"/>
  <flow id="JF28191" begin="60" fromJunction="J3" toJunction="J0" end="120" vehsPerHour="71.21023452468133" departLane="free"/>
  <flow id="JF28192" begin="60" fromJunction="J0" toJunction="J6" end="120" vehsPerHour="212.4858020896988" departLane="free"/>
  <flow id="JF28193" begin="60" fromJunction="J0" toJunction="J7" end="120" vehsPerHour="239.67486219648998" departLane="free"/>
  <flow id="JF28194" begin="60" fromJunction="J0" toJunction="J4" end="120" vehsPerHour="183.28414702680078" departLane="free"/>
  <flow id="JF28195" begin="60" fromJunction="J0" toJunction="J5" end="120" vehsPerHour="211.91240530140036" departLane="free"/>
  <flow id="JF28196" begin="60" fromJunction="J3" toJunction="J6" end="120" vehsPerHour="227.71317424659983" departLane="free"/>
  <flow id="JF28197" begin="60" fromJunction="J3" toJunction="J7" end="120" vehsPerHour="217.9234391139632" departLane="free"/>
  <flow id="JF28198" begin="60" fromJunction="J3" toJunction="J4" end="120" vehsPerHour="116.90902557758841" departLane="free"/>
  <flow id="JF28199" begin="60" fromJunction="J3" toJunction="J5" end="120" vehsPerHour="117.71163742526629" departLane="free"/>
  <flow id="JF28200" begin="60" fromJunction="J6" toJunction="J7" end="120" vehsPerHour="4.634530932312337" departLane="free"/>
  <flow id="JF28201" begin="60" fromJunction="J6" toJunction="J4" end="120" vehsPerHour="41.589559306293566" departLane="free"/>
  <flow id="JF28202" begin="60" fromJunction="J6" toJunction="J5" end="120" vehsPerHour="5.504671373909097" departLane="free"/>
  <flow id="JF28203" begin="60" fromJunction="J7" toJunction="J6" end="120" vehsPerHour="26.528102290801602" departLane="free"/>
  <flow id="JF28204" begin="60" fromJunction="J7" toJunction="J4" end="120" vehsPerHour="17.692338225973746" departLane="free"/>
  <flow id="JF28205" begin="60" fromJunction="J7" toJunction="J5" end="120" vehsPerHour="55.77925232156069" departLane="free"/>
  <flow id="JF28206" begin="60" fromJunction="J4" toJunction="J6" end="120" vehsPerHour="33.26039059494004" departLane="free"/>
  <flow id="JF28207" begin="60" fromJunction="J4" toJunction="J7" end="120" vehsPerHour="13.66368767446971" departLane="free"/>
  <flow id="JF28208" begin="60" fromJunction="J4" toJunction="J5" end="120" vehsPerHour="18.415269872271" departLane="free"/>
  <flow id="JF28209" begin="60" fromJunction="J5" toJunction="J6" end="120" vehsPerHour="0.2849094762703296" departLane="free"/>
  <flow id="JF28210" begin="60" fromJunction="J5" toJunction="J7" end="120" vehsPerHour="30.343295165637457" departLane="free"/>
  <flow id="JF28211" begin="60" fromJunction="J5" toJunction="J4" end="120" vehsPerHour="26.705425650381635" departLane="free"/>
  <flow id="JF28212" begin="60" fromJunction="J6" toJunction="J0" end="120" vehsPerHour="73.73050053029245" departLane="free"/>
  <flow id="JF28213" begin="60" fromJunction="J6" toJunction="J3" end="120" vehsPerHour="73.43536311285926" departLane="free"/>
  <flow id="JF28214" begin="60" fromJunction="J7" toJunction="J0" end="120" vehsPerHour="90.87800450703314" departLane="free"/>
  <flow id="JF28215" begin="60" fromJunction="J7" toJunction="J3" end="120" vehsPerHour="34.67743501834162" departLane="free"/>
  <flow id="JF28216" begin="60" fromJunction="J4" toJunction="J0" end="120" vehsPerHour="80.80095213986748" departLane="free"/>
  <flow id="JF28217" begin="60" fromJunction="J4" toJunction="J3" end="120" vehsPerHour="50.03764351815127" departLane="free"/>
  <flow id="JF28218" begin="60" fromJunction="J5" toJunction="J0" end="120" vehsPerHour="59.62157938160224" departLane="free"/>
  <flow id="JF28219" begin="60" fromJunction="J5" toJunction="J3" end="120" vehsPerHour="79.70744714554769" departLane="free"/>
  <flow id="JF28220" begin="120" fromJunction="J0" toJunction="J3" end="180" vehsPerHour="44.03381944412362" departLane="free"/>
  <flow id="JF28221" begin="120" fromJunction="J3" toJunction="J0" end="180" vehsPerHour="83.72301981232197" departLane="free"/>
  <flow id="JF28222" begin="120" fromJunction="J0" toJunction="J6" end="180" vehsPerHour="86.14281949063783" departLane="free"/>
  <flow id="JF28223" begin="120" fromJunction="J0" toJunction="J7" end="180" vehsPerHour="241.7644997043506" departLane="free"/>
  <flow id="JF28224" begin="120" fromJunction="J0" toJunction="J4" end="180" vehsPerHour="274.6015439373818" departLane="free"/>
  <flow id="JF28225" begin="120" fromJunction="J0" toJunction="J5" end="180" vehsPerHour="23.80775710938026" departLane="free"/>
  <flow id="JF28226" begin="120" fromJunction="J3" toJunction="J6" end="180" vehsPerHour="216.61292954100304" departLane="free"/>
  <flow id="JF28227" begin="120" fromJunction="J3" toJunction="J7" end="180" vehsPerHour="269.5332511185134" departLane="free"/>
  <flow id="JF28228" begin="120" fromJunction="J3" toJunction="J4" end="180" vehsPerHour="134.51447214003355" departLane="free"/>
  <flow id="JF28229" begin="120" fromJunction="J3" toJunction="J5" end="180" vehsPerHour="128.42402782999625" departLane="free"/>
  <flow id="JF28230" begin="120" fromJunction="J6" toJunction="J7" end="180" vehsPerHour="33.73962024617084" departLane="free"/>
  <flow id="JF28231" begin="120" fromJunction="J6" toJunction="J4" end="180" vehsPerHour="7.381106467242671" departLane="free"/>
  <flow id="JF28232" begin="120" fromJunction="J6" toJunction="J5" end="180" vehsPerHour="39.9574155386492" departLane="free"/>
  <flow id="JF28233" begin="120" fromJunction="J7" toJunction="J6" end="180" vehsPerHour="45.878258840300845" departLane="free"/>
  <flow id="JF28234" begin="120" fromJunction="J7" toJunction="J4" end="180" vehsPerHour="31.095493639762456" departLane="free"/>
  <flow id="JF28235" begin="120" fromJunction="J7" toJunction="J5" end="180" vehsPerHour="37.37510069825743" departLane="free"/>
  <flow id="JF28236" begin="120" fromJunction="J4" toJunction="J6" end="180" vehsPerHour="4.64121025439891" departLane="free"/>
  <flow id="JF28237" begin="120" fromJunction="J4" toJunction="J7" end="180" vehsPerHour="7.0647580890482224" departLane="free"/>
  <flow id="JF28238" begin="120" fromJunction="J4" toJunction="J5" end="180" vehsPerHour="9.192539962751795" departLane="free"/>
  <flow id="JF28239" begin="120" fromJunction="J5" toJunction="J6" end="180" vehsPerHour="25.200009524249523" departLane="free"/>
  <flow id="JF28240" begin="120" fromJunction="J5" toJunction="J7" end="180" vehsPerHour="23.359431513714522" departLane="free"/>
  <flow id="JF28241" begin="120" fromJunction="J5" toJunction="J4" end="180" vehsPerHour="40.4203886910301" departLane="free"/>
  <flow id="JF28242" begin="120" fromJunction="J6" toJunction="J0" end="180" vehsPerHour="127.76974052164601" departLane="free"/>
  <flow id="JF28243" begin="120" fromJunction="J6" toJunction="J3" end="180" vehsPerHour="82.75106957646676" departLane="free"/>
  <flow id="JF28244" begin="120" fromJunction="J7" toJunction="J0" end="180" vehsPerHour="1.8968994341945549" departLane="free"/>
  <flow id="JF28245" begin="120" fromJunction="J7" toJunction="J3" end="180" vehsPerHour="19.451904888729796" departLane="free"/>
  <flow id="JF28246" begin="120" fromJunction="J4" toJunction="J0" end="180" vehsPerHour="36.83467109646674" departLane="free"/>
  <flow id="JF28247" begin="120" fromJunction="J4" toJunction="J3" end="180" vehsPerHour="141.50954037902142" departLane="free"/>
  <flow id="JF28248" begin="120" fromJunction="J5" toJunction="J0" end="180" vehsPerHour="221.34642239883098" departLane="free"/>
  <flow id="JF28249" begin="120" fromJunction="J5" toJunction="J3" end="180" vehsPerHour="138.42377121582433" departLane="free"/>
  <flow id="JF28250" begin="180" fromJunction="J0" toJunction="J3" end="240" vehsPerHour="11.07954653010617" departLane="free"/>
  <flow id="JF28251" begin="180" fromJunction="J3" toJunction="J0" end="240" vehsPerHour="12.206849927606198" departLane="free"/>
  <flow id="JF28252" begin="180" fromJunction="J0" toJunction="J6" end="240" vehsPerHour="83.12040649923544" departLane="free"/>
  <flow id="JF28253" begin="180" fromJunction="J0" toJunction="J7" end="240" vehsPerHour="113.95509575400979" departLane="free"/>
  <flow id="JF28254" begin="180" fromJunction="J0" toJunction="J4" end="240" vehsPerHour="8.4432078790555" departLane="free"/>
  <flow id="JF28255" begin="180" fromJunction="J0" toJunction="J5" end="240" vehsPerHour="128.3328141683216" departLane="free"/>
  <flow id="JF28256" begin="180" fromJunction="J3" toJunction="J6" end="240" vehsPerHour="29.480847772989915" departLane="free"/>
  <flow id="JF28257" begin="180" fromJunction="J3" toJunction="J7" end="240" vehsPerHour="89.47000054637972" departLane="free"/>
  <flow id="JF28258" begin="180" fromJunction="J3" toJunction="J4" end="240" vehsPerHour="223.70234926569873" departLane="free"/>
  <flow id="JF28259" begin="180" fromJunction="J3" toJunction="J5" end="240" vehsPerHour="65.90861200092425" departLane="free"/>
  <flow id="JF28260" begin="180" fromJunction="J6" toJunction="J7" end="240" vehsPerHour="8.091386815864892" departLane="free"/>
  <flow id="JF28261" begin="180" fromJunction="J6" toJunction="J4" end="240" vehsPerHour="37.35572959490484" departLane="free"/>
  <flow id="JF28262" begin="180" fromJunction="J6" toJunction="J5" end="240" vehsPerHour="21.68997313968063" departLane="free"/>
  <flow id="JF28263" begin="180" fromJunction="J7" toJunction="J6" end="240" vehsPerHour="15.30933919274914" departLane="free"/>
  <flow id="JF28264" begin="180" fromJunction="J7" toJunction="J4" end="240" vehsPerHour="64.8283112188815" departLane="free"/>
  <flow id="JF28265" begin="180" fromJunction="J7" toJunction="J5" end="240" vehsPerHour="62.097181214889005" departLane="free"/>
  <flow id="JF28266" begin="180" fromJunction="J4" toJunction="J6" end="240" vehsPerHour="22.616107057932854" departLane="free"/>
  <flow id="JF28267" begin="180" fromJunction="J4" toJunction="J7" end="240" vehsPerHour="20.548809666478547" departLane="free"/>
  <flow id="JF28268" begin="180" fromJunction="J4" toJunction="J5" end="240" vehsPerHour="34.24404336558344" departLane="free"/>
  <flow id="JF28269" begin="180" fromJunction="J5" toJunction="J6" end="240" vehsPerHour="8.048882021236556" departLane="free"/>
  <flow id="JF28270" begin="180" fromJunction="J5" toJunction="J7" end="240" vehsPerHour="22.308927073855852" departLane="free"/>
  <flow id="JF28271" begin="180" fromJunction="J5" toJunction="J4" end="240" vehsPerHour="43.93558736273177" departLane="free"/>
  <flow id="JF28272" begin="180" fromJunction="J6" toJunction="J0" end="240" vehsPerHour="173.50152516792082" departLane="free"/>
  <flow id="JF28273" begin="180" fromJunction="J6" toJunction="J3" end="240" vehsPerHour="59.327571417577865" departLane="free"/>
  <flow id="JF28274" begin="180" fromJunction="J7" toJunction="J0" end="240" vehsPerHour="95.2786360417378" departLane="free"/>
  <flow id="JF28275" begin="180" fromJunction="J7" toJunction="J3" end="240" vehsPerHour="70.87600891178847" departLane="free"/>
  <flow id="JF28276" begin="180" fromJunction="J4" toJunction="J0" end="240" vehsPerHour="245.55314430160277" departLane="free"/>
  <flow id="JF28277" begin="180" fromJunction="J4" toJunction="J3" end="240" vehsPerHour="1.5383058582071185" departLane="free"/>
  <flow id="JF28278" begin="180" fromJunction="J5" toJunction="J0" end="240" vehsPerHour="219.58003526097616" departLane="free"/>
  <flow id="JF28279" begin="180" fromJunction="J5" toJunction="J3" end="240" vehsPerHour="12.209296777138459" departLane="free"/>
  <flow id="JF28280" begin="240" fromJunction="J0" toJunction="J3" end="300" vehsPerHour="62.26208139265971" departLane="free"/>
  <flow id="JF28281" begin="240" fromJunction="J3" toJunction="J0" end="300" vehsPerHour="86.50668558693499" departLane="free"/>
  <flow id="JF28282" begin="240" fromJunction="J0" toJunction="J6" end="300" vehsPerHour="146.06815301975885" departLane="free"/>
  <flow id="JF28283" begin="240" fromJunction="J0" toJunction="J7" end="300" vehsPerHour="418.26434339493807" departLane="free"/>
  <flow id="JF28284" begin="240" fromJunction="J0" toJunction="J4" end="300" vehsPerHour="110.33580524142846" departLane="free"/>
  <flow id="JF28285" begin="240" fromJunction="J0" toJunction="J5" end="300" vehsPerHour="117.042677206744" departLane="free"/>
  <flow id="JF28286" begin="240" fromJunction="J3" toJunction="J6" end="300" vehsPerHour="342.96119972983115" departLane="free"/>
  <flow id="JF28287" begin="240" fromJunction="J3" toJunction="J7" end="300" vehsPerHour="96.39082101606928" departLane="free"/>
  <flow id="JF28288" begin="240" fromJunction="J3" toJunction="J4" end="300" vehsPerHour="380.7291397600613" departLane="free"/>
  <flow id="JF28289" begin="240" fromJunction="J3" toJunction="J5" end="300" vehsPerHour="22.938754582900962" departLane="free"/>
  <flow id="JF28290" begin="300" fromJunction="J0" toJunction="J3" end="360" vehsPerHour="41.87356939784085" departLane="free"/>
  <flow id="JF28291" begin="300" fromJunction="J3" toJunction="J0" end="360" vehsPerHour="67.18550400107672" departLane="free"/>
  <flow id="JF28292" begin="300" fromJunction="J0" toJunction="J6" end="360" vehsPerHour="96.58733082400732" departLane="free"/>
  <flow id="JF28293" begin="300" fromJunction="J0" toJunction="J7" end="360" vehsPerHour="194.65455818116402" departLane="free"/>
  <flow id="JF28294" begin="300" fromJunction="J0" toJunction="J4" end="360" vehsPerHour="125.96858633226275" departLane="free"/>
  <flow id="JF28295" begin="300" fromJunction="J0" toJunction="J5" end="360" vehsPerHour="85.59463885735343" departLane="free"/>
  <flow id="JF28296" begin="300" fromJunction="J3" toJunction="J6" end="360" vehsPerHour="217.2875645758349" departLane="free"/>
  <flow id="JF28297" begin="300" fromJunction="J3" toJunction="J7" end="360" vehsPerHour="183.87137563885912" departLane="free"/>
  <flow id="JF28298" begin="300" fromJunction="J3" toJunction="J4" end="360" vehsPerHour="60.707263108575255" departLane="free"/>
  <flow id="JF28299" begin="300" fromJunction="J3" toJunction="J5" end="360" vehsPerHour="173.81124304118256" departLane="free"/>
  <flow id="JF28300" begin="300" fromJunction="J6" toJunction="J7" end="360" vehsPerHour="17.84294737798031" departLane="free"/>
  <flow id="JF28301" begin="300" fromJunction="J6" toJunction="J4" end="360" vehsPerHour="45.06243078797156" departLane="free"/>
  <flow id="JF28302" begin="300" fromJunction="J6" toJunction="J5" end="360" vehsPerHour="54.42016693941496" departLane="free"/>
  <flow id="JF28303" begin="300" fromJunction="J7" toJunction="J6" end="360" vehsPerHour="65.85308884302172" departLane="free"/>
  <flow id="JF28304" begin="300" fromJunction="J7" toJunction="J4" end="360" vehsPerHour="53.403965881828526" departLane="free"/>
  <flow id="JF28305" begin="300" fromJunction="J7" toJunction="J5" end="360" vehsPerHour="64.53075841510622" departLane="free"/>
  <flow id="JF28306" begin="300" fromJunction="J4" toJunction="J6" end="360" vehsPerHour="3.303153807871395" departLane="free"/>
  <flow id="JF28307" begin="300" fromJunction="J4" toJunction="J7" end="360" vehsPerHour="20.198587772533884" departLane="free"/>
  <flow id="JF28308" begin="300" fromJunction="J4" toJunction="J5" end="360" vehsPerHour="10.104965022828916" departLane="free"/>
  <flow id="JF28309" begin="300" fromJunction="J5" toJunction="J6" end="360" vehsPerHour="19.0401337018863" departLane="free"/>
  <flow id="JF28310" begin="300" fromJunction="J5" toJunction="J7" end="360" vehsPerHour="12.549450040790072" departLane="free"/>
  <flow id="JF28311" begin="300" fromJunction="J5" toJunction="J4" end="360" vehsPerHour="62.015240947934295" departLane="free"/>
  <flow id="JF28312" begin="300" fromJunction="J6" toJunction="J0" end="360" vehsPerHour="135.99887479118416" departLane="free"/>
  <flow id="JF28313" begin="300" fromJunction="J6" toJunction="J3" end="360" vehsPerHour="237.05520738647988" departLane="free"/>
  <flow id="JF28314" begin="300" fromJunction="J7" toJunction="J0" end="360" vehsPerHour="174.55987491563937" departLane="free"/>
  <flow id="JF28315" begin="300" fromJunction="J7" toJunction="J3" end="360" vehsPerHour="21.013040543085662" departLane="free"/>
  <flow id="JF28316" begin="300" fromJunction="J4" toJunction="J0" end="360" vehsPerHour="118.14046029976511" departLane="free"/>
  <flow id="JF28317" begin="300" fromJunction="J4" toJunction="J3" end="360" vehsPerHour="22.963484006617353" departLane="free"/>
  <flow id="JF28318" begin="300" fromJunction="J5" toJunction="J0" end="360" vehsPerHour="110.07797641537762" departLane="free"/>
  <flow id="JF28319" begin="300" fromJunction="J5" toJunction="J3" end="360" vehsPerHour="84.08047740058663" departLane="free"/>
  <flow id="JF28320" begin="360" fromJunction="J0" toJunction="J3" end="420" vehsPerHour="48.057676210474916" departLane="free"/>
  <flow id="JF28321" begin="360" fromJunction="J3" toJunction="J0" end="420" vehsPerHour="104.69442718243475" departLane="free"/>
  <flow id="JF28322" begin="360" fromJunction="J0" toJunction="J6" end="420" vehsPerHour="77.54282423372273" departLane="free"/>
  <flow id="JF28323" begin="360" fromJunction="J0" toJunction="J7" end="420" vehsPerHour="90.72712258247212" departLane="free"/>
  <flow id="JF28324" begin="360" fromJunction="J0" toJunction="J4" end="420" vehsPerHour="251.62964005760728" departLane="free"/>
  <flow id="JF28325" begin="360" fromJunction="J0" toJunction="J5" end="420" vehsPerHour="48.39932450875522" departLane="free"/>
  <flow id="JF28326" begin="360" fromJunction="J3" toJunction="J6" end="420" vehsPerHour="140.08285502401824" departLane="free"/>
  <flow id="JF28327" begin="360" fromJunction="J3" toJunction="J7" end="420" vehsPerHour="114.40282495910007" departLane="free"/>
  <flow id="JF28328" begin="360" fromJunction="J3" toJunction="J4" end="420" vehsPerHour="257.26892121321896" departLane="free"/>
  <flow id="JF28329" begin="360" fromJunction="J3" toJunction="J5" end="420" vehsPerHour="154.71586480174685" departLane="free"/>
  <flow id="JF28330" begin="360" fromJunction="J6" toJunction="J7" end="420" vehsPerHour="30.224691847609876" departLane="free"/>
  <flow id="JF28331" begin="360" fromJunction="J6" toJunction="J4" end="420" vehsPerHour="39.333594719241574" departLane="free"/>
  <flow id="JF28332" begin="360" fromJunction="J6" toJunction="J5" end="420" vehsPerHour="13.905353463630115" departLane="free"/>
  <flow id="JF28333" begin="360" fromJunction="J7" toJunction="J6" end="420" vehsPerHour="17.07418612137976" departLane="free"/>
  <flow id="JF28334" begin="360" fromJunction="J7" toJunction="J4" end="420" vehsPerHour="28.769098024105155" departLane="free"/>
  <flow id="JF28335" begin="360" fromJunction="J7" toJunction="J5" end="420" vehsPerHour="9.297657213851108" departLane="free"/>
  <flow id="JF28336" begin="360" fromJunction="J4" toJunction="J6" end="420" vehsPerHour="10.773511487235163" departLane="free"/>
  <flow id="JF28337" begin="360" fromJunction="J4" toJunction="J7" end="420" vehsPerHour="21.532176031547774" departLane="free"/>
  <flow id="JF28338" begin="360" fromJunction="J4" toJunction="J5" end="420" vehsPerHour="8.240258106072094" departLane="free"/>
  <flow id="JF28339" begin="360" fromJunction="J5" toJunction="J6" end="420" vehsPerHour="20.859716157750025" departLane="free"/>
  <flow id="JF28340" begin="360" fromJunction="J5" toJunction="J7" end="420" vehsPerHour="2.8857581477522514" departLane="free"/>
  <flow id="JF28341" begin="360" fromJunction="J5" toJunction="J4" end="420" vehsPerHour="68.12285563856089" departLane="free"/>
  <flow id="JF28342" begin="360" fromJunction="J6" toJunction="J0" end="420" vehsPerHour="38.32149624711277" departLane="free"/>
  <flow id="JF28343" begin="360" fromJunction="J6" toJunction="J3" end="420" vehsPerHour="14.877894288912715" departLane="free"/>
  <flow id="JF28344" begin="360" fromJunction="J7" toJunction="J0" end="420" vehsPerHour="210.84906147431343" departLane="free"/>
  <flow id="JF28345" begin="360" fromJunction="J7" toJunction="J3" end="420" vehsPerHour="204.167023542092" departLane="free"/>
  <flow id="JF28346" begin="360" fromJunction="J4" toJunction="J0" end="420" vehsPerHour="271.0358754088037" departLane="free"/>
  <flow id="JF28347" begin="360" fromJunction="J4" toJunction="J3" end="420" vehsPerHour="63.476951188653466" departLane="free"/>
  <flow id="JF28348" begin="360" fromJunction="J5" toJunction="J0" end="420" vehsPerHour="65.13317725770588" departLane="free"/>
  <flow id="JF28349" begin="360" fromJunction="J5" toJunction="J3" end="420" vehsPerHour="173.387298057012" departLane="free"/>
  <flow id="JF28350" begin="420" fromJunction="J0" toJunction="J3" end="480" vehsPerHour="33.68740526682391" departLane="free"/>
  <flow id="JF28351" begin="420" fromJunction="J3" toJunction="J0" end="480" vehsPerHour="76.48194844750948" departLane="free"/>
  <flow id="JF28352" begin="420" fromJunction="J0" toJunction="J6" end="480" vehsPerHour="234.9450479337986" departLane="free"/>
  <flow id="JF28353" begin="420" fromJunction="J0" toJunction="J7" end="480" vehsPerHour="207.1811747543348" departLane="free"/>
  <flow id="JF28354" begin="420" fromJunction="J0" toJunction="J4" end="480" vehsPerHour="14.603323513675656" departLane="free"/>
  <flow id="JF28355" begin="420" fromJunction="J0" toJunction="J5" end="480" vehsPerHour="200.1129954892406" departLane="free"/>
  <flow id="JF28356" begin="420" fromJunction="J3" toJunction="J6" end="480" vehsPerHour="46.22351224728051" departLane="free"/>
  <flow id="JF28357" begin="420" fromJunction="J3" toJunction="J7" end="480" vehsPerHour="118.14582688593583" departLane="free"/>
  <flow id="JF28358" begin="420" fromJunction="J3" toJunction="J4" end="480" vehsPerHour="12.731373948764402" departLane="free"/>
  <flow id="JF28359" begin="420" fromJunction="J3" toJunction="J5" end="480" vehsPerHour="260.58987648040346" departLane="free"/>
  <flow id="JF28360" begin="420" fromJunction="J6" toJunction="J7" end="480" vehsPerHour="21.63754274429575" departLane="free"/>
  <flow id="JF28361" begin="420" fromJunction="J6" toJunction="J4" end="480" vehsPerHour="67.15341626696843" departLane="free"/>
  <flow id="JF28362" begin="420" fromJunction="J6" toJunction="J5" end="480" vehsPerHour="60.38028722857641" departLane="free"/>
  <flow id="JF28363" begin="420" fromJunction="J7" toJunction="J6" end="480" vehsPerHour="34.97098943748056" departLane="free"/>
  <flow id="JF28364" begin="420" fromJunction="J7" toJunction="J4" end="480" vehsPerHour="18.55848744855926" departLane="free"/>
  <flow id="JF28365" begin="420" fromJunction="J7" toJunction="J5" end="480" vehsPerHour="37.22230012610894" departLane="free"/>
  <flow id="JF28366" begin="420" fromJunction="J4" toJunction="J6" end="480" vehsPerHour="0.46159159210541634" departLane="free"/>
  <flow id="JF28367" begin="420" fromJunction="J4" toJunction="J7" end="480" vehsPerHour="24.832516412661597" departLane="free"/>
  <flow id="JF28368" begin="420" fromJunction="J4" toJunction="J5" end="480" vehsPerHour="16.525941510624282" departLane="free"/>
  <flow id="JF28369" begin="420" fromJunction="J5" toJunction="J6" end="480" vehsPerHour="34.12274907515192" departLane="free"/>
  <flow id="JF28370" begin="420" fromJunction="J5" toJunction="J7" end="480" vehsPerHour="13.77084164207952" departLane="free"/>
  <flow id="JF28371" begin="420" fromJunction="J5" toJunction="J4" end="480" vehsPerHour="13.285624578751012" departLane="free"/>
  <flow id="JF28372" begin="420" fromJunction="J6" toJunction="J0" end="480" vehsPerHour="242.87302777709775" departLane="free"/>
  <flow id="JF28373" begin="420" fromJunction="J6" toJunction="J3" end="480" vehsPerHour="260.8129695213085" departLane="free"/>
  <flow id="JF28374" begin="420" fromJunction="J7" toJunction="J0" end="480" vehsPerHour="217.23882377039754" departLane="free"/>
  <flow id="JF28375" begin="420" fromJunction="J7" toJunction="J3" end="480" vehsPerHour="148.06678556314813" departLane="free"/>
  <flow id="JF28376" begin="420" fromJunction="J4" toJunction="J0" end="480" vehsPerHour="43.83091663657431" departLane="free"/>
  <flow id="JF28377" begin="420" fromJunction="J4" toJunction="J3" end="480" vehsPerHour="215.40063324184874" departLane="free"/>
  <flow id="JF28378" begin="420" fromJunction="J5" toJunction="J0" end="480" vehsPerHour="228.30721439971268" departLane="free"/>
  <flow id="JF28379" begin="420" fromJunction="J5" toJunction="J3" end="480" vehsPerHour="13.716388478197496" departLane="free"/>
  <flow id="JF28380" begin="480" fromJunction="J0" toJunction="J3" end="540" vehsPerHour="60.84155425501477" departLane="free"/>
  <flow id="JF28381" begin="480" fromJunction="J3" toJunction="J0" end="540" vehsPerHour="70.11014571890566" departLane="free"/>
  <flow id="JF28382" begin="480" fromJunction="J0" toJunction="J6" end="540" vehsPerHour="442.1575678813646" departLane="free"/>
  <flow id="JF28383" begin="480" fromJunction="J0" toJunction="J7" end="540" vehsPerHour="188.2038324024077" departLane="free"/>
  <flow id="JF28384" begin="480" fromJunction="J0" toJunction="J4" end="540" vehsPerHour="313.42190162983735" departLane="free"/>
  <flow id="JF28385" begin="480" fromJunction="J0" toJunction="J5" end="540" vehsPerHour="205.63717405775174" departLane="free"/>
  <flow id="JF28386" begin="480" fromJunction="J3" toJunction="J6" end="540" vehsPerHour="315.6993273725173" departLane="free"/>
  <flow id="JF28387" begin="480" fromJunction="J3" toJunction="J7" end="540" vehsPerHour="245.19500089518027" departLane="free"/>
  <flow id="JF28388" begin="480" fromJunction="J3" toJunction="J4" end="540" vehsPerHour="120.59546167640435" departLane="free"/>
  <flow id="JF28389" begin="480" fromJunction="J3" toJunction="J5" end="540" vehsPerHour="308.981986543139" departLane="free"/>
  <flow id="JF28390" begin="540" fromJunction="J0" toJunction="J3" end="600" vehsPerHour="30.86299520014126" departLane="free"/>