<?xml version="1.0" encoding="UTF-8"?>
<routes xmlns:xsi="http://www.w3.org/2001/XMLSchema-instance" xsi:noNamespaceSchemaLocation="http://sumo.dlr.de/xsd/routes_file.xsd">
  <flow id="JF59300" begin="0" fromJunction="J3" toJunction="J0" end="60" vehsPerHour="46.43535451832151" departLane="free"/>
  <flow id="JF59301" begin="0" fromJunction="J0" toJunction="J3" end="60" vehsPerHour="135.0198594629178" departLane="free"/>
  <flow id="JF59302" begin="0" fromJunction="J3" toJunction="J4" end="60" vehsPerHour="92.45311541167058" departLane="free"/>
  <flow id="JF59303" begin="0" fromJunction="J3" toJunction="J5" end="60" vehsPerHour="59.8124112790588" departLane="free"/>
  <flow id="JF59304" begin="0" fromJunction="J3" toJunction="J6" end="60" vehsPerHour="78.28225545606446" departLane="free"/>
  <flow id="JF59305" begin="0" fromJunction="J3" toJunction="J7" end="60" vehsPerHour="74.73755216498598" departLane="free"/>
  <flow id="JF59306" begin="0" fromJunction="J0" toJunction="J4" end="60" vehsPerHour="25.36969803442126" departLane="free"/>
  <flow id="JF59307" begin="0" fromJunction="J0" toJunction="J5" end="60" vehsPerHour="34.1512795105289" departLane="free"/>
  <flow id="JF59308" begin="0" fromJunction="J0" toJunction="J6" end="60" vehsPerHour="9.894696240433984" departLane="free"/>
  <flow id="JF59309" begin="0" fromJunction="J0" toJunction="J7" end="60" vehsPerHour="136.0295464757939" departLane="free"/>
  <flow id="JF59310" begin="0" fromJunction="J4" toJunction="J5" end="60" vehsPerHour="41.59631894098134" departLane="free"/>
  <flow id="JF59311" begin="0" fromJunction="J4" toJunction="J6" end="60" vehsPerHour="14.26709096388003" departLane="free"/>
  <flow id="JF59312" begin="0" fromJunction="J4" toJunction="J7" end="60" vehsPerHour="16.854759177276993" departLane="free"/>
  <flow id="JF59313" begin="0" fromJunction="J5" toJunction="J4" end="60" vehsPerHour="40.20154961873442" departLane="free"/>
  <flow id="JF59314" begin="0" fromJunction="J5" toJunction="J6" end="60" vehsPerHour="36.64625254343743" departLane="free"/>
  <flow id="JF59315" begin="0" fromJunction="J5" toJunction="J7" end="60" vehsPerHour="34.740430325172426" departLane="free"/>
  <flow id="JF59316" begin="0" fromJunction="J6" toJunction="J4" end="60" vehsPerHour="31.146413463090262" departLane="free"/>
  <flow id="JF59317" begin="0" fromJunction="J6" toJunction="J5" end="60" vehsPerHour="48.743410191485296" departLane="free"/>
  <flow id="JF59318" begin="0" fromJunction="J6" toJunction="J7" end="60" vehsPerHour="27.142814492538857" departLane="free"/>
  <flow id="JF59319" begin="0" fromJunction="J7" toJunction="J4" end="60" vehsPerHour="16.60069454170489" departLane="free"/>
  <flow id="JF59320" begin="0" fromJunction="J7" toJunction="J5" end="60" vehsPerHour="56.512607459857044" departLane="free"/>
  <flow id="JF59321" begin="0" fromJunction="J7" toJunction="J6" end="60" vehsPerHour="30.631171926539263" departLane="free"/>
  <flow id="JF59322" begin="0" fromJunction="J4" toJunction="J3" end="60" vehsPerHour="31.789249727957035" departLane="free"/>
  <flow id="JF59323" begin="0" fromJunction="J4" toJunction="J0" end="60" vehsPerHour="68.46065019626701" departLane="free"/>
  <flow id="JF59324" begin="0" fromJunction="J5" toJunction="J3" end="60" vehsPerHour="3.646116854228334" departLane="free"/>
  <flow id="JF59325" begin="0" fromJunction="J5" toJunction="J0" end="60" vehsPerHour="64.40241905886762" departLane="free"/>
  <flow id="JF59326" begin="0" fromJunction="J6" toJunction="J3" end="60" vehsPerHour="48.441842059521235" departLane="free"/>
  <flow id="JF59327" begin="0" fromJunction="J6" toJunction="J0" end="60" vehsPerHour="8.946483181634536" departLane="free"/>
  <flow id="JF59328" begin="0" fromJunction="J7" toJunction="J3" end="60" vehsPerHour="31.554798141226467" departLane="free"/>
  <flow id="JF59329" begin="0" fromJunction="J7" toJunction="J0" end="60" vehsPerHour="36.66920986977879" departLane="free"/>
  <flow id="JF59330" begin="60" fromJunction="J3" toJunction="J0" end="120" vehsPerHour="129.33200704065817" departLane="free"/>
  <flow id="JF59331" begin="60" fromJunction="J0" toJunction="J3" end="120" vehsPerHour="98.95865492248159" departLane="free"/>
  <flow id="JF59332" begin="60" fromJunction="J3" toJunction="J4" end="120" vehsPerHour="19.120747084136575" departLane="free"/>
  <flow id="JF59333" begin="60" fromJunction="J3" toJunction="J5" end="120" vehsPerHour="129.05608433362002" departLane="free"/>
  <flow id="JF59334" begin="60" fromJunction="J3" toJunction="J6" end="120" vehsPerHour="100.34159811473573" departLane="free"/>
  <flow id="JF59335" begin="60" fromJunction="J3" toJunction="J7" end="120" vehsPerHour="29.63306170759325" departLane="free"/>
  <flow id="JF59336" begin="60" fromJunction="J0" toJunction="J4" end="120" vehsPerHour="18.538651806967554" departLane="free"/>
  <flow id="JF59337" begin="60" fromJunction="J0" toJunction="J5" end="120" vehsPerHour="127.37981809506557" departLane="free"/>
  <flow id="JF59338" begin="60" fromJunction="J0" toJunction="J6" end="120" vehsPerHour="106.33979814306643" departLane="free"/>
  <flow id="JF59339" begin="60" fromJunction="J0" toJunction="J7" end="120" vehsPerHour="4.31387612831852" departLane="free"/>
  <flow id="JF59340" begin="60" fromJunction="J4" toJunction="J5" end="120" vehsPerHour="10.258602650334865" departLane="free"/>
  <flow id="JF59341" begin="60" fromJunction="J4" toJunction="J6" end="120" vehsPerHour="2.787335089503811" departLane="free"/>
  <flow id="JF59342" begin="60" fromJunction="J4" toJunction="J7" end="120" vehsPerHour="18.482328754356246" departLane="free"/>
  <flow id="JF59343" begin="60" fromJunction="J5" toJunction="J4" end="120" vehsPerHour="40.07346576012567" departLane="free"/>
  <flow id="JF59344" begin="60" fromJunction="J5" toJunction="J6" end="120" vehsPerHour="33.31562187970365" departLane="free"/>
  <flow id="JF59345" begin="60" fromJunction="J5" toJunction="J7" end="120" vehsPerHour="57.276480773470226" departLane="free"/>
  <flow id="JF59346" begin="60" fromJunction="J6" toJunction="J4" end="120" vehsPerHour="56.43935403945554" departLane="free"/>
  <flow id="JF59347" begin="60" fromJunction="J6" toJunction="J5" end="120" vehsPerHour="5.92092010358899" departLane="free"/>
  <flow id="JF59348" begin="60" fromJunction="J6" toJunction="J7" end="120" vehsPerHour="54.58940478301589" departLane="free"/>
  <flow id="JF59349" begin="60" fromJunction="J7" toJunction="J4" end="120" vehsPerHour="46.438258801588994" departLane="free"/>
  <flow id="JF59350" begin="60" fromJunction="J7" toJunction="J5" end="120" vehsPerHour="64.89983830494297" departLane="free"/>
  <flow id="JF59351" begin="60" fromJunction="J7" toJunction="J6" end="120" vehsPerHour="4.67827572083107" departLane="free"/>
  <flow id="JF59352" begin="60" fromJunction="J4" toJunction="J3" end="120" vehsPerHour="52.8116851047496" departLane="free"/>
  <flow id="JF59353" begin="60" fromJunction="J4" toJunction="J0" end="120" vehsPerHour="15.164210584121859" departLane="free"/>
  <flow id="JF59354" begin="60" fromJunction="J5" toJunction="J3" end="120" vehsPerHour="28.09743440379299" departLane="free"/>
  <flow id="JF59355" begin="60" fromJunction="J5" toJunction="J0" end="120" vehsPerHour="57.24766806206021" departLane="free"/>
  <flow id="JF59356" begin="60" fromJunction="J6" toJunction="J3" end="120" vehsPerHour="30.79260345662832" departLane="free"/>
  <flow id="JF59357" begin="60" fromJunction="J6" toJunction="J0" end="120" vehsPerHour="31.831989479412737" departLane="free"/>
  <flow id="JF59358" begin="60" fromJunction="J7" toJunction="J3" end="120" vehsPerHour="31.925110726759783" departLane="free"/>
  <flow id="JF59359" begin="60" fromJunction="J7" toJunction="J0" end="120" vehsPerHour="54.40687888678283" departLane="free"/>
  <flow id="JF59360" begin="120" fromJunction="J3" toJunction="J0" end="180" vehsPerHour="41.28460534216277" departLane="free"/>
  <flow id="JF59361" begin="120" fromJunction="J0" toJunction="J3" end="180" vehsPerHour="115.67818707358302" departLane="free"/>
  <flow id="JF59362" begin="120" fromJunction="J3" toJunction="J4" end="180" vehsPerHour="47.94467977108274" departLane="free"/>
  <flow id="JF59363" begin="120" fromJunction="J3" toJunction="J5" end="180" vehsPerHour="66.77074902168766" departLane="free"/>
  <flow id="JF59364" begin="120" fromJunction="J3" toJunction="J6" end="180" vehsPerHour="34.06008223355962" departLane="free"/>
  <flow id="JF59365" begin="120" fromJunction="J3" toJunction="J7" end="180" vehsPerHour="49.76966095440443" departLane="free"/>
  <flow id="JF59366" begin="120" fromJunction="J0" toJunction="J4" end="180" vehsPerHour="67.80253815513807" departLane="free"/>
  <flow id="JF59367" begin="120" fromJunction="J0" toJunction="J5" end="180" vehsPerHour="59.53715511413429" departLane="free"/>
  <flow id="JF59368" begin="120" fromJunction="J0" toJunction="J6" end="180" vehsPerHour="136.45791056337106" departLane="free"/>
  <flow id="JF59369" begin="120" fromJunction="J0" toJunction="J7" end="180" vehsPerHour="67.79755112589984" departLane="free"/>
  <flow id="JF59370" begin="120" fromJunction="J4" toJunction="J5" end="180" vehsPerHour="52.05051162528434" departLane="free"/>
  <flow id="JF59371" begin="120" fromJunction="J4" toJunction="J6" end="180" vehsPerHour="67.87515916928672" departLane="free"/>
  <flow id="JF59372" begin="120" fromJunction="J4" toJunction="J7" end="180" vehsPerHour="7.20921823815075" departLane="free"/>
  <flow id="JF59373" begin="120" fromJunction="J5" toJunction="J4" end="180" vehsPerHour="31.438464890235156" departLane="free"/>
  <flow id="JF59374" begin="120" fromJunction="J5" toJunction="J6" end="180" vehsPerHour="67.18434122761774" departLane="free"/>
  <flow id="JF59375" begin="120" fromJunction="J5" toJunction="J7" end="180" vehsPerHour="42.803746565678026" departLane="free"/>
  <flow id="JF59376" begin="120" fromJunction="J6" toJunction="J4" end="180" vehsPerHour="48.65449043016414" departLane="free"/>
  <flow id="JF59377" begin="120" fromJunction="J6" toJunction="J5" end="180" vehsPerHour="45.84905014530998" departLane="free"/>
  <flow id="JF59378" begin="120" fromJunction="J6" toJunction="J7" end="180" vehsPerHour="68.14889891794967" departLane="free"/>
  <flow id="JF59379" begin="120" fromJunction="J7" toJunction="J4" end="180" vehsPerHour="62.66093641511771" departLane="free"/>
  <flow id="JF59380" begin="120" fromJunction="J7" toJunction="J5" end="180" vehsPerHour="28.593803267690706" departLane="free"/>
  <flow id="JF59381" begin="120" fromJunction="J7" toJunction="J6" end="180" vehsPerHour="45.4501444922737" departLane="free"/>
  <flow id="JF59382" begin="120" fromJunction="J4" toJunction="J3" end="180" vehsPerHour="33.296173362286936" departLane="free"/>
  <flow id="JF59383" begin="120" fromJunction="J4" toJunction="J0" end="180" vehsPerHour="24.134768768628426" departLane="free"/>
  <flow id="JF59384" begin="120" fromJunction="J5" toJunction="J3" end="180" vehsPerHour="54.73706370147492" departLane="free"/>
  <flow id="JF59385" begin="120" fromJunction="J5" toJunction="J0" end="180" vehsPerHour="0.4342282780472543" departLane="free"/>
  <flow id="JF59386" begin="120" fromJunction="J6" toJunction="J3" end="180" vehsPerHour="46.250890192743285" departLane="free"/>
  <flow id="JF59387" begin="120" fromJunction="J6" toJunction="J0" end="180" vehsPerHour="12.710941741067913" departLane="free"/>
  <flow id="JF59388" begin="120" fromJunction="J7" toJunction="J3" end="180" vehsPerHour="49.51952793601984" departLane="free"/>
  <flow id="JF59389" begin="120" fromJunction="J7" toJunction="J0" end="180" vehsPerHour="6.800859066356864" departLane="free"/>
  <flow id="JF59390" begin="180" fromJunction="J3" toJunction="J0" end="240" vehsPerHour="70.3479388905986" departLane="free"/>
  <flow id="JF59391" begin="180" fromJunction="J0" toJunction="J3" end="240" vehsPerHour="73.311337705083" departLane="free"/>
  <flow id="JF59392" begin="180" fromJunction="J3" toJunction="J4" end="240" vehsPerHour="37.06587642842641" departLane="free"/>
  <flow id="JF59393" begin="180" fromJunction="J3" toJunction="J5" end="240" vehsPerHour="98.3648161849722" departLane="free"/>
  <flow id="JF59394" begin="180" fromJunction="J3" toJunction="J6" end="240" vehsPerHour="110.47184975967352" departLane="free"/>
  <flow id="JF59395" begin="180" fromJunction="J3" toJunction="J7" end="240" vehsPerHour="135.84299562302147" departLane="free"/>
  <flow id="JF59396" begin="180" fromJunction="J0" toJunction="J4" end="240" vehsPerHour="78.54075026936694" departLane="free"/>
  <flow id="JF59397" begin="180" fromJunction="J0" toJunction="J5" end="240" vehsPerHour="79.50999926366161" departLane="free"/>
  <flow id="JF59398" begin="180" fromJunction="J0" toJunction="J6" end="240" vehsPerHour="6.159827175157808" departLane="free"/>
  <flow id="JF59399" begin="180" fromJunction="J0" toJunction="J7" end="240" vehsPerHour="133.201404506248" departLane="free"/>
  <flow id="JF59400" begin="180" fromJunction="J4" toJunction="J5" end="240" vehsPerHour="37.93875817994726" departLane="free"/>
  <flow id="JF59401" begin="180" fromJunction="J4" toJunction="J6" end="240" vehsPerHour="23.293057769734187" departLane="free"/>
  <flow id="JF59402" begin="180" fromJunction="J4" toJunction="J7" end="240" vehsPerHour="38.33886903557868" departLane="free"/>
  <flow id="JF59403" begin="180" fromJunction="J5" toJunction="J4" end="240" vehsPerHour="19.94264820733551" departLane="free"/>
  <flow id="JF59404" begin="180" fromJunction="J5" toJunction="J6" end="240" vehsPerHour="0.6738193239946288" departLane="free"/>
  <flow id="JF59405" begin="180" fromJunction="J5" toJunction="J7" end="240" vehsPerHour="2.2239897836538938" departLane="free"/>
  <flow id="JF59406" begin="180" fromJunction="J6" toJunction="J4" end="240" vehsPerHour="19.968358315208" departLane="free"/>
  <flow id="JF59407" begin="180" fromJunction="J6" toJunction="J5" end="240" vehsPerHour="32.48099472130159" departLane="free"/>
  <flow id="JF59408" begin="180" fromJunction="J6" toJunction="J7" end="240" vehsPerHour="18.67634648644891" departLane="free"/>
  <flow id="JF59409" begin="180" fromJunction="J7" toJunction="J4" end="240" vehsPerHour="2.5350641607481808" departLane="free"/>
  <flow id="JF59410" begin="180" fromJunction="J7" toJunction="J5" end="240" vehsPerHour="45.234943389002254" departLane="free"/>
  <flow id="JF59411" begin="180" fromJunction="J7" toJunction="J6" end="240" vehsPerHour="17.955578425215545" departLane="free"/>
  <flow id="JF59412" begin="180" fromJunction="J4" toJunction="J3" end="240" vehsPerHour="6.816684520617488" departLane="free"/>
  <flow id="JF59413" begin="180" fromJunction="J4" toJunction="J0" end="240" vehsPerHour="51.22683959672328" departLane="free"/>
  <flow id="JF59414" begin="180" fromJunction="J5" toJunction="J3" end="240" vehsPerHour="9.313641404300922" departLane="free"/>
  <flow id="JF59415" begin="180" fromJunction="J5" toJunction="J0" end="240" vehsPerHour="38.696153338215375" departLane="free"/>
  <flow id="JF59416" begin="180" fromJunction="J6" toJunction="J3" end="240" vehsPerHour="65.45716704782491" departLane="free"/>
  <flow id="JF59417" begin="180" fromJunction="J6" toJunction="J0" end="240" vehsPerHour="11.126064960701926" departLane="free"/>
  <flow id="JF59418" begin="180" fromJunction="J7" toJunction="J3" end="240" vehsPerHour="24.750716056631983" departLane="free"/>
  <flow id="JF59419" begin="180" fromJunction="J7" toJunction="J0" end="240" vehsPerHour="59.17989566075314" departLane="free"/>
  <flow id="JF59420" begin="240" fromJunction="J3" toJunction="J0" end="300" vehsPerHour="42.21723286915626" departLane="free"/>
  <flow id="JF59421" begin="240" fromJunction="J0" toJunction="J3" end="300" vehsPerHour="79.69503799757096" departLane="free"/>
  <flow id="JF59422" begin="240" fromJunction="J3" toJunction="J4" end="300" vehsPerHour="119.19101270585088" departLane="free"/>
  <flow id="JF59423" begin="240" fromJunction="J3" toJunction="J5" end="300" vehsPerHour="81.81237926886489" departLane="free"/>
  <flow id="JF59424" begin="240" fromJunction="J3" toJunction="J6" end="300" vehsPerHour="82.92166792628956" departLane="free"/>
  <flow id="JF59425" begin="240" fromJunction="J3" toJunction="J7" end="300" vehsPerHour="72.74911766917619" departLane="free"/>
  <flow id="JF59426" begin="240" fromJunction="J0" toJunction="J4" end="300" vehsPerHour="5.581119137531874" departLane="free"/>
  <flow id="JF59427" begin="240" fromJunction="J0" toJunction="J5" end="300" vehsPerHour="59.888085358167395" departLane="free"/>
  <flow id="JF59428" begin="240" fromJunction="J0" toJunction="J6" end="300" vehsPerHour="34.97737142384809" departLane="free"/>
  <flow id="JF59429" begin="240" fromJunction="J0" toJunction="J7" end="300" vehsPerHour="60.15919089623435" departLane="free"/>
  <flow id="JF59430" begin="240" fromJunction="J4" toJunction="J5" end="300" vehsPerHour="11.880841938865249" departLane="free"/>
  <flow id="JF59431" begin="240" fromJunction="J4" toJunction="J6" end="300" vehsPerHour="68.22579315952247" departLane="free"/>
  <flow id="JF59432" begin="240" fromJunction="J4" toJunction="J7" end="300" vehsPerHour="34.35859230118789" departLane="free"/>
  <flow id="JF59433" begin="240" fromJunction="J5" toJunction="J4" end="300" vehsPerHour="48.55361571529243" departLane="free"/>
  <flow id="JF59434" begin="240" fromJunction="J5" toJunction="J6" end="300" vehsPerHour="3.279407862270096" departLane="free"/>
  <flow id="JF59435" begin="240" fromJunction="J5" toJunction="J7" end="300" vehsPerHour="24.59058657595626" departLane="free"/>
  <flow id="JF59436" begin="240" fromJunction="J6" toJunction="J4" end="300" vehsPerHour="54.803058448601796" departLane="free"/>
  <flow id="JF59437" begin="240" fromJunction="J6" toJunction="J5" end="300" vehsPerHour="23.360976712819962" departLane="free"/>
  <flow id="JF59438" begin="240" fromJunction="J6" toJunction="J7" end="300" vehsPerHour="37.18297559505558" departLane="free"/>
  <flow id="JF59439" begin="240" fromJunction="J7" toJunction="J4" end="300" vehsPerHour="44.86443211329601" departLane="free"/>
  <flow id="JF59440" begin="240" fromJunction="J7" toJunction="J5" end="300" vehsPerHour="43.33206094161755" departLane="free"/>
  <flow id="JF59441" begin="240" fromJunction="J7" toJunction="J6" end="300" vehsPerHour="32.90757411205841" departLane="free"/>
  <flow id="JF59442" begin="240" fromJunction="J4" toJunction="J3" end="300" vehsPerHour="41.41545708130319" departLane="free"/>
  <flow id="JF59443" begin="240" fromJunction="J4" toJunction="J0" end="300" vehsPerHour="13.018989080275123" departLane="free"/>
  <flow id="JF59444" begin="240" fromJunction="J5" toJunction="J3" end="300" vehsPerHour="34.41292957338819" departLane="free"/>
  <flow id="JF59445" begin="240" fromJunction="J5" toJunction="J0" end="300" vehsPerHour="51.75276186413962" departLane="free"/>
  <flow id="JF59446" begin="240" fromJunction="J6" toJunction="J3" end="300" vehsPerHour="37.884552282527416" departLane="free"/>
  <flow id="JF59447" begin="240" fromJunction="J6" toJunction="J0" end="300" vehsPerHour="48.64307899409632" departLane="free"/>
  <flow id="JF59448" begin="240" fromJunction="J7" toJunction="J3" end="300" vehsPerHour="61.83076130381699" departLane="free"/>
  <flow id="JF59449" begin="240" fromJunction="J7" toJunction="J0" end="300" vehsPerHour="53.27198293017579" departLane="free"/>
  <flow id="JF59450" begin="300" fromJunction="J3" toJunction="J0" end="360" vehsPerHour="107.50339318032297" departLane="free"/>
  <flow id="JF59451" begin="300" fromJunction="J0" toJunction="J3" end="360" vehsPerHour="27.325276036457254" departLane="free"/>
  <flow id="JF59452" begin="300" fromJunction="J3" toJunction="J4" end="360" vehsPerHour="86.91050070084744" departLane="free"/>
  <flow id="JF59453" begin="300" fromJunction="J3" toJunction="J5" end="360" vehsPerHour="109.52738740260715" departLane="free"/>
  <flow id="JF59454" begin="300" fromJunction="J3" toJunction="J6" end="360" vehsPerHour="94.72522245214942" departLane="free"/>
  <flow id="JF59455" begin="300" fromJunction="J3" toJunction="J7" end="360" vehsPerHour="73.91522216147638" departLane="free"/>
  <flow id="JF59456" begin="300" fromJunction="J0" toJunction="J4" end="360" vehsPerHour="22.01213991587299" departLane="free"/>
  <flow id="JF59457" begin="300" fromJunction="J0" toJunction="J5" end="360" vehsPerHour="35.465341103704596" departLane="free"/>
  <flow id="JF59458" begin="300" fromJunction="J0" toJunction="J6" end="360" vehsPerHour="133.17792495719254" departLane="free"/>
  <flow id="JF59459" begin="300" fromJunction="J0" toJunction="J7" end="360" vehsPerHour="129.17631234283812" departLane="free"/>
  <flow id="JF59460" begin="300" fromJunction="J4" toJunction="J5" end="360" vehsPerHour="30.366040468366062" departLane="free"/>
  <flow id="JF59461" begin="300" fromJunction="J4" toJunction="J6" end="360" vehsPerHour="58.537663186167066" departLane="free"/>
  <flow id="JF59462" begin="300" fromJunction="J4" toJunction="J7" end="360" vehsPerHour="59.50946197955502" departLane="free"/>
  <flow id="JF59463" begin="300" fromJunction="J5" toJunction="J4" end="360" vehsPerHour="51.22002579230374" departLane="free"/>
  <flow id="JF59464" begin="300" fromJunction="J5" toJunction="J6" end="360" vehsPerHour="40.80005276050507" departLane="free"/>
  <flow id="JF59465" begin="300" fromJunction="J5" toJunction="J7" end="360" vehsPerHour="67.56494818509604" departLane="free"/>
  <flow id="JF59466" begin="300" fromJunction="J6" toJunction="J4" end="360" vehsPerHour="67.60838783497488" departLane="free"/>
  <flow id="JF59467" begin="300" fromJunction="J6" toJunction="J5" end="360" vehsPerHour="59.900205022444624" departLane="free"/>
  <flow id="JF59468" begin="300" fromJunction="J6" toJunction="J7" end="360" vehsPerHour="22.163915819740254" departLane="free"/>
  <flow id="JF59469" begin="300" fromJunction="J7" toJunction="J4" end="360" vehsPerHour="2.8605810004123122" departLane="free"/>
  <flow id="JF59470" begin="300" fromJunction="J7" toJunction="J5" end="360" vehsPerHour="65.47861109769882" departLane="free"/>
  <flow id="JF59471" begin="300" fromJunction="J7" toJunction="J6" end="360" vehsPerHour="34.972023788404854" departLane="free"/>
  <flow id="JF59472" begin="300" fromJunction="J4" toJunction="J3" end="360" vehsPerHour="51.29901730529886" departLane="free"/>
  <flow id="JF59473" begin="300" fromJunction="J4" toJunction="J0" end="360" vehsPerHour="16.866827353883792" departLane="free"/>
  <flow id="JF59474" begin="300" fromJunction="J5" toJunction="J3" end="360" vehsPerHour="5.352428063428019" departLane="free"/>
  <flow id="JF59475" begin="300" fromJunction="J5" toJunction="J0" end="360" vehsPerHour="17.624570895740185" departLane="free"/>
  <flow id="JF59476" begin="300" fromJunction="J6" toJunction="J3" end="360" vehsPerHour="66.34017694510925" departLane="free"/>
  <flow id="JF59477" begin="300" fromJunction="J6" toJunction="J0" end="360" vehsPerHour="61.75675280461175" departLane="free"/>
  <flow id="JF59478" begin="300" fromJunction="J7" toJunction="J3" end="360" vehsPerHour="59.971274898692236" departLane="free"/>
  <flow id="JF59479" begin="300" fromJunction="J7" toJunction="J0" end="360" vehsPerHour="38.2215186590631" departLane="free"/>
  <flow id="JF59480" begin="360" fromJunction="J3" toJunction="J0" end="420" vehsPerHour="62.893952400422194" departLane="free"/>
  <flow id="JF59481" begin="360" fromJunction="J0" toJunction="J3" end="420" vehsPerHour="52.4615164699445" departLane="free"/>
  <flow id="JF59482" begin="360" fromJunction="J3" toJunction="J4" end="420" vehsPerHour="134.28930865375634" departLane="free"/>
  <flow id="JF59483" begin="360" fromJunction="J3" toJunction="J5" end="420" vehsPerHour="92.84973568311527" departLane="free"/>
  <flow id="JF59484" begin="360" fromJunction="J3" toJunction="J6" end="420" vehsPerHour="70.28674656013565" departLane="free"/>
  <flow id="JF59485" begin="360" fromJunction="J3" toJunction="J7" end="420" vehsPerHour="103.21784179132594" departLane="free"/>
  <flow id="JF59486" begin="360" fromJunction="J0" toJunction="J4" end="420" vehsPerHour="118.5976737134166" departLane="free"/>
  <flow id="JF59487" begin="360" fromJunction="J0" toJunction="J5" end="420" vehsPerHour="15.458956140616053" departLane="free"/>
  <flow id="JF59488" begin="360" fromJunction="J0" toJunction="J6" end="420" vehsPerHour="13.597652082835388" departLane="free"/>
  <flow id="JF59489" begin="360" fromJunction="J0" toJunction="J7" end="420" vehsPerHour="106.05949773773524" departLane="free"/>
  <flow id="JF59490" begin="360" fromJunction="J4" toJunction="J5" end="420" vehsPerHour="3.7112167276651746" departLane="free"/>
  <flow id="JF59491" begin="360" fromJunction="J4" toJunction="J6" end="420" vehsPerHour="63.523343615895264" departLane="free"/>
  <flow id="JF59492" begin="360" fromJunction="J4" toJunction="J7" end="420" vehsPerHour="55.66047436480253" departLane="free"/>
  <flow id="JF59493" begin="360" fromJunction="J5" toJunction="J4" end="420" vehsPerHour="0.2996885629682715" departLane="free"/>
  <flow id="JF59494" begin="360" fromJunction="J5" toJunction="J6" end="420" vehsPerHour="3.449101467869928" departLane="free"/>
  <flow id="JF59495" begin="360" fromJunction="J5" toJunction="J7" end="420" vehsPerHour="68.49629708842166" departLane="free"/>
  <flow id="JF59496" begin="360" fromJunction="J6" toJunction="J4" end="420" vehsPerHour="13.986702738688985" departLane="free"/>
  <flow id="JF59497" begin="360" fromJunction="J6" toJunction="J5" end="420" vehsPerHour="47.27269830571712" departLane="free"/>
  <flow id="JF59498" begin="360" fromJunction="J6" toJunction="J7" end="420" vehsPerHour="63.18132623410534" departLane="free"/>
  <flow id="JF59499" begin="360" fromJunction="J7" toJunction="J4" end="420" vehsPerHour="12.535907136726882" departLane="free"/>
  <flow id="JF59500" begin="360" fromJunction="J7" toJunction="J5" end="420" vehsPerHour="23.71521073344921" departLane="free"/>
  <flow id="JF59501" begin="360" fromJunction="J7" toJunction="J6" end="420" vehsPerHour="19.82205825314179" departLane="free"/>
  <flow id="JF59502" begin="360" fromJunction="J4" toJunction="J3" end="420" vehsPerHour="5.131514775671787" departLane="free"/>
  <flow id="JF59503" begin="360" fromJunction="J4" toJunction="J0" end="420" vehsPerHour="10.773200107742767" departLane="free"/>
  <flow id="JF59504" begin="360" fromJunction="J5" toJunction="J3" end="420" vehsPerHour="37.549852833645694" departLane="free"/>
  <flow id="JF59505" begin="360" fromJunction="J5" toJunction="J0" end="420" vehsPerHour="63.35785553643533" departLane="free"/>
  <flow id="JF59506" begin="360" fromJunction="J6" toJunction="J3" end="420" vehsPerHour="45.56695804981669" departLane="free"/>
  <flow id="JF59507" begin="360" fromJunction="J6" toJunction="J0" end="420" vehsPerHour="21.230943482616983" departLane="free"/>
  <flow id="JF59508" begin="360" fromJunction="J7" toJunction="J3" end="420" vehsPerHour="6.540496607073333" departLane="free"/>
  <flow id="JF59509" begin="360" fromJunction="J7" toJunction="J0" end="420" vehsPerHour="3.6975816348651604" departLane="free"/>
  <flow id="JF59510" begin="420" fromJunction="J3" toJunction="J0" end="480" vehsPerHour="103.52387449359587" departLane="free"/>
  <flow id="JF59511" begin="420" fromJunction="J0" toJunction="J3" end="480" vehsPerHour="23.640113478145246" departLane="free"/>
  <flow id="JF59512" begin="420" fromJunction="J3" toJunction="J4" end="480" vehsPerHour="26.77651670305054" departLane="free"/>
  <flow id="JF59513" begin="420" fromJunction="J3" toJunction="J5" end="480" vehsPerHour="109.1904802911861" departLane="free"/>
  <flow id="JF59514" begin="420" fromJunction="J3" toJunction="J6" end="480" vehsPerHour="79.31893216207392" departLane="free"/>
  <flow id="JF59515" begin="420" fromJunction="J3" toJunction="J7" end="480" vehsPerHour="129.87775125375572" departLane="free"/>
  <flow id="JF59516" begin="420" fromJunction="J0" toJunction="J4" end="480" vehsPerHour="56.842830954653195" departLane="free"/>
  <flow id="JF59517" begin="420" fromJunction="J0" toJunction="J5" end="480" vehsPerHour="100.98357314728607" departLane="free"/>
  <flow id="JF59518" begin="420" fromJunction="J0" toJunction="J6" end="480" vehsPerHour="28.094124878339514" departLane="free"/>
  <flow id="JF59519" begin="420" fromJunction="J0" toJunction="J7" end="480" vehsPerHour="107.60574201239682" departLane="free"/>
  <flow id="JF59520" begin="480" fromJunction="J3" toJunction="J0" end="540" vehsPerHour="129.39768771964927" departLane="free"/>
  <flow id="JF59521" begin="480" fromJunction="J0" toJunction="J3" end="540" vehsPerHour="4.533015122412133" departLane="free"/>
  <flow id="JF59522" begin="480" fromJunction="J3" toJunction="J4" end="540" vehsPerHour="68.08062342045892" departLane="free"/>
  <flow id="JF59523" begin="480" fromJunction="J3" toJunction="J5" end="540" vehsPerHour="64.15452950122217" departLane="free"/>
  <flow id="JF59524" begin="480" fromJunction="J3" toJunction="J6" end="540" vehsPerHour="115.38536383555702" departLane="free"/>
  <flow id="JF59525" begin="480" fromJunction="J3" toJunction="J7" end="540" vehsPerHour="51.65404998481003" departLane="free"/>
  <flow id="JF59526" begin="480" fromJunction="J0" toJunction="J4" end="540" vehsPerHour="64.37532747251923" departLane="free"/>
  <flow id="JF59527" begin="480" fromJunction="J0" toJunction="J5" end="540" vehsPerHour="35.35054541663227" departLane="free"/>
  <flow id="JF59528" begin="480" fromJunction="J0" toJunction="J6" end="540" vehsPerHour="52.43646391352797" departLane="free"/>
  <flow id="JF59529" begin="480" fromJunction="J0" toJunction="J7" end="540" vehsPerHour="70.59443149171234" departLane="free"/>
  <flow id="JF59530" begin="480" fromJunction="J4" toJunction="J5" end="540" vehsPerHour="9.027934707509093" departLane="free"/>