<?xml version="1.0" encoding="UTF-8"?>
<routes xmlns:xsi="http://www.w3.org/2001/XMLSchema-instance" xsi:noNamespaceSchemaLocation="http://sumo.dlr.de/xsd/routes_file.xsd">
  <flow id="JF75640" begin="0" fromJunction="J3" toJunction="J0" end="60" vehsPerHour="125.53781329926387" departLane="free"/>
  <flow id="JF75641" begin="0" fromJunction="J0" toJunction="J3" end="60" vehsPerHour="128.012442251544" departLane="free"/>
  <flow id="JF75642" begin="0" fromJunction="J3" toJunction="J4" end="60" vehsPerHour="14.602563920478415" departLane="free"/>
  <flow id="JF75643" begin="0" fromJunction="J3" toJunction="J5" end="60" vehsPerHour="132.938077543423" departLane="free"/>
  <flow id="JF75644" begin="0" fromJunction="J3" toJunction="J6" end="60" vehsPerHour="124.66430413109667" departLane="free"/>
  <flow id="JF75645" begin="0" fromJunction="J3" toJunction="J7" end="60" vehsPerHour="51.49151948597055" departLane="free"/>
  <flow id="JF75646" begin="0" fromJunction="J0" toJunction="J4" end="60" vehsPerHour="0.7237730068989053" departLane="free"/>
  <flow id="JF75647" begin="0" fromJunction="J0" toJunction="J5" end="60" vehsPerHour="93.42310666233794" departLane="free"/>
  <flow id="JF75648" begin="0" fromJunction="J0" toJunction="J6" end="60" vehsPerHour="135.00495570790784" departLane="free"/>
  <flow id="JF75649" begin="0" fromJunction="J0" toJunction="J7" end="60" vehsPerHour="111.35711168504241" departLane="free"/>
  <flow id="JF75650" begin="60" fromJunction="J3" toJunction="J0" end="120" vehsPerHour="98.76333767143188" departLane="free"/>
  <flow id="JF75651" begin="60" fromJunction="J0" toJunction="J3" end="120" vehsPerHour="68.24519067607405" departLane="free"/>
  <flow id="JF75652" begin="60" fromJunction="J3" toJunction="J4" end="120" vehsPerHour="84.83127226318597" departLane="free"/>
  <flow id="JF75653" begin="60" fromJunction="J3" toJunction="J5" end="120" vehsPerHour="106.36692329693368" departLane="free"/>
  <flow id="JF75654" begin="60" fromJunction="J3" toJunction="J6" end="120" vehsPerHour="110.9455811456921" departLane="free"/>
  <flow id="JF75655" begin="60" fromJunction="J3" toJunction="J7" end="120" vehsPerHour="34.402560927829406" departLane="free"/>
  <flow id="JF75656" begin="60" fromJunction="J0" toJunction="J4" end="120" vehsPerHour="17.499697619650313" departLane="free"/>
  <flow id="JF75657" begin="60" fromJunction="J0" toJunction="J5" end="120" vehsPerHour="54.217387496712824" departLane="free"/>
  <flow id="JF75658" begin="60" fromJunction="J0" toJunction="J6" end="120" vehsPerHour="73.8274405590178" departLane="free"/>
  <flow id="JF75659" begin="60" fromJunction="J0" toJunction="J7" end="120" vehsPerHour="129.54594850610596" departLane="free"/>
  <flow id="JF75660" begin="60" fromJunction="J4" toJunction="J5" end="120" vehsPerHour="35.95494911478348" departLane="free"/>
  <flow id="JF75661" begin="60" fromJunction="J4" toJunction="J6" end="120" vehsPerHour="28.289672774617543" departLane="free"/>
  <flow id="JF75662" begin="60" fromJunction="J4" toJunction="J7" end="120" vehsPerHour="37.228290798078646" departLane="free"/>
  <flow id="JF75663" begin="60" fromJunction="J5" toJunction="J4" end="120" vehsPerHour="64.68345733498118" departLane="free"/>
  <flow id="JF75664" begin="60" fromJunction="J5" toJunction="J6" end="120" vehsPerHour="29.958302147476093" departLane="free"/>
  <flow id="JF75665" begin="60" fromJunction="J5" toJunction="J7" end="120" vehsPerHour="58.961951965840136" departLane="free"/>
  <flow id="JF75666" begin="60" fromJunction="J6" toJunction="J4" end="120" vehsPerHour="61.13680194190568" departLane="free"/>
  <flow id="JF75667" begin="60" fromJunction="J6" toJunction="J5" end="120" vehsPerHour="16.33929887645893" departLane="free"/>
  <flow id="JF75668" begin="60" fromJunction="J6" toJunction="J7" end="120" vehsPerHour="21.49660041729879" departLane="free"/>
  <flow id="JF75669" begin="60" fromJunction="J7" toJunction="J4" end="120" vehsPerHour="43.591973541379225" departLane="free"/>
  <flow id="JF75670" begin="60" fromJunction="J7" toJunction="J5" end="120" vehsPerHour="42.79999183607088" departLane="free"/>
  <flow id="JF75671" begin="60" fromJunction="J7" toJunction="J6" end="120" vehsPerHour="46.581084715927005" departLane="free"/>
  <flow id="JF75672" begin="60" fromJunction="J4" toJunction="J3" end="120" vehsPerHour="15.033434898318202" departLane="free"/>
  <flow id="JF75673" begin="60" fromJunction="J4" toJunction="J0" end="120" vehsPerHour="35.36910013407929" departLane="free"/>
  <flow id="JF75674" begin="60" fromJunction="J5" toJunction="J3" end="120" vehsPerHour="12.653271319167137" departLane="free"/>
  <flow id="JF75675" begin="60" fromJunction="J5" toJunction="J0" end="120" vehsPerHour="61.90401518745382" departLane="free"/>
  <flow id="JF75676" begin="60" fromJunction="J6" toJunction="J3" end="120" vehsPerHour="54.05721892585234" departLane="free"/>
  <flow id="JF75677" begin="60" fromJunction="J6" toJunction="J0" end="120" vehsPerHour="36.35400434230518" departLane="free"/>
  <flow id="JF75678" begin="60" fromJunction="J7" toJunction="J3" end="120" vehsPerHour="53.028752713145686" departLane="free"/>
  <flow id="JF75679" begin="60" fromJunction="J7" toJunction="J0" end="120" vehsPerHour="28.246422952614196" departLane="free"/>
  <flow id="JF75680" begin="120" fromJunction="J3" toJunction="J0" end="180" vehsPerHour="48.98269896219972" departLane="free"/>
  <flow id="JF75681" begin="120" fromJunction="J0" toJunction="J3" end="180" vehsPerHour="11.877281583338664" departLane="free"/>
  <flow id="JF75682" begin="120" fromJunction="J3" toJunction="J4" end="180" vehsPerHour="126.61309954549088" departLane="free"/>
  <flow id="JF75683" begin="120" fromJunction="J3" toJunction="J5" end="180" vehsPerHour="40.5712178030339" departLane="free"/>
  <flow id="JF75684" begin="120" fromJunction="J3" toJunction="J6" end="180" vehsPerHour="89.04755072344287" departLane="free"/>
  <flow id="JF75685" begin="120" fromJunction="J3" toJunction="J7" end="180" vehsPerHour="66.93080663844975" departLane="free"/>
  <flow id="JF75686" begin="120" fromJunction="J0" toJunction="J4" end="180" vehsPerHour="59.09973773094746" departLane="free"/>
  <flow id="JF75687" begin="120" fromJunction="J0" toJunction="J5" end="180" vehsPerHour="26.64444494983601" departLane="free"/>
  <flow id="JF75688" begin="120" fromJunction="J0" toJunction="J6" end="180" vehsPerHour="34.13493923410199" departLane="free"/>
  <flow id="JF75689" begin="120" fromJunction="J0" toJunction="J7" end="180" vehsPerHour="61.2831363607608" departLane="free"/>
  <flow id="JF75690" begin="120" fromJunction="J4" toJunction="J5" end="180" vehsPerHour="22.10482081541279" departLane="free"/>
  <flow id="JF75691" begin="120" fromJunction="J4" toJunction="J6" end="180" vehsPerHour="31.46251760653725" departLane="free"/>
  <flow id="JF75692" begin="120" fromJunction="J4" toJunction="J7" end="180" vehsPerHour="40.569765058105176" departLane="free"/>
  <flow id="JF75693" begin="120" fromJunction="J5" toJunction="J4" end="180" vehsPerHour="29.856237751085782" departLane="free"/>
  <flow id="JF75694" begin="120" fromJunction="J5" toJunction="J6" end="180" vehsPerHour="44.57380013176616" departLane="free"/>
  <flow id="JF75695" begin="120" fromJunction="J5" toJunction="J7" end="180" vehsPerHour="44.39395744505926" departLane="free"/>
  <flow id="JF75696" begin="120" fromJunction="J6" toJunction="J4" end="180" vehsPerHour="5.921498607818943" departLane="free"/>
  <flow id="JF75697" begin="120" fromJunction="J6" toJunction="J5" end="180" vehsPerHour="43.36967818991801" departLane="free"/>
  <flow id="JF75698" begin="120" fromJunction="J6" toJunction="J7" end="180" vehsPerHour="52.53610725490978" departLane="free"/>
  <flow id="JF75699" begin="120" fromJunction="J7" toJunction="J4" end="180" vehsPerHour="41.80201330909849" departLane="free"/>
  <flow id="JF75700" begin="120" fromJunction="J7" toJunction="J5" end="180" vehsPerHour="56.911812284753154" departLane="free"/>
  <flow id="JF75701" begin="120" fromJunction="J7" toJunction="J6" end="180" vehsPerHour="23.95209962369749" departLane="free"/>
  <flow id="JF75702" begin="120" fromJunction="J4" toJunction="J3" end="180" vehsPerHour="35.451591570244936" departLane="free"/>
  <flow id="JF75703" begin="120" fromJunction="J4" toJunction="J0" end="180" vehsPerHour="63.96966014093809" departLane="free"/>
  <flow id="JF75704" begin="120" fromJunction="J5" toJunction="J3" end="180" vehsPerHour="44.61558594257071" departLane="free"/>
  <flow id="JF75705" begin="120" fromJunction="J5" toJunction="J0" end="180" vehsPerHour="65.63294280818309" departLane="free"/>
  <flow id="JF75706" begin="120" fromJunction="J6" toJunction="J3" end="180" vehsPerHour="2.307101680738081" departLane="free"/>
  <flow id="JF75707" begin="120" fromJunction="J6" toJunction="J0" end="180" vehsPerHour="22.776192777038602" departLane="free"/>
  <flow id="JF75708" begin="120" fromJunction="J7" toJunction="J3" end="180" vehsPerHour="7.568042040574774" departLane="free"/>
  <flow id="JF75709" begin="120" fromJunction="J7" toJunction="J0" end="180" vehsPerHour="19.805418172218584" departLane="free"/>
  <flow id="JF75710" begin="180" fromJunction="J3" toJunction="J0" end="240" vehsPerHour="36.88079287941767" departLane="free"/>
  <flow id="JF75711" begin="180" fromJunction="J0" toJunction="J3" end="240" vehsPerHour="23.932706426577038" departLane="free"/>
  <flow id="JF75712" begin="180" fromJunction="J3" toJunction="J4" end="240" vehsPerHour="89.36146641343497" departLane="free"/>
  <flow id="JF75713" begin="180" fromJunction="J3" toJunction="J5" end="240" vehsPerHour="13.535627431110408" departLane="free"/>
  <flow id="JF75714" begin="180" fromJunction="J3" toJunction="J6" end="240" vehsPerHour="10.283817354141396" departLane="free"/>
  <flow id="JF75715" begin="180" fromJunction="J3" toJunction="J7" end="240" vehsPerHour="48.98651145815741" departLane="free"/>
  <flow id="JF75716" begin="180" fromJunction="J0" toJunction="J4" end="240" vehsPerHour="61.56183237172244" departLane="free"/>
  <flow id="JF75717" begin="180" fromJunction="J0" toJunction="J5" end="240" vehsPerHour="46.99053511736225" departLane="free"/>
  <flow id="JF75718" begin="180" fromJunction="J0" toJunction="J6" end="240" vehsPerHour="54.59586325408015" departLane="free"/>
  <flow id="JF75719" begin="180" fromJunction="J0" toJunction="J7" end="240" vehsPerHour="55.034937825499824" departLane="free"/>
  <flow id="JF75720" begin="180" fromJunction="J4" toJunction="J5" end="240" vehsPerHour="3.5887976941684365" departLane="free"/>
  <flow id="JF75721" begin="180" fromJunction="J4" toJunction="J6" end="240" vehsPerHour="18.67494374190261" departLane="free"/>
  <flow id="JF75722" begin="180" fromJunction="J4" toJunction="J7" end="240" vehsPerHour="13.187233464419993" departLane="free"/>
  <flow id="JF75723" begin="180" fromJunction="J5" toJunction="J4" end="240" vehsPerHour="28.884003831859147" departLane="free"/>
  <flow id="JF75724" begin="180" fromJunction="J5" toJunction="J6" end="240" vehsPerHour="34.453115338427196" departLane="free"/>
  <flow id="JF75725" begin="180" fromJunction="J5" toJunction="J7" end="240" vehsPerHour="60.267890493138296" departLane="free"/>
  <flow id="JF75726" begin="180" fromJunction="J6" toJunction="J4" end="240" vehsPerHour="0.769779823219836" departLane="free"/>
  <flow id="JF75727" begin="180" fromJunction="J6" toJunction="J5" end="240" vehsPerHour="42.67120668373708" departLane="free"/>
  <flow id="JF75728" begin="180" fromJunction="J6" toJunction="J7" end="240" vehsPerHour="55.0102195396579" departLane="free"/>
  <flow id="JF75729" begin="180" fromJunction="J7" toJunction="J4" end="240" vehsPerHour="53.5718870317557" departLane="free"/>
  <flow id="JF75730" begin="180" fromJunction="J7" toJunction="J5" end="240" vehsPerHour="35.17038287601545" departLane="free"/>
  <flow id="JF75731" begin="180" fromJunction="J7" toJunction="J6" end="240" vehsPerHour="49.04363165311582" departLane="free"/>
  <flow id="JF75732" begin="180" fromJunction="J4" toJunction="J3" end="240" vehsPerHour="27.985460233885682" departLane="free"/>
  <flow id="JF75733" begin="180" fromJunction="J4" toJunction="J0" end="240" vehsPerHour="3.8728505923822403" departLane="free"/>
  <flow id="JF75734" begin="180" fromJunction="J5" toJunction="J3" end="240" vehsPerHour="27.085321790223507" departLane="free"/>
  <flow id="JF75735" begin="180" fromJunction="J5" toJunction="J0" end="240" vehsPerHour="39.197183880235606" departLane="free"/>
  <flow id="JF75736" begin="180" fromJunction="J6" toJunction="J3" end="240" vehsPerHour="1.900753738188672" departLane="free"/>
  <flow id="JF75737" begin="180" fromJunction="J6" toJunction="J0" end="240" vehsPerHour="42.427752894299296" departLane="free"/>
  <flow id="JF75738" begin="180" fromJunction="J7" toJunction="J3" end="240" vehsPerHour="61.221254565593675" departLane="free"/>
  <flow id="JF75739" begin="180" fromJunction="J7" toJunction="J0" end="240" vehsPerHour="28.616695355948288" departLane="free"/>
  <flow id="JF75740" begin="240" fromJunction="J3" toJunction="J0" end="300" vehsPerHour="27.6201909908876" departLane="free"/>
  <flow id="JF75741" begin="240" fromJunction="J0" toJunction="J3" end="300" vehsPerHour="134.7565943420005" departLane="free"/>
  <flow id="JF75742" begin="240" fromJunction="J3" toJunction="J4" end="300" vehsPerHour="69.7461559974308" departLane="free"/>
  <flow id="JF75743" begin="240" fromJunction="J3" toJunction="J5" end="300" vehsPerHour="94.99821931914067" departLane="free"/>
  <flow id="JF75744" begin="240" fromJunction="J3" toJunction="J6" end="300" vehsPerHour="62.36835772175824" departLane="free"/>
  <flow id="JF75745" begin="240" fromJunction="J3" toJunction="J7" end="300" vehsPerHour="1.510521355087178" departLane="free"/>
  <flow id="JF75746" begin="240" fromJunction="J0" toJunction="J4" end="300" vehsPerHour="6.283390455608875" departLane="free"/>
  <flow id="JF75747" begin="240" fromJunction="J0" toJunction="J5" end="300" vehsPerHour="101.0254066390824" departLane="free"/>
  <flow id="JF75748" begin="240" fromJunction="J0" toJunction="J6" end="300" vehsPerHour="48.32720808016735" departLane="free"/>
  <flow id="JF75749" begin="240" fromJunction="J0" toJunction="J7" end="300" vehsPerHour="40.722760305579264" departLane="free"/>
  <flow id="JF75750" begin="240" fromJunction="J4" toJunction="J5" end="300" vehsPerHour="60.320902500751366" departLane="free"/>
  <flow id="JF75751" begin="240" fromJunction="J4" toJunction="J6" end="300" vehsPerHour="43.260821392139135" departLane="free"/>
  <flow id="JF75752" begin="240" fromJunction="J4" toJunction="J7" end="300" vehsPerHour="43.982972255673886" departLane="free"/>
  <flow id="JF75753" begin="240" fromJunction="J5" toJunction="J4" end="300" vehsPerHour="30.719211818716413" departLane="free"/>
  <flow id="JF75754" begin="240" fromJunction="J5" toJunction="J6" end="300" vehsPerHour="65.95249336550988" departLane="free"/>
  <flow id="JF75755" begin="240" fromJunction="J5" toJunction="J7" end="300" vehsPerHour="39.15854981218299" departLane="free"/>
  <flow id="JF75756" begin="240" fromJunction="J6" toJunction="J4" end="300" vehsPerHour="21.566207209296927" departLane="free"/>
  <flow id="JF75757" begin="240" fromJunction="J6" toJunction="J5" end="300" vehsPerHour="53.88299850894283" departLane="free"/>
  <flow id="JF75758" begin="240" fromJunction="J6" toJunction="J7" end="300" vehsPerHour="32.67687799410366" departLane="free"/>
  <flow id="JF75759" begin="240" fromJunction="J7" toJunction="J4" end="300" vehsPerHour="34.884289380913586" departLane="free"/>
  <flow id="JF75760" begin="240" fromJunction="J7" toJunction="J5" end="300" vehsPerHour="17.370470415213486" departLane="free"/>
  <flow id="JF75761" begin="240" fromJunction="J7" toJunction="J6" end="300" vehsPerHour="68.36113322527589" departLane="free"/>
  <flow id="JF75762" begin="240" fromJunction="J4" toJunction="J3" end="300" vehsPerHour="29.31564572161727" departLane="free"/>
  <flow id="JF75763" begin="240" fromJunction="J4" toJunction="J0" end="300" vehsPerHour="41.93824722113643" departLane="free"/>
  <flow id="JF75764" begin="240" fromJunction="J5" toJunction="J3" end="300" vehsPerHour="1.727430171111292" departLane="free"/>
  <flow id="JF75765" begin="240" fromJunction="J5" toJunction="J0" end="300" vehsPerHour="18.48288900944346" departLane="free"/>
  <flow id="JF75766" begin="240" fromJunction="J6" toJunction="J3" end="300" vehsPerHour="42.84589527357156" departLane="free"/>
  <flow id="JF75767" begin="240" fromJunction="J6" toJunction="J0" end="300" vehsPerHour="4.124116989224289" departLane="free"/>
  <flow id="JF75768" begin="240" fromJunction="J7" toJunction="J3" end="300" vehsPerHour="41.58885888174626" departLane="free"/>
  <flow id="JF75769" begin="240" fromJunction="J7" toJunction="J0" end="300" vehsPerHour="62.38373639549167" departLane="free"/>
  <flow id="JF75770" begin="300" fromJunction="J3" toJunction="J0" end="360" vehsPerHour="67.61172342653289" departLane="free"/>
  <flow id="JF75771" begin="300" fromJunction="J0" toJunction="J3" end="360" vehsPerHour="8.704019139834466" departLane="free"/>
  <flow id="JF75772" begin="300" fromJunction="J3" toJunction="J4" end="360" vehsPerHour="42.08280227495901" departLane="free"/>
  <flow id="JF75773" begin="300" fromJunction="J3" toJunction="J5" end="360" vehsPerHour="14.551011326436463" departLane="free"/>
  <flow id="JF75774" begin="300" fromJunction="J3" toJunction="J6" end="360" vehsPerHour="119.93675900423509" departLane="free"/>
  <flow id="JF75775" begin="300" fromJunction="J3" toJunction="J7" end="360" vehsPerHour="117.31692628402277" departLane="free"/>
  <flow id="JF75776" begin="300" fromJunction="J0" toJunction="J4" end="360" vehsPerHour="66.51117661345829" departLane="free"/>
  <flow id="JF75777" begin="300" fromJunction="J0" toJunction="J5" end="360" vehsPerHour="75.5025453472487" departLane="free"/>
  <flow id="JF75778" begin="300" fromJunction="J0" toJunction="J6" end="360" vehsPerHour="22.49604137247569" departLane="free"/>
  <flow id="JF75779" begin="300" fromJunction="J0" toJunction="J7" end="360" vehsPerHour="28.083802096609066" departLane="free"/>
  <flow id="JF75780" begin="300" fromJunction="J4" toJunction="J5" end="360" vehsPerHour="54.9083444945025" departLane="free"/>
  <flow id="JF75781" begin="300" fromJunction="J4" toJunction="J6" end="360" vehsPerHour="22.307459530526753" departLane="free"/>
  <flow id="JF75782" begin="300" fromJunction="J4" toJunction="J7" end="360" vehsPerHour="41.754644663627595" departLane="free"/>
  <flow id="JF75783" begin="300" fromJunction="J5" toJunction="J4" end="360" vehsPerHour="43.648807049097" departLane="free"/>
  <flow id="JF75784" begin="300" fromJunction="J5" toJunction="J6" end="360" vehsPerHour="33.71061799696931" departLane="free"/>
  <flow id="JF75785" begin="300" fromJunction="J5" toJunction="J7" end="360" vehsPerHour="0.8327215961246054" departLane="free"/>
  <flow id="JF75786" begin="300" fromJunction="J6" toJunction="J4" end="360" vehsPerHour="61.66154373139504" departLane="free"/>
  <flow id="JF75787" begin="300" fromJunction="J6" toJunction="J5" end="360" vehsPerHour="30.006845643089033" departLane="free"/>
  <flow id="JF75788" begin="300" fromJunction="J6" toJunction="J7" end="360" vehsPerHour="40.47742873485919" departLane="free"/>
  <flow id="JF75789" begin="300" fromJunction="J7" toJunction="J4" end="360" vehsPerHour="56.0360888833357" departLane="free"/>
  <flow id="JF75790" begin="300" fromJunction="J7" toJunction="J5" end="360" vehsPerHour="49.636527211658326" departLane="free"/>
  <flow id="JF75791" begin="300" fromJunction="J7" toJunction="J6" end="360" vehsPerHour="36.008146192601494" departLane="free"/>
  <flow id="JF75792" begin="300" fromJunction="J4" toJunction="J3" end="360" vehsPerHour="28.780094326874135" departLane="free"/>
  <flow id="JF75793" begin="300" fromJunction="J4" toJunction="J0" end="360" vehsPerHour="8.246910987803291" departLane="free"/>
  <flow id="JF75794" begin="300" fromJunction="J5" toJunction="J3" end="360" vehsPerHour="64.63527566277263" departLane="free"/>
  <flow id="JF75795" begin="300" fromJunction="J5" toJunction="J0" end="360" vehsPerHour="40.52247131647926" departLane="free"/>
  <flow id="JF75796" begin="300" fromJunction="J6" toJunction="J3" end="360" vehsPerHour="45.65411636032625" departLane="free"/>
  <flow id="JF75797" begin="300" fromJunction="J6" toJunction="J0" end="360" vehsPerHour="53.86622637308875" departLane="free"/>
  <flow id="JF75798" begin="300" fromJunction="J7" toJunction="J3" end="360" vehsPerHour="44.813352393306936" departLane="free"/>
  <flow id="JF75799" begin="300" fromJunction="J7" toJunction="J0" end="360" vehsPerHour="21.849442841328887" departLane="free"/>
  <flow id="JF75800" begin="360" fromJunction="J3" toJunction="J0" end="420" vehsPerHour="119.35895010321633" departLane="free"/>
  <flow id="JF75801" begin="360" fromJunction="J0" toJunction="J3" end="420" vehsPerHour="102.3032926585119" departLane="free"/>
  <flow id="JF75802" begin="360" fromJunction="J3" toJunction="J4" end="420" vehsPerHour="27.38976300349344" departLane="free"/>
  <flow id="JF75803" begin="360" fromJunction="J3" toJunction="J5" end="420" vehsPerHour="75.738523045321" departLane="free"/>
  <flow id="JF75804" begin="360" fromJunction="J3" toJunction="J6" end="420" vehsPerHour="86.31457785116923" departLane="free"/>
  <flow id="JF75805" begin="360" fromJunction="J3" toJunction="J7" end="420" vehsPerHour="54.605467678121364" departLane="free"/>
  <flow id="JF75806" begin="360" fromJunction="J0" toJunction="J4" end="420" vehsPerHour="29.521301893982088" departLane="free"/>
  <flow id="JF75807" begin="360" fromJunction="J0" toJunction="J5" end="420" vehsPerHour="90.7376464035902" departLane="free"/>
  <flow id="JF75808" begin="360" fromJunction="J0" toJunction="J6" end="420" vehsPerHour="16.735930127258488" departLane="free"/>
  <flow id="JF75809" begin="360" fromJunction="J0" toJunction="J7" end="420" vehsPerHour="27.65231661722548" departLane="free"/>
  <flow id="JF75810" begin="360" fromJunction="J4" toJunction="J5" end="420" vehsPerHour="34.65446232179403" departLane="free"/>
  <flow id="JF75811" begin="360" fromJunction="J4" toJunction="J6" end="420" vehsPerHour="49.63048911194501" departLane="free"/>
  <flow id="JF75812" begin="360" fromJunction="J4" toJunction="J7" end="420" vehsPerHour="34.28700032524503" departLane="free"/>
  <flow id="JF75813" begin="360" fromJunction="J5" toJunction="J4" end="420" vehsPerHour="65.50817826251783" departLane="free"/>
  <flow id="JF75814" begin="360" fromJunction="J5" toJunction="J6" end="420" vehsPerHour="55.589353426284184" departLane="free"/>
  <flow id="JF75815" begin="360" fromJunction="J5" toJunction="J7" end="420" vehsPerHour="16.563094527381107" departLane="free"/>
  <flow id="JF75816" begin="360" fromJunction="J6" toJunction="J4" end="420" vehsPerHour="3.1439164121795766" departLane="free"/>
  <flow id="JF75817" begin="360" fromJunction="J6" toJunction="J5" end="420" vehsPerHour="41.540311659463235" departLane="free"/>
  <flow id="JF75818" begin="360" fromJunction="J6" toJunction="J7" end="420" vehsPerHour="34.63569053066678" departLane="free"/>
  <flow id="JF75819" begin="360" fromJunction="J7" toJunction="J4" end="420" vehsPerHour="37.52029132396452" departLane="free"/>
  <flow id="JF75820" begin="360" fromJunction="J7" toJunction="J5" end="420" vehsPerHour="13.837073295705592" departLane="free"/>
  <flow id="JF75821" begin="360" fromJunction="J7" toJunction="J6" end="420" vehsPerHour="12.09342175691119" departLane="free"/>
  <flow id="JF75822" begin="360" fromJunction="J4" toJunction="J3" end="420" vehsPerHour="47.68136262910215" departLane="free"/>
  <flow id="JF75823" begin="360" fromJunction="J4" toJunction="J0" end="420" vehsPerHour="50.047964819488925" departLane="free"/>
  <flow id="JF75824" begin="360" fromJunction="J5" toJunction="J3" end="420" vehsPerHour="56.48335408491061" departLane="free"/>
  <flow id="JF75825" begin="360" fromJunction="J5" toJunction="J0" end="420" vehsPerHour="37.99702334120064" departLane="free"/>
  <flow id="JF75826" begin="360" fromJunction="J6" toJunction="J3" end="420" vehsPerHour="44.93524741838817" departLane="free"/>
  <flow id="JF75827" begin="360" fromJunction="J6" toJunction="J0" end="420" vehsPerHour="53.17525796582917" departLane="free"/>
  <flow id="JF75828" begin="360" fromJunction="J7" toJunction="J3" end="420" vehsPerHour="30.085928687853595" departLane="free"/>
  <flow id="JF75829" begin="360" fromJunction="J7" toJunction="J0" end="420" vehsPerHour="56.15713049116371" departLane="free"/>
  <flow id="JF75830" begin="420" fromJunction="J3" toJunction="J0" end="480" vehsPerHour="38.84055832765212" departLane="free"/>
  <flow id="JF75831" begin="420" fromJunction="J0" toJunction="J3" end="480" vehsPerHour="72.92334229668982" departLane="free"/>
  <flow id="JF75832" begin="420" fromJunction="J3" toJunction="J4" end="480" vehsPerHour="7.545237354286394" departLane="free"/>
  <flow id="JF75833" begin="420" fromJunction="J3" toJunction="J5" end="480" vehsPerHour="136.4442394757402" departLane="free"/>
  <flow id="JF75834" begin="420" fromJunction="J3" toJunction="J6" end="480" vehsPerHour="123.15796832394363" departLane="free"/>
  <flow id="JF75835" begin="420" fromJunction="J3" toJunction="J7" end="480" vehsPerHour="132.12685957509848" departLane="free"/>
  <flow id="JF75836" begin="420" fromJunction="J0" toJunction="J4" end="480" vehsPerHour="55.16030945402351" departLane="free"/>
  <flow id="JF75837" begin="420" fromJunction="J0" toJunction="J5" end="480" vehsPerHour="2.553322906622348" departLane="free"/>
  <flow id="JF75838" begin="420" fromJunction="J0" toJunction="J6" end="480" vehsPerHour="124.0947101830386" departLane="free"/>
  <flow id="JF75839" begin="420" fromJunction="J0" toJunction="J7" end="480" vehsPerHour="67.56166696036313" departLane="free"/>
  <flow id="JF75840" begin="420" fromJunction="J4" toJunction="J5" end="480" vehsPerHour="41.333527996632625" departLane="free"/>
  <flow id="JF75841" begin="420" fromJunction="J4" toJunction="J6" end="480" vehsPerHour="68.49789852905968" departLane="free"/>
  <flow id="JF75842" begin="420" fromJunction="J4" toJunction="J7" end="480" vehsPerHour="65.94273515389037" departLane="free"/>
  <flow id="JF75843" begin="420" fromJunction="J5" toJunction="J4" end="480" vehsPerHour="1.6128868232137625" departLane="free"/>
  <flow id="JF75844" begin="420" fromJunction="J5" toJunction="J6" end="480" vehsPerHour="8.992433167978088" departLane="free"/>
  <flow id="JF75845" begin="420" fromJunction="J5" toJunction="J7" end="480" vehsPerHour="12.298241153430682" departLane="free"/>
  <flow id="JF75846" begin="420" fromJunction="J6" toJunction="J4" end="480" vehsPerHour="2.4527164304821736" departLane="free"/>
  <flow id="JF75847" begin="420" fromJunction="J6" toJunction="J5" end="480" vehsPerHour="18.016320404833095" departLane="free"/>
  <flow id="JF75848" begin="420" fromJunction="J6" toJunction="J7" end="480" vehsPerHour="51.7621304058857" departLane="free"/>
  <flow id="JF75849" begin="420" fromJunction="J7" toJunction="J4" end="480" vehsPerHour="67.5578997409223" departLane="free"/>
  <flow id="JF75850" begin="420" fromJunction="J7" toJunction="J5" end="480" vehsPerHour="60.54855802938781" departLane="free"/>
  <flow id="JF75851" begin="420" fromJunction="J7" toJunction="J6" end="480" vehsPerHour="1.758769102839956" departLane="free"/>
  <flow id="JF75852" begin="420" fromJunction="J4" toJunction="J3" end="480" vehsPerHour="19.60482346712753" departLane="free"/>
  <flow id="JF75853" begin="420" fromJunction="J4" toJunction="J0" end="480" vehsPerHour="67.4350797366524" departLane="free"/>
  <flow id="JF75854" begin="420" fromJunction="J5" toJunction="J3" end="480" vehsPerHour="41.80002848904506" departLane="free"/>
  <flow id="JF75855" begin="420" fromJunction="J5" toJunction="J0" end="480" vehsPerHour="10.498800851290893" departLane="free"/>
  <flow id="JF75856" begin="420" fromJunction="J6" toJunction="J3" end="480" vehsPerHour="0.9231514191755733" departLane="free"/>
  <flow id="JF75857" begin="420" fromJunction="J6" toJunction="J0" end="480" vehsPerHour="30.492762102677926" departLane="free"/>
  <flow id="JF75858" begin="420" fromJunction="J7" toJunction="J3" end="480" vehsPerHour="49.456561813340194" departLane="free"/>
  <flow id="JF75859" begin="420" fromJunction="J7" toJunction="J0" end="480" vehsPerHour="12.853093946321735" departLane="free"/>
  <flow id="JF75860" begin="480" fromJunction="J3" toJunction="J0" end="540" vehsPerHour="84.3101974720753" departLane="free"/>
  <flow id="JF75861" begin="480" fromJunction="J0" toJunction="J3" end="540" vehsPerHour="49.329101539955886" departLane="free"/>
  <flow id="JF75862" begin="480" fromJunction="J3" toJunction="J4" end="540" vehsPerHour="72.75362687560146" departLane="free"/>
  <flow id="JF75863" begin="480" fromJunction="J3" toJunction="J5" end="540" vehsPerHour="123.50453905399641" departLane="free"/>
  <flow id="JF75864" begin="480" fromJunction="J3" toJunction="J6" end="540" vehsPerHour="74.12169045327548" departLane="free"/>
  <flow id="JF75865" begin="480" fromJunction="J3" toJunction="J7" end="540" vehsPerHour="110.11849496520729" departLane="free"/>
  <flow id="JF75866" begin="480" fromJunction="J0" toJunction="J4" end="540" vehsPerHour="15.597385520229654" departLane="free"/>
  <flow id="JF75867" begin="480" fromJunction="J0" toJunction="J5" end="540" vehsPerHour="72.59870897172856" departLane="free"/>
  <flow id="JF75868" begin="480" fromJunction="J0" toJunction="J6" end="540" vehsPerHour="11.149850807335648" departLane="free"/>
  <flow id="JF75869" begin="480" fromJunction="J0" toJunction="J7" end="540" vehsPerHour="100.83271589757523" departLane="free"/>
  <flow id="JF75870" begin="480" fromJunction="J4" toJunction="J5" end="540" vehsPerHour="18.845862104106292" departLane="free"/>