<?xml version="1.0" encoding="UTF-8"?>
<routes xmlns:xsi="http://www.w3.org/2001/XMLSchema-instance" xsi:noNamespaceSchemaLocation="http://sumo.dlr.de/xsd/routes_file.xsd">
  <flow id="JF63280" begin="0" fromJunction="J3" toJunction="J0" end="60" vehsPerHour="116.91516472979713" departLane="free"/>
  <flow id="JF63281" begin="0" fromJunction="J0" toJunction="J3" end="60" vehsPerHour="119.30910861412065" departLane="free"/>
  <flow id="JF63282" begin="0" fromJunction="J3" toJunction="J4" end="60" vehsPerHour="75.14394526414239" departLane="free"/>
  <flow id="JF63283" begin="0" fromJunction="J3" toJunction="J5" end="60" vehsPerHour="95.04755391307948" departLane="free"/>
  <flow id="JF63284" begin="0" fromJunction="J3" toJunction="J6" end="60" vehsPerHour="46.46237924249642" departLane="free"/>
  <flow id="JF63285" begin="0" fromJunction="J3" toJunction="J7" end="60" vehsPerHour="127.49117417114167" departLane="free"/>
  <flow id="JF63286" begin="0" fromJunction="J0" toJunction="J4" end="60" vehsPerHour="106.11371472462304" departLane="free"/>
  <flow id="JF63287" begin="0" fromJunction="J0" toJunction="J5" end="60" vehsPerHour="37.77082023892041" departLane="free"/>
  <flow id="JF63288" begin="0" fromJunction="J0" toJunction="J6" end="60" vehsPerHour="108.18077170753102" departLane="free"/>
  <flow id="JF63289" begin="0" fromJunction="J0" toJunction="J7" end="60" vehsPerHour="84.5498531882015" departLane="free"/>
  <flow id="JF63290" begin="0" fromJunction="J4" toJunction="J5" end="60" vehsPerHour="59.150485892760436" departLane="free"/>
  <flow id="JF63291" begin="0" fromJunction="J4" toJunction="J6" end="60" vehsPerHour="4.365076292806265" departLane="free"/>
  <flow id="JF63292" begin="0" fromJunction="J4" toJunction="J7" end="60" vehsPerHour="6.493151849530884" departLane="free"/>
  <flow id="JF63293" begin="0" fromJunction="J5" toJunction="J4" end="60" vehsPerHour="26.45895358644912" departLane="free"/>
  <flow id="JF63294" begin="0" fromJunction="J5" toJunction="J6" end="60" vehsPerHour="28.75512571374228" departLane="free"/>
  <flow id="JF63295" begin="0" fromJunction="J5" toJunction="J7" end="60" vehsPerHour="12.575349706144323" departLane="free"/>
  <flow id="JF63296" begin="0" fromJunction="J6" toJunction="J4" end="60" vehsPerHour="61.87427323552445" departLane="free"/>
  <flow id="JF63297" begin="0" fromJunction="J6" toJunction="J5" end="60" vehsPerHour="60.24911629994532" departLane="free"/>
  <flow id="JF63298" begin="0" fromJunction="J6" toJunction="J7" end="60" vehsPerHour="66.56979230967096" departLane="free"/>
  <flow id="JF63299" begin="0" fromJunction="J7" toJunction="J4" end="60" vehsPerHour="62.96364012509229" departLane="free"/>
  <flow id="JF63300" begin="0" fromJunction="J7" toJunction="J5" end="60" vehsPerHour="4.788230735349036" departLane="free"/>
  <flow id="JF63301" begin="0" fromJunction="J7" toJunction="J6" end="60" vehsPerHour="11.481069416931662" departLane="free"/>
  <flow id="JF63302" begin="0" fromJunction="J4" toJunction="J3" end="60" vehsPerHour="44.42672490671949" departLane="free"/>
  <flow id="JF63303" begin="0" fromJunction="J4" toJunction="J0" end="60" vehsPerHour="59.3008878592228" departLane="free"/>
  <flow id="JF63304" begin="0" fromJunction="J5" toJunction="J3" end="60" vehsPerHour="24.256440973519155" departLane="free"/>
  <flow id="JF63305" begin="0" fromJunction="J5" toJunction="J0" end="60" vehsPerHour="10.352787223881347" departLane="free"/>
  <flow id="JF63306" begin="0" fromJunction="J6" toJunction="J3" end="60" vehsPerHour="62.247104146289054" departLane="free"/>
  <flow id="JF63307" begin="0" fromJunction="J6" toJunction="J0" end="60" vehsPerHour="7.640480828450073" departLane="free"/>
  <flow id="JF63308" begin="0" fromJunction="J7" toJunction="J3" end="60" vehsPerHour="12.183446266701859" departLane="free"/>
  <flow id="JF63309" begin="0" fromJunction="J7" toJunction="J0" end="60" vehsPerHour="57.79799339199136" departLane="free"/>
  <flow id="JF63310" begin="60" fromJunction="J3" toJunction="J0" end="120" vehsPerHour="91.98234307391235" departLane="free"/>
  <flow id="JF63311" begin="60" fromJunction="J0" toJunction="J3" end="120" vehsPerHour="119.57063427308837" departLane="free"/>
  <flow id="JF63312" begin="60" fromJunction="J3" toJunction="J4" end="120" vehsPerHour="89.2266655620827" departLane="free"/>
  <flow id="JF63313" begin="60" fromJunction="J3" toJunction="J5" end="120" vehsPerHour="49.6827306296112" departLane="free"/>
  <flow id="JF63314" begin="60" fromJunction="J3" toJunction="J6" end="120" vehsPerHour="57.66854068400332" departLane="free"/>
  <flow id="JF63315" begin="60" fromJunction="J3" toJunction="J7" end="120" vehsPerHour="115.37405461976923" departLane="free"/>
  <flow id="JF63316" begin="60" fromJunction="J0" toJunction="J4" end="120" vehsPerHour="34.13081109333705" departLane="free"/>
  <flow id="JF63317" begin="60" fromJunction="J0" toJunction="J5" end="120" vehsPerHour="49.177663983159846" departLane="free"/>
  <flow id="JF63318" begin="60" fromJunction="J0" toJunction="J6" end="120" vehsPerHour="0.31398696267524584" departLane="free"/>
  <flow id="JF63319" begin="60" fromJunction="J0" toJunction="J7" end="120" vehsPerHour="79.69902815091764" departLane="free"/>
  <flow id="JF63320" begin="60" fromJunction="J4" toJunction="J5" end="120" vehsPerHour="35.5670474549386" departLane="free"/>
  <flow id="JF63321" begin="60" fromJunction="J4" toJunction="J6" end="120" vehsPerHour="19.022501674672522" departLane="free"/>
  <flow id="JF63322" begin="60" fromJunction="J4" toJunction="J7" end="120" vehsPerHour="15.857165652131552" departLane="free"/>
  <flow id="JF63323" begin="60" fromJunction="J5" toJunction="J4" end="120" vehsPerHour="46.27560520657701" departLane="free"/>
  <flow id="JF63324" begin="60" fromJunction="J5" toJunction="J6" end="120" vehsPerHour="21.42685549648981" departLane="free"/>
  <flow id="JF63325" begin="60" fromJunction="J5" toJunction="J7" end="120" vehsPerHour="15.974566993486008" departLane="free"/>
  <flow id="JF63326" begin="60" fromJunction="J6" toJunction="J4" end="120" vehsPerHour="39.42281965570568" departLane="free"/>
  <flow id="JF63327" begin="60" fromJunction="J6" toJunction="J5" end="120" vehsPerHour="47.023702283335766" departLane="free"/>
  <flow id="JF63328" begin="60" fromJunction="J6" toJunction="J7" end="120" vehsPerHour="9.981737439079838" departLane="free"/>
  <flow id="JF63329" begin="60" fromJunction="J7" toJunction="J4" end="120" vehsPerHour="14.225042131038222" departLane="free"/>
  <flow id="JF63330" begin="60" fromJunction="J7" toJunction="J5" end="120" vehsPerHour="21.943123858627086" departLane="free"/>
  <flow id="JF63331" begin="60" fromJunction="J7" toJunction="J6" end="120" vehsPerHour="37.347569804119395" departLane="free"/>
  <flow id="JF63332" begin="60" fromJunction="J4" toJunction="J3" end="120" vehsPerHour="4.583252531681333" departLane="free"/>
  <flow id="JF63333" begin="60" fromJunction="J4" toJunction="J0" end="120" vehsPerHour="6.512960941960364" departLane="free"/>
  <flow id="JF63334" begin="60" fromJunction="J5" toJunction="J3" end="120" vehsPerHour="5.49031333092734" departLane="free"/>
  <flow id="JF63335" begin="60" fromJunction="J5" toJunction="J0" end="120" vehsPerHour="11.290780987244068" departLane="free"/>
  <flow id="JF63336" begin="60" fromJunction="J6" toJunction="J3" end="120" vehsPerHour="5.1391396741761275" departLane="free"/>
  <flow id="JF63337" begin="60" fromJunction="J6" toJunction="J0" end="120" vehsPerHour="67.1683388101854" departLane="free"/>
  <flow id="JF63338" begin="60" fromJunction="J7" toJunction="J3" end="120" vehsPerHour="20.479766666601574" departLane="free"/>
  <flow id="JF63339" begin="60" fromJunction="J7" toJunction="J0" end="120" vehsPerHour="63.883991224546094" departLane="free"/>
  <flow id="JF63340" begin="120" fromJunction="J3" toJunction="J0" end="180" vehsPerHour="45.046512739928176" departLane="free"/>
  <flow id="JF63341" begin="120" fromJunction="J0" toJunction="J3" end="180" vehsPerHour="80.72225448824118" departLane="free"/>
  <flow id="JF63342" begin="120" fromJunction="J3" toJunction="J4" end="180" vehsPerHour="124.36674626616842" departLane="free"/>
  <flow id="JF63343" begin="120" fromJunction="J3" toJunction="J5" end="180" vehsPerHour="58.708378165125225" departLane="free"/>
  <flow id="JF63344" begin="120" fromJunction="J3" toJunction="J6" end="180" vehsPerHour="73.65489173722051" departLane="free"/>
  <flow id="JF63345" begin="120" fromJunction="J3" toJunction="J7" end="180" vehsPerHour="75.8094239635027" departLane="free"/>
  <flow id="JF63346" begin="120" fromJunction="J0" toJunction="J4" end="180" vehsPerHour="33.44420213342352" departLane="free"/>
  <flow id="JF63347" begin="120" fromJunction="J0" toJunction="J5" end="180" vehsPerHour="0.030282519378505148" departLane="free"/>
  <flow id="JF63348" begin="120" fromJunction="J0" toJunction="J6" end="180" vehsPerHour="101.21193889018049" departLane="free"/>
  <flow id="JF63349" begin="120" fromJunction="J0" toJunction="J7" end="180" vehsPerHour="136.79258546836394" departLane="free"/>
  <flow id="JF63350" begin="180" fromJunction="J3" toJunction="J0" end="240" vehsPerHour="120.40339824956376" departLane="free"/>
  <flow id="JF63351" begin="180" fromJunction="J0" toJunction="J3" end="240" vehsPerHour="91.44538553062118" departLane="free"/>
  <flow id="JF63352" begin="180" fromJunction="J3" toJunction="J4" end="240" vehsPerHour="2.4607300082726127" departLane="free"/>
  <flow id="JF63353" begin="180" fromJunction="J3" toJunction="J5" end="240" vehsPerHour="32.96543697725428" departLane="free"/>
  <flow id="JF63354" begin="180" fromJunction="J3" toJunction="J6" end="240" vehsPerHour="98.51081713456597" departLane="free"/>
  <flow id="JF63355" begin="180" fromJunction="J3" toJunction="J7" end="240" vehsPerHour="14.784961345879326" departLane="free"/>
  <flow id="JF63356" begin="180" fromJunction="J0" toJunction="J4" end="240" vehsPerHour="72.16672067469047" departLane="free"/>
  <flow id="JF63357" begin="180" fromJunction="J0" toJunction="J5" end="240" vehsPerHour="126.37136436085532" departLane="free"/>
  <flow id="JF63358" begin="180" fromJunction="J0" toJunction="J6" end="240" vehsPerHour="86.08350375224445" departLane="free"/>
  <flow id="JF63359" begin="180" fromJunction="J0" toJunction="J7" end="240" vehsPerHour="59.14547792518326" departLane="free"/>
  <flow id="JF63360" begin="180" fromJunction="J4" toJunction="J5" end="240" vehsPerHour="54.11754905878629" departLane="free"/>
  <flow id="JF63361" begin="180" fromJunction="J4" toJunction="J6" end="240" vehsPerHour="56.57731605411597" departLane="free"/>
  <flow id="JF63362" begin="180" fromJunction="J4" toJunction="J7" end="240" vehsPerHour="1.702667159802425" departLane="free"/>
  <flow id="JF63363" begin="180" fromJunction="J5" toJunction="J4" end="240" vehsPerHour="14.65295148766756" departLane="free"/>
  <flow id="JF63364" begin="180" fromJunction="J5" toJunction="J6" end="240" vehsPerHour="33.70842190321209" departLane="free"/>
  <flow id="JF63365" begin="180" fromJunction="J5" toJunction="J7" end="240" vehsPerHour="47.00362991510316" departLane="free"/>
  <flow id="JF63366" begin="180" fromJunction="J6" toJunction="J4" end="240" vehsPerHour="41.59763822092632" departLane="free"/>
  <flow id="JF63367" begin="180" fromJunction="J6" toJunction="J5" end="240" vehsPerHour="22.46189403196584" departLane="free"/>
  <flow id="JF63368" begin="180" fromJunction="J6" toJunction="J7" end="240" vehsPerHour="50.582130768211584" departLane="free"/>
  <flow id="JF63369" begin="180" fromJunction="J7" toJunction="J4" end="240" vehsPerHour="23.639235773843875" departLane="free"/>
  <flow id="JF63370" begin="180" fromJunction="J7" toJunction="J5" end="240" vehsPerHour="1.3112063403976384" departLane="free"/>
  <flow id="JF63371" begin="180" fromJunction="J7" toJunction="J6" end="240" vehsPerHour="34.28097263274131" departLane="free"/>
  <flow id="JF63372" begin="180" fromJunction="J4" toJunction="J3" end="240" vehsPerHour="16.885923084207413" departLane="free"/>
  <flow id="JF63373" begin="180" fromJunction="J4" toJunction="J0" end="240" vehsPerHour="67.10719719183763" departLane="free"/>
  <flow id="JF63374" begin="180" fromJunction="J5" toJunction="J3" end="240" vehsPerHour="37.141538180094955" departLane="free"/>
  <flow id="JF63375" begin="180" fromJunction="J5" toJunction="J0" end="240" vehsPerHour="26.595810222994594" departLane="free"/>
  <flow id="JF63376" begin="180" fromJunction="J6" toJunction="J3" end="240" vehsPerHour="12.293045368903378" departLane="free"/>
  <flow id="JF63377" begin="180" fromJunction="J6" toJunction="J0" end="240" vehsPerHour="51.26698321421963" departLane="free"/>
  <flow id="JF63378" begin="180" fromJunction="J7" toJunction="J3" end="240" vehsPerHour="31.9812858496464" departLane="free"/>
  <flow id="JF63379" begin="180" fromJunction="J7" toJunction="J0" end="240" vehsPerHour="44.24103089986675" departLane="free"/>
  <flow id="JF63380" begin="240" fromJunction="J3" toJunction="J0" end="300" vehsPerHour="79.40024700067168" departLane="free"/>
  <flow id="JF63381" begin="240" fromJunction="J0" toJunction="J3" end="300" vehsPerHour="34.00926897943932" departLane="free"/>
  <flow id="JF63382" begin="240" fromJunction="J3" toJunction="J4" end="300" vehsPerHour="116.32777124723346" departLane="free"/>
  <flow id="JF63383" begin="240" fromJunction="J3" toJunction="J5" end="300" vehsPerHour="88.75518699327212" departLane="free"/>
  <flow id="JF63384" begin="240" fromJunction="J3" toJunction="J6" end="300" vehsPerHour="63.753630348335584" departLane="free"/>
  <flow id="JF63385" begin="240" fromJunction="J3" toJunction="J7" end="300" vehsPerHour="29.051501339019953" departLane="free"/>
  <flow id="JF63386" begin="240" fromJunction="J0" toJunction="J4" end="300" vehsPerHour="14.084397452889466" departLane="free"/>
  <flow id="JF63387" begin="240" fromJunction="J0" toJunction="J5" end="300" vehsPerHour="85.75871341338254" departLane="free"/>
  <flow id="JF63388" begin="240" fromJunction="J0" toJunction="J6" end="300" vehsPerHour="118.31243975231115" departLane="free"/>
  <flow id="JF63389" begin="240" fromJunction="J0" toJunction="J7" end="300" vehsPerHour="29.038788693904046" departLane="free"/>
  <flow id="JF63390" begin="240" fromJunction="J4" toJunction="J5" end="300" vehsPerHour="9.032652141032072" departLane="free"/>
  <flow id="JF63391" begin="240" fromJunction="J4" toJunction="J6" end="300" vehsPerHour="20.488093102227587" departLane="free"/>
  <flow id="JF63392" begin="240" fromJunction="J4" toJunction="J7" end="300" vehsPerHour="43.946208049027135" departLane="free"/>
  <flow id="JF63393" begin="240" fromJunction="J5" toJunction="J4" end="300" vehsPerHour="66.19009203580715" departLane="free"/>
  <flow id="JF63394" begin="240" fromJunction="J5" toJunction="J6" end="300" vehsPerHour="56.63530726709299" departLane="free"/>
  <flow id="JF63395" begin="240" fromJunction="J5" toJunction="J7" end="300" vehsPerHour="17.216798647018976" departLane="free"/>
  <flow id="JF63396" begin="240" fromJunction="J6" toJunction="J4" end="300" vehsPerHour="26.90526567269855" departLane="free"/>
  <flow id="JF63397" begin="240" fromJunction="J6" toJunction="J5" end="300" vehsPerHour="7.9114777318297875" departLane="free"/>
  <flow id="JF63398" begin="240" fromJunction="J6" toJunction="J7" end="300" vehsPerHour="39.48979364250429" departLane="free"/>
  <flow id="JF63399" begin="240" fromJunction="J7" toJunction="J4" end="300" vehsPerHour="3.827953533424623" departLane="free"/>
  <flow id="JF63400" begin="240" fromJunction="J7" toJunction="J5" end="300" vehsPerHour="6.992861003516365" departLane="free"/>
  <flow id="JF63401" begin="240" fromJunction="J7" toJunction="J6" end="300" vehsPerHour="57.253627549476285" departLane="free"/>
  <flow id="JF63402" begin="240" fromJunction="J4" toJunction="J3" end="300" vehsPerHour="33.58242055533756" departLane="free"/>
  <flow id="JF63403" begin="240" fromJunction="J4" toJunction="J0" end="300" vehsPerHour="62.62758887540985" departLane="free"/>
  <flow id="JF63404" begin="240" fromJunction="J5" toJunction="J3" end="300" vehsPerHour="2.3496011608057765" departLane="free"/>
  <flow id="JF63405" begin="240" fromJunction="J5" toJunction="J0" end="300" vehsPerHour="50.09295259925051" departLane="free"/>
  <flow id="JF63406" begin="240" fromJunction="J6" toJunction="J3" end="300" vehsPerHour="37.53462686172667" departLane="free"/>
  <flow id="JF63407" begin="240" fromJunction="J6" toJunction="J0" end="300" vehsPerHour="58.20196839874705" departLane="free"/>
  <flow id="JF63408" begin="240" fromJunction="J7" toJunction="J3" end="300" vehsPerHour="58.70444073273462" departLane="free"/>
  <flow id="JF63409" begin="240" fromJunction="J7" toJunction="J0" end="300" vehsPerHour="41.84999479937849" departLane="free"/>
  <flow id="JF63410" begin="300" fromJunction="J3" toJunction="J0" end="360" vehsPerHour="102.08072231476474" departLane="free"/>
  <flow id="JF63411" begin="300" fromJunction="J0" toJunction="J3" end="360" vehsPerHour="42.73264698530258" departLane="free"/>
  <flow id="JF63412" begin="300" fromJunction="J3" toJunction="J4" end="360" vehsPerHour="0.7377045470750737" departLane="free"/>
  <flow id="JF63413" begin="300" fromJunction="J3" toJunction="J5" end="360" vehsPerHour="120.92995482689082" departLane="free"/>
  <flow id="JF63414" begin="300" fromJunction="J3" toJunction="J6" end="360" vehsPerHour="48.81575255524393" departLane="free"/>
  <flow id="JF63415" begin="300" fromJunction="J3" toJunction="J7" end="360" vehsPerHour="98.76721525433238" departLane="free"/>
  <flow id="JF63416" begin="300" fromJunction="J0" toJunction="J4" end="360" vehsPerHour="22.39213367249966" departLane="free"/>
  <flow id="JF63417" begin="300" fromJunction="J0" toJunction="J5" end="360" vehsPerHour="46.77012300208322" departLane="free"/>
  <flow id="JF63418" begin="300" fromJunction="J0" toJunction="J6" end="360" vehsPerHour="15.095256470378793" departLane="free"/>
  <flow id="JF63419" begin="300" fromJunction="J0" toJunction="J7" end="360" vehsPerHour="124.97372684550035" departLane="free"/>
  <flow id="JF63420" begin="300" fromJunction="J4" toJunction="J5" end="360" vehsPerHour="55.65826419929132" departLane="free"/>
  <flow id="JF63421" begin="300" fromJunction="J4" toJunction="J6" end="360" vehsPerHour="12.807793608582317" departLane="free"/>
  <flow id="JF63422" begin="300" fromJunction="J4" toJunction="J7" end="360" vehsPerHour="53.83423251136481" departLane="free"/>
  <flow id="JF63423" begin="300" fromJunction="J5" toJunction="J4" end="360" vehsPerHour="33.155774857800544" departLane="free"/>
  <flow id="JF63424" begin="300" fromJunction="J5" toJunction="J6" end="360" vehsPerHour="10.568804226390771" departLane="free"/>
  <flow id="JF63425" begin="300" fromJunction="J5" toJunction="J7" end="360" vehsPerHour="63.67469102996775" departLane="free"/>
  <flow id="JF63426" begin="300" fromJunction="J6" toJunction="J4" end="360" vehsPerHour="38.46517299716047" departLane="free"/>
  <flow id="JF63427" begin="300" fromJunction="J6" toJunction="J5" end="360" vehsPerHour="67.71418333371196" departLane="free"/>
  <flow id="JF63428" begin="300" fromJunction="J6" toJunction="J7" end="360" vehsPerHour="61.67679180627375" departLane="free"/>
  <flow id="JF63429" begin="300" fromJunction="J7" toJunction="J4" end="360" vehsPerHour="60.362447627073905" departLane="free"/>
  <flow id="JF63430" begin="300" fromJunction="J7" toJunction="J5" end="360" vehsPerHour="33.01169793927289" departLane="free"/>
  <flow id="JF63431" begin="300" fromJunction="J7" toJunction="J6" end="360" vehsPerHour="14.58754311782971" departLane="free"/>
  <flow id="JF63432" begin="300" fromJunction="J4" toJunction="J3" end="360" vehsPerHour="65.0751257241721" departLane="free"/>
  <flow id="JF63433" begin="300" fromJunction="J4" toJunction="J0" end="360" vehsPerHour="50.48093227317279" departLane="free"/>
  <flow id="JF63434" begin="300" fromJunction="J5" toJunction="J3" end="360" vehsPerHour="4.152889275634267" departLane="free"/>
  <flow id="JF63435" begin="300" fromJunction="J5" toJunction="J0" end="360" vehsPerHour="9.820744343440904" departLane="free"/>
  <flow id="JF63436" begin="300" fromJunction="J6" toJunction="J3" end="360" vehsPerHour="23.179953316389934" departLane="free"/>
  <flow id="JF63437" begin="300" fromJunction="J6" toJunction="J0" end="360" vehsPerHour="64.08084442067592" departLane="free"/>
  <flow id="JF63438" begin="300" fromJunction="J7" toJunction="J3" end="360" vehsPerHour="27.339191415833856" departLane="free"/>
  <flow id="JF63439" begin="300" fromJunction="J7" toJunction="J0" end="360" vehsPerHour="58.173996459755756" departLane="free"/>
  <flow id="JF63440" begin="360" fromJunction="J3" toJunction="J0" end="420" vehsPerHour="112.64114605664305" departLane="free"/>
  <flow id="JF63441" begin="360" fromJunction="J0" toJunction="J3" end="420" vehsPerHour="39.84116400027272" departLane="free"/>
  <flow id="JF63442" begin="360" fromJunction="J3" toJunction="J4" end="420" vehsPerHour="35.670108711342266" departLane="free"/>
  <flow id="JF63443" begin="360" fromJunction="J3" toJunction="J5" end="420" vehsPerHour="14.581783726111277" departLane="free"/>
  <flow id="JF63444" begin="360" fromJunction="J3" toJunction="J6" end="420" vehsPerHour="66.84950730060098" departLane="free"/>
  <flow id="JF63445" begin="360" fromJunction="J3" toJunction="J7" end="420" vehsPerHour="55.01992971501806" departLane="free"/>
  <flow id="JF63446" begin="360" fromJunction="J0" toJunction="J4" end="420" vehsPerHour="45.98624163635918" departLane="free"/>
  <flow id="JF63447" begin="360" fromJunction="J0" toJunction="J5" end="420" vehsPerHour="119.87683112481777" departLane="free"/>
  <flow id="JF63448" begin="360" fromJunction="J0" toJunction="J6" end="420" vehsPerHour="71.89710033284415" departLane="free"/>
  <flow id="JF63449" begin="360" fromJunction="J0" toJunction="J7" end="420" vehsPerHour="62.24107869740813" departLane="free"/>
  <flow id="JF63450" begin="360" fromJunction="J4" toJunction="J5" end="420" vehsPerHour="51.689394254167" departLane="free"/>
  <flow id="JF63451" begin="360" fromJunction="J4" toJunction="J6" end="420" vehsPerHour="34.57301500114377" departLane="free"/>
  <flow id="JF63452" begin="360" fromJunction="J4" toJunction="J7" end="420" vehsPerHour="5.707262062701983" departLane="free"/>
  <flow id="JF63453" begin="360" fromJunction="J5" toJunction="J4" end="420" vehsPerHour="17.118195794621816" departLane="free"/>
  <flow id="JF63454" begin="360" fromJunction="J5" toJunction="J6" end="420" vehsPerHour="52.30305705922969" departLane="free"/>
  <flow id="JF63455" begin="360" fromJunction="J5" toJunction="J7" end="420" vehsPerHour="32.21215553881798" departLane="free"/>
  <flow id="JF63456" begin="360" fromJunction="J6" toJunction="J4" end="420" vehsPerHour="51.83431766715379" departLane="free"/>
  <flow id="JF63457" begin="360" fromJunction="J6" toJunction="J5" end="420" vehsPerHour="46.2859302388525" departLane="free"/>
  <flow id="JF63458" begin="360" fromJunction="J6" toJunction="J7" end="420" vehsPerHour="6.932213507135443" departLane="free"/>
  <flow id="JF63459" begin="360" fromJunction="J7" toJunction="J4" end="420" vehsPerHour="16.263221477635877" departLane="free"/>
  <flow id="JF63460" begin="360" fromJunction="J7" toJunction="J5" end="420" vehsPerHour="66.8404522562073" departLane="free"/>
  <flow id="JF63461" begin="360" fromJunction="J7" toJunction="J6" end="420" vehsPerHour="67.22883746392598" departLane="free"/>
  <flow id="JF63462" begin="360" fromJunction="J4" toJunction="J3" end="420" vehsPerHour="6.929931718971355" departLane="free"/>
  <flow id="JF63463" begin="360" fromJunction="J4" toJunction="J0" end="420" vehsPerHour="25.383191073154943" departLane="free"/>
  <flow id="JF63464" begin="360" fromJunction="J5" toJunction="J3" end="420" vehsPerHour="14.981836273905314" departLane="free"/>
  <flow id="JF63465" begin="360" fromJunction="J5" toJunction="J0" end="420" vehsPerHour="28.535459748791567" departLane="free"/>
  <flow id="JF63466" begin="360" fromJunction="J6" toJunction="J3" end="420" vehsPerHour="11.154899049604456" departLane="free"/>
  <flow id="JF63467" begin="360" fromJunction="J6" toJunction="J0" end="420" vehsPerHour="57.47410931065637" departLane="free"/>
  <flow id="JF63468" begin="360" fromJunction="J7" toJunction="J3" end="420" vehsPerHour="16.673526928503396" departLane="free"/>
  <flow id="JF63469" begin="360" fromJunction="J7" toJunction="J0" end="420" vehsPerHour="11.819399678351484" departLane="free"/>
  <flow id="JF63470" begin="420" fromJunction="J3" toJunction="J0" end="480" vehsPerHour="6.645383590530971" departLane="free"/>
  <flow id="JF63471" begin="420" fromJunction="J0" toJunction="J3" end="480" vehsPerHour="24.694882075804347" departLane="free"/>
  <flow id="JF63472" begin="420" fromJunction="J3" toJunction="J4" end="480" vehsPerHour="13.355888652262887" departLane="free"/>
  <flow id="JF63473" begin="420" fromJunction="J3" toJunction="J5" end="480" vehsPerHour="43.14838641592251" departLane="free"/>
  <flow id="JF63474" begin="420" fromJunction="J3" toJunction="J6" end="480" vehsPerHour="54.247658842866976" departLane="free"/>
  <flow id="JF63475" begin="420" fromJunction="J3" toJunction="J7" end="480" vehsPerHour="18.920152933752856" departLane="free"/>
  <flow id="JF63476" begin="420" fromJunction="J0" toJunction="J4" end="480" vehsPerHour="44.53628848441876" departLane="free"/>
  <flow id="JF63477" begin="420" fromJunction="J0" toJunction="J5" end="480" vehsPerHour="126.55279261738832" departLane="free"/>
  <flow id="JF63478" begin="420" fromJunction="J0" toJunction="J6" end="480" vehsPerHour="106.9312163991777" departLane="free"/>
  <flow id="JF63479" begin="420" fromJunction="J0" toJunction="J7" end="480" vehsPerHour="79.19147973312108" departLane="free"/>
  <flow id="JF63480" begin="480" fromJunction="J3" toJunction="J0" end="540" vehsPerHour="41.530739615410674" departLane="free"/>
  <flow id="JF63481" begin="480" fromJunction="J0" toJunction="J3" end="540" vehsPerHour="91.87327737187907" departLane="free"/>
  <flow id="JF63482" begin="480" fromJunction="J3" toJunction="J4" end="540" vehsPerHour="113.30954507284126" departLane="free"/>
  <flow id="JF63483" begin="480" fromJunction="J3" toJunction="J5" end="540" vehsPerHour="113.10812888111894" departLane="free"/>
  <flow id="JF63484" begin="480" fromJunction="J3" toJunction="J6" end="540" vehsPerHour="122.26402397161847" departLane="free"/>
  <flow id="JF63485" begin="480" fromJunction="J3" toJunction="J7" end="540" vehsPerHour="11.54760783818183" departLane="free"/>
  <flow id="JF63486" begin="480" fromJunction="J0" toJunction="J4" end="540" vehsPerHour="35.923226168556425" departLane="free"/>
  <flow id="JF63487" begin="480" fromJunction="J0" toJunction="J5" end="540" vehsPerHour="62.73181810555599" departLane="free"/>
  <flow id="JF63488" begin="480" fromJunction="J0" toJunction="J6" end="540" vehsPerHour="86.34544456382753" departLane="free"/>
  <flow id="JF63489" begin="480" fromJunction="J0" toJunction="J7" end="540" vehsPerHour="75.41453101190558" departLane="free"/>
  <flow id="JF63490" begin="540" fromJunction="J3" toJunction="J0" end="600" vehsPerHour="25.05505132608936" departLane="free"/>
  <flow id="JF63491" begin="540" fromJunction="J0" toJunction="J3" end="600" vehsPerHour="75.74888888744728" departLane="free"/>
  <flow id="JF63492" begin="540" fromJunction="J3" toJunction="J4" end="600" vehsPerHour="96.86753147024568" departLane="free"/>
  <flow id="JF63493" begin="540" fromJunction="J3" toJunction="J5" end="600" vehsPerHour="111.2621456019785" departLane="free"/>
  <flow id="JF63494" begin="540" fromJunction="J3" toJunction="J6" end="600" vehsPerHour="51.91064129169875" departLane="free"/>
  <flow id="JF63495" begin="540" fromJunction="J3" toJunction="J7" end="600" vehsPerHour="64.1476656098121" departLane="free"/>
  <flow id="JF63496" begin="540" fromJunction="J0" toJunction="J4" end="600" vehsPerHour="2.204945346549136" departLane="free"/>
  <flow id="JF63497" begin="540" fromJunction="J0" toJunction="J5" end="600" vehsPerHour="23.777473186152022" departLane="free"/>
  <flow id="JF63498" begin="540" fromJunction="J0" toJunction="J6" end="600" vehsPerHour="95.43458901397489" departLane="free"/>
  <flow id="JF63499" begin="540" fromJunction="J0" toJunction="J7" end="600" vehsPerHour="55.25637091944198" departLane="free"/>
  <flow id="JF63500" begin="540" fromJunction="J4" toJunction="J5" end="600" vehsPerHour="42.75127853031792" departLane="free"/>
  <flow id="JF63501" begin="540" fromJunction="J4" toJunction="J6" end="600" vehsPerHour="59.88366143548206" departLane="free"/>
  <flow id="JF63502" begin="540" fromJunction="J4" toJunction="J7" end="600" vehsPerHour="42.938219105584125" departLane="free"/>
  <flow id="JF63503" begin="540" fromJunction="J5" toJunction="J4" end="600" vehsPerHour="52.14465828594913" departLane="free"/>
  <flow id="JF63504" begin="540" fromJunction="J5" toJunction="J6" end="600" vehsPerHour="42.50809261477655" departLane="free"/>
  <flow id="JF63505" begin="540" fromJunction="J5" toJunction="J7" end="600" vehsPerHour="41.51183367281899" departLane="free"/>
  <flow id="JF63506" begin="540" fromJunction="J6" toJunction="J4" end="600" vehsPerHour="42.11979448385951" departLane="free"/>
  <flow id="JF63507" begin="540" fromJunction="J6" toJunction="J5" end="600" vehsPerHour="38.26764511753061" departLane="free"/>
  <flow id="JF63508" begin="540" fromJunction="J6" toJunction="J7" end="600" vehsPerHour="38.09119069862152" departLane="free"/>
  <flow id="JF63509" begin="540" fromJunction="J7" toJunction="J4" end="600" vehsPerHour="8.342752464533826" departLane="free"/>
  <flow id="JF63510" begin="540" fromJunction="J7" toJunction="J5" end="600" vehsPerHour="64.05043212889498" departLane="free"/>