<?xml version="1.0" encoding="UTF-8"?>
<routes xmlns:xsi="http://www.w3.org/2001/XMLSchema-instance" xsi:noNamespaceSchemaLocation="http://sumo.dlr.de/xsd/routes_file.xsd">
  <flow id="JF67320" begin="0" fromJunction="J3" toJunction="J0" end="60" vehsPerHour="108.74048544126362" departLane="free"/>
  <flow id="JF67321" begin="0" fromJunction="J0" toJunction="J3" end="60" vehsPerHour="100.29794654264852" departLane="free"/>
  <flow id="JF67322" begin="0" fromJunction="J3" toJunction="J4" end="60" vehsPerHour="16.94238140012288" departLane="free"/>
  <flow id="JF67323" begin="0" fromJunction="J3" toJunction="J5" end="60" vehsPerHour="112.63111307079517" departLane="free"/>
  <flow id="JF67324" begin="0" fromJunction="J3" toJunction="J6" end="60" vehsPerHour="125.62060007082079" departLane="free"/>
  <flow id="JF67325" begin="0" fromJunction="J3" toJunction="J7" end="60" vehsPerHour="49.75675303978951" departLane="free"/>
  <flow id="JF67326" begin="0" fromJunction="J0" toJunction="J4" end="60" vehsPerHour="88.62120676701323" departLane="free"/>
  <flow id="JF67327" begin="0" fromJunction="J0" toJunction="J5" end="60" vehsPerHour="102.77466081270842" departLane="free"/>
  <flow id="JF67328" begin="0" fromJunction="J0" toJunction="J6" end="60" vehsPerHour="35.548943337526985" departLane="free"/>
  <flow id="JF67329" begin="0" fromJunction="J0" toJunction="J7" end="60" vehsPerHour="0.20645543855548915" departLane="free"/>
  <flow id="JF67330" begin="0" fromJunction="J4" toJunction="J5" end="60" vehsPerHour="48.47463994056917" departLane="free"/>
  <flow id="JF67331" begin="0" fromJunction="J4" toJunction="J6" end="60" vehsPerHour="48.48170437802622" departLane="free"/>
  <flow id="JF67332" begin="0" fromJunction="J4" toJunction="J7" end="60" vehsPerHour="42.69784448663616" departLane="free"/>
  <flow id="JF67333" begin="0" fromJunction="J5" toJunction="J4" end="60" vehsPerHour="57.11781006755253" departLane="free"/>
  <flow id="JF67334" begin="0" fromJunction="J5" toJunction="J6" end="60" vehsPerHour="37.62372242122875" departLane="free"/>
  <flow id="JF67335" begin="0" fromJunction="J5" toJunction="J7" end="60" vehsPerHour="24.612619830145682" departLane="free"/>
  <flow id="JF67336" begin="0" fromJunction="J6" toJunction="J4" end="60" vehsPerHour="59.046320528432815" departLane="free"/>
  <flow id="JF67337" begin="0" fromJunction="J6" toJunction="J5" end="60" vehsPerHour="64.33435929299229" departLane="free"/>
  <flow id="JF67338" begin="0" fromJunction="J6" toJunction="J7" end="60" vehsPerHour="58.08995010389133" departLane="free"/>
  <flow id="JF67339" begin="0" fromJunction="J7" toJunction="J4" end="60" vehsPerHour="1.525737183162167" departLane="free"/>
  <flow id="JF67340" begin="0" fromJunction="J7" toJunction="J5" end="60" vehsPerHour="13.067115715394387" departLane="free"/>
  <flow id="JF67341" begin="0" fromJunction="J7" toJunction="J6" end="60" vehsPerHour="54.52145217649026" departLane="free"/>
  <flow id="JF67342" begin="0" fromJunction="J4" toJunction="J3" end="60" vehsPerHour="29.462987556980252" departLane="free"/>
  <flow id="JF67343" begin="0" fromJunction="J4" toJunction="J0" end="60" vehsPerHour="54.28740654645335" departLane="free"/>
  <flow id="JF67344" begin="0" fromJunction="J5" toJunction="J3" end="60" vehsPerHour="67.15878155784793" departLane="free"/>
  <flow id="JF67345" begin="0" fromJunction="J5" toJunction="J0" end="60" vehsPerHour="18.819287477994216" departLane="free"/>
  <flow id="JF67346" begin="0" fromJunction="J6" toJunction="J3" end="60" vehsPerHour="12.49142015468471" departLane="free"/>
  <flow id="JF67347" begin="0" fromJunction="J6" toJunction="J0" end="60" vehsPerHour="32.27924162498206" departLane="free"/>
  <flow id="JF67348" begin="0" fromJunction="J7" toJunction="J3" end="60" vehsPerHour="31.947495357209945" departLane="free"/>
  <flow id="JF67349" begin="0" fromJunction="J7" toJunction="J0" end="60" vehsPerHour="6.541807253150837" departLane="free"/>
  <flow id="JF67350" begin="60" fromJunction="J3" toJunction="J0" end="120" vehsPerHour="23.9542469059484" departLane="free"/>
  <flow id="JF67351" begin="60" fromJunction="J0" toJunction="J3" end="120" vehsPerHour="10.850943001034299" departLane="free"/>
  <flow id="JF67352" begin="60" fromJunction="J3" toJunction="J4" end="120" vehsPerHour="58.55874727090263" departLane="free"/>
  <flow id="JF67353" begin="60" fromJunction="J3" toJunction="J5" end="120" vehsPerHour="47.47115812932584" departLane="free"/>
  <flow id="JF67354" begin="60" fromJunction="J3" toJunction="J6" end="120" vehsPerHour="22.456851776834455" departLane="free"/>
  <flow id="JF67355" begin="60" fromJunction="J3" toJunction="J7" end="120" vehsPerHour="65.71545610079218" departLane="free"/>
  <flow id="JF67356" begin="60" fromJunction="J0" toJunction="J4" end="120" vehsPerHour="101.06466440754637" departLane="free"/>
  <flow id="JF67357" begin="60" fromJunction="J0" toJunction="J5" end="120" vehsPerHour="81.92121040648814" departLane="free"/>
  <flow id="JF67358" begin="60" fromJunction="J0" toJunction="J6" end="120" vehsPerHour="17.568153309365954" departLane="free"/>
  <flow id="JF67359" begin="60" fromJunction="J0" toJunction="J7" end="120" vehsPerHour="14.085877777185486" departLane="free"/>
  <flow id="JF67360" begin="120" fromJunction="J3" toJunction="J0" end="180" vehsPerHour="94.4097222968183" departLane="free"/>
  <flow id="JF67361" begin="120" fromJunction="J0" toJunction="J3" end="180" vehsPerHour="8.219108316670164" departLane="free"/>
  <flow id="JF67362" begin="120" fromJunction="J3" toJunction="J4" end="180" vehsPerHour="6.817908901927139" departLane="free"/>
  <flow id="JF67363" begin="120" fromJunction="J3" toJunction="J5" end="180" vehsPerHour="66.16611941108624" departLane="free"/>
  <flow id="JF67364" begin="120" fromJunction="J3" toJunction="J6" end="180" vehsPerHour="44.45544620763735" departLane="free"/>
  <flow id="JF67365" begin="120" fromJunction="J3" toJunction="J7" end="180" vehsPerHour="136.48149383561972" departLane="free"/>
  <flow id="JF67366" begin="120" fromJunction="J0" toJunction="J4" end="180" vehsPerHour="116.50281218474798" departLane="free"/>
  <flow id="JF67367" begin="120" fromJunction="J0" toJunction="J5" end="180" vehsPerHour="71.95064128106789" departLane="free"/>
  <flow id="JF67368" begin="120" fromJunction="J0" toJunction="J6" end="180" vehsPerHour="73.46515004053316" departLane="free"/>
  <flow id="JF67369" begin="120" fromJunction="J0" toJunction="J7" end="180" vehsPerHour="48.97188604334604" departLane="free"/>
  <flow id="JF67370" begin="120" fromJunction="J4" toJunction="J5" end="180" vehsPerHour="46.639848162337614" departLane="free"/>
  <flow id="JF67371" begin="120" fromJunction="J4" toJunction="J6" end="180" vehsPerHour="44.88191060998851" departLane="free"/>
  <flow id="JF67372" begin="120" fromJunction="J4" toJunction="J7" end="180" vehsPerHour="43.108259259935366" departLane="free"/>
  <flow id="JF67373" begin="120" fromJunction="J5" toJunction="J4" end="180" vehsPerHour="65.70424844294976" departLane="free"/>
  <flow id="JF67374" begin="120" fromJunction="J5" toJunction="J6" end="180" vehsPerHour="23.036420805756315" departLane="free"/>
  <flow id="JF67375" begin="120" fromJunction="J5" toJunction="J7" end="180" vehsPerHour="44.54534209588868" departLane="free"/>
  <flow id="JF67376" begin="120" fromJunction="J6" toJunction="J4" end="180" vehsPerHour="42.311764969057926" departLane="free"/>
  <flow id="JF67377" begin="120" fromJunction="J6" toJunction="J5" end="180" vehsPerHour="36.09829876476287" departLane="free"/>
  <flow id="JF67378" begin="120" fromJunction="J6" toJunction="J7" end="180" vehsPerHour="53.79065241516214" departLane="free"/>
  <flow id="JF67379" begin="120" fromJunction="J7" toJunction="J4" end="180" vehsPerHour="52.16584822378456" departLane="free"/>
  <flow id="JF67380" begin="120" fromJunction="J7" toJunction="J5" end="180" vehsPerHour="38.99454737926067" departLane="free"/>
  <flow id="JF67381" begin="120" fromJunction="J7" toJunction="J6" end="180" vehsPerHour="23.973985871449386" departLane="free"/>
  <flow id="JF67382" begin="120" fromJunction="J4" toJunction="J3" end="180" vehsPerHour="10.441766230269033" departLane="free"/>
  <flow id="JF67383" begin="120" fromJunction="J4" toJunction="J0" end="180" vehsPerHour="11.72415491397778" departLane="free"/>
  <flow id="JF67384" begin="120" fromJunction="J5" toJunction="J3" end="180" vehsPerHour="44.185907168359485" departLane="free"/>
  <flow id="JF67385" begin="120" fromJunction="J5" toJunction="J0" end="180" vehsPerHour="31.44976073331847" departLane="free"/>
  <flow id="JF67386" begin="120" fromJunction="J6" toJunction="J3" end="180" vehsPerHour="46.493908314220576" departLane="free"/>
  <flow id="JF67387" begin="120" fromJunction="J6" toJunction="J0" end="180" vehsPerHour="24.351532109790785" departLane="free"/>
  <flow id="JF67388" begin="120" fromJunction="J7" toJunction="J3" end="180" vehsPerHour="28.627766650841867" departLane="free"/>
  <flow id="JF67389" begin="120" fromJunction="J7" toJunction="J0" end="180" vehsPerHour="28.017993878437593" departLane="free"/>
  <flow id="JF67390" begin="180" fromJunction="J3" toJunction="J0" end="240" vehsPerHour="32.07242096142736" departLane="free"/>
  <flow id="JF67391" begin="180" fromJunction="J0" toJunction="J3" end="240" vehsPerHour="90.80567252547924" departLane="free"/>
  <flow id="JF67392" begin="180" fromJunction="J3" toJunction="J4" end="240" vehsPerHour="58.894048450510404" departLane="free"/>
  <flow id="JF67393" begin="180" fromJunction="J3" toJunction="J5" end="240" vehsPerHour="21.238129637959045" departLane="free"/>
  <flow id="JF67394" begin="180" fromJunction="J3" toJunction="J6" end="240" vehsPerHour="94.14723815142658" departLane="free"/>
  <flow id="JF67395" begin="180" fromJunction="J3" toJunction="J7" end="240" vehsPerHour="72.67797373844628" departLane="free"/>
  <flow id="JF67396" begin="180" fromJunction="J0" toJunction="J4" end="240" vehsPerHour="1.517393829831317" departLane="free"/>
  <flow id="JF67397" begin="180" fromJunction="J0" toJunction="J5" end="240" vehsPerHour="78.57625924301466" departLane="free"/>
  <flow id="JF67398" begin="180" fromJunction="J0" toJunction="J6" end="240" vehsPerHour="7.265052720475115" departLane="free"/>
  <flow id="JF67399" begin="180" fromJunction="J0" toJunction="J7" end="240" vehsPerHour="1.8486812386652962" departLane="free"/>
  <flow id="JF67400" begin="180" fromJunction="J4" toJunction="J5" end="240" vehsPerHour="50.21197079592723" departLane="free"/>
  <flow id="JF67401" begin="180" fromJunction="J4" toJunction="J6" end="240" vehsPerHour="32.249359415474544" departLane="free"/>
  <flow id="JF67402" begin="180" fromJunction="J4" toJunction="J7" end="240" vehsPerHour="22.460348407626554" departLane="free"/>
  <flow id="JF67403" begin="180" fromJunction="J5" toJunction="J4" end="240" vehsPerHour="59.82220572342378" departLane="free"/>
  <flow id="JF67404" begin="180" fromJunction="J5" toJunction="J6" end="240" vehsPerHour="64.87837209840866" departLane="free"/>
  <flow id="JF67405" begin="180" fromJunction="J5" toJunction="J7" end="240" vehsPerHour="46.82522678924777" departLane="free"/>
  <flow id="JF67406" begin="180" fromJunction="J6" toJunction="J4" end="240" vehsPerHour="18.96409236606015" departLane="free"/>
  <flow id="JF67407" begin="180" fromJunction="J6" toJunction="J5" end="240" vehsPerHour="52.80968779964523" departLane="free"/>
  <flow id="JF67408" begin="180" fromJunction="J6" toJunction="J7" end="240" vehsPerHour="3.0893058417624624" departLane="free"/>
  <flow id="JF67409" begin="180" fromJunction="J7" toJunction="J4" end="240" vehsPerHour="18.4783331338624" departLane="free"/>
  <flow id="JF67410" begin="180" fromJunction="J7" toJunction="J5" end="240" vehsPerHour="39.619120230565386" departLane="free"/>
  <flow id="JF67411" begin="180" fromJunction="J7" toJunction="J6" end="240" vehsPerHour="25.62980309495698" departLane="free"/>
  <flow id="JF67412" begin="180" fromJunction="J4" toJunction="J3" end="240" vehsPerHour="65.90576982718079" departLane="free"/>
  <flow id="JF67413" begin="180" fromJunction="J4" toJunction="J0" end="240" vehsPerHour="9.893404022461068" departLane="free"/>
  <flow id="JF67414" begin="180" fromJunction="J5" toJunction="J3" end="240" vehsPerHour="18.573429811410442" departLane="free"/>
  <flow id="JF67415" begin="180" fromJunction="J5" toJunction="J0" end="240" vehsPerHour="29.440757100100804" departLane="free"/>
  <flow id="JF67416" begin="180" fromJunction="J6" toJunction="J3" end="240" vehsPerHour="51.261636703262816" departLane="free"/>
  <flow id="JF67417" begin="180" fromJunction="J6" toJunction="J0" end="240" vehsPerHour="22.370466189037252" departLane="free"/>
  <flow id="JF67418" begin="180" fromJunction="J7" toJunction="J3" end="240" vehsPerHour="20.87674606815178" departLane="free"/>
  <flow id="JF67419" begin="180" fromJunction="J7" toJunction="J0" end="240" vehsPerHour="17.641988112893248" departLane="free"/>
  <flow id="JF67420" begin="240" fromJunction="J3" toJunction="J0" end="300" vehsPerHour="25.907448457423524" departLane="free"/>
  <flow id="JF67421" begin="240" fromJunction="J0" toJunction="J3" end="300" vehsPerHour="128.1430024523762" departLane="free"/>
  <flow id="JF67422" begin="240" fromJunction="J3" toJunction="J4" end="300" vehsPerHour="112.61371148747891" departLane="free"/>
  <flow id="JF67423" begin="240" fromJunction="J3" toJunction="J5" end="300" vehsPerHour="92.17270819205348" departLane="free"/>
  <flow id="JF67424" begin="240" fromJunction="J3" toJunction="J6" end="300" vehsPerHour="79.48421043182293" departLane="free"/>
  <flow id="JF67425" begin="240" fromJunction="J3" toJunction="J7" end="300" vehsPerHour="38.30888405037714" departLane="free"/>
  <flow id="JF67426" begin="240" fromJunction="J0" toJunction="J4" end="300" vehsPerHour="89.24193319698503" departLane="free"/>
  <flow id="JF67427" begin="240" fromJunction="J0" toJunction="J5" end="300" vehsPerHour="135.08319311354512" departLane="free"/>
  <flow id="JF67428" begin="240" fromJunction="J0" toJunction="J6" end="300" vehsPerHour="45.21558014231023" departLane="free"/>
  <flow id="JF67429" begin="240" fromJunction="J0" toJunction="J7" end="300" vehsPerHour="81.73382971541999" departLane="free"/>
  <flow id="JF67430" begin="240" fromJunction="J4" toJunction="J5" end="300" vehsPerHour="8.890558191484894" departLane="free"/>
  <flow id="JF67431" begin="240" fromJunction="J4" toJunction="J6" end="300" vehsPerHour="27.543255981336223" departLane="free"/>
  <flow id="JF67432" begin="240" fromJunction="J4" toJunction="J7" end="300" vehsPerHour="12.529306604856142" departLane="free"/>
  <flow id="JF67433" begin="240" fromJunction="J5" toJunction="J4" end="300" vehsPerHour="41.96744712825458" departLane="free"/>
  <flow id="JF67434" begin="240" fromJunction="J5" toJunction="J6" end="300" vehsPerHour="49.683648029438864" departLane="free"/>
  <flow id="JF67435" begin="240" fromJunction="J5" toJunction="J7" end="300" vehsPerHour="61.509336314280745" departLane="free"/>
  <flow id="JF67436" begin="240" fromJunction="J6" toJunction="J4" end="300" vehsPerHour="55.550278852888276" departLane="free"/>
  <flow id="JF67437" begin="240" fromJunction="J6" toJunction="J5" end="300" vehsPerHour="14.254989769900273" departLane="free"/>
  <flow id="JF67438" begin="240" fromJunction="J6" toJunction="J7" end="300" vehsPerHour="17.66154436960559" departLane="free"/>
  <flow id="JF67439" begin="240" fromJunction="J7" toJunction="J4" end="300" vehsPerHour="60.44196056091257" departLane="free"/>
  <flow id="JF67440" begin="240" fromJunction="J7" toJunction="J5" end="300" vehsPerHour="51.16999427676145" departLane="free"/>
  <flow id="JF67441" begin="240" fromJunction="J7" toJunction="J6" end="300" vehsPerHour="36.89203664414003" departLane="free"/>
  <flow id="JF67442" begin="240" fromJunction="J4" toJunction="J3" end="300" vehsPerHour="41.76512552425396" departLane="free"/>
  <flow id="JF67443" begin="240" fromJunction="J4" toJunction="J0" end="300" vehsPerHour="44.8112712819206" departLane="free"/>
  <flow id="JF67444" begin="240" fromJunction="J5" toJunction="J3" end="300" vehsPerHour="40.10578839517955" departLane="free"/>
  <flow id="JF67445" begin="240" fromJunction="J5" toJunction="J0" end="300" vehsPerHour="3.925335728739097" departLane="free"/>
  <flow id="JF67446" begin="240" fromJunction="J6" toJunction="J3" end="300" vehsPerHour="65.63741107205661" departLane="free"/>
  <flow id="JF67447" begin="240" fromJunction="J6" toJunction="J0" end="300" vehsPerHour="22.59803190247463" departLane="free"/>
  <flow id="JF67448" begin="240" fromJunction="J7" toJunction="J3" end="300" vehsPerHour="5.050150196560323" departLane="free"/>
  <flow id="JF67449" begin="240" fromJunction="J7" toJunction="J0" end="300" vehsPerHour="32.777269700911134" departLane="free"/>
  <flow id="JF67450" begin="300" fromJunction="J3" toJunction="J0" end="360" vehsPerHour="118.84026582598209" departLane="free"/>
  <flow id="JF67451" begin="300" fromJunction="J0" toJunction="J3" end="360" vehsPerHour="36.14349640205549" departLane="free"/>
  <flow id="JF67452" begin="300" fromJunction="J3" toJunction="J4" end="360" vehsPerHour="115.48388962855881" departLane="free"/>
  <flow id="JF67453" begin="300" fromJunction="J3" toJunction="J5" end="360" vehsPerHour="55.69240897630079" departLane="free"/>
  <flow id="JF67454" begin="300" fromJunction="J3" toJunction="J6" end="360" vehsPerHour="71.1406273518866" departLane="free"/>
  <flow id="JF67455" begin="300" fromJunction="J3" toJunction="J7" end="360" vehsPerHour="83.10186889195461" departLane="free"/>
  <flow id="JF67456" begin="300" fromJunction="J0" toJunction="J4" end="360" vehsPerHour="34.96854230605638" departLane="free"/>
  <flow id="JF67457" begin="300" fromJunction="J0" toJunction="J5" end="360" vehsPerHour="13.208215384940715" departLane="free"/>
  <flow id="JF67458" begin="300" fromJunction="J0" toJunction="J6" end="360" vehsPerHour="113.34821966872583" departLane="free"/>
  <flow id="JF67459" begin="300" fromJunction="J0" toJunction="J7" end="360" vehsPerHour="26.02414130376341" departLane="free"/>
  <flow id="JF67460" begin="300" fromJunction="J4" toJunction="J5" end="360" vehsPerHour="57.56406215802286" departLane="free"/>
  <flow id="JF67461" begin="300" fromJunction="J4" toJunction="J6" end="360" vehsPerHour="21.974639665042506" departLane="free"/>
  <flow id="JF67462" begin="300" fromJunction="J4" toJunction="J7" end="360" vehsPerHour="21.427195803304937" departLane="free"/>
  <flow id="JF67463" begin="300" fromJunction="J5" toJunction="J4" end="360" vehsPerHour="28.18293773499677" departLane="free"/>
  <flow id="JF67464" begin="300" fromJunction="J5" toJunction="J6" end="360" vehsPerHour="54.26922461404164" departLane="free"/>
  <flow id="JF67465" begin="300" fromJunction="J5" toJunction="J7" end="360" vehsPerHour="63.01928519513274" departLane="free"/>
  <flow id="JF67466" begin="300" fromJunction="J6" toJunction="J4" end="360" vehsPerHour="59.39507246331499" departLane="free"/>
  <flow id="JF67467" begin="300" fromJunction="J6" toJunction="J5" end="360" vehsPerHour="63.11151720794947" departLane="free"/>
  <flow id="JF67468" begin="300" fromJunction="J6" toJunction="J7" end="360" vehsPerHour="52.73422999585347" departLane="free"/>
  <flow id="JF67469" begin="300" fromJunction="J7" toJunction="J4" end="360" vehsPerHour="35.15505259460126" departLane="free"/>
  <flow id="JF67470" begin="300" fromJunction="J7" toJunction="J5" end="360" vehsPerHour="44.665846203741395" departLane="free"/>
  <flow id="JF67471" begin="300" fromJunction="J7" toJunction="J6" end="360" vehsPerHour="32.76262727988198" departLane="free"/>
  <flow id="JF67472" begin="300" fromJunction="J4" toJunction="J3" end="360" vehsPerHour="62.19160062510664" departLane="free"/>
  <flow id="JF67473" begin="300" fromJunction="J4" toJunction="J0" end="360" vehsPerHour="25.224580760351177" departLane="free"/>
  <flow id="JF67474" begin="300" fromJunction="J5" toJunction="J3" end="360" vehsPerHour="3.501557663321293" departLane="free"/>
  <flow id="JF67475" begin="300" fromJunction="J5" toJunction="J0" end="360" vehsPerHour="34.50371210692465" departLane="free"/>
  <flow id="JF67476" begin="300" fromJunction="J6" toJunction="J3" end="360" vehsPerHour="68.58178803335417" departLane="free"/>
  <flow id="JF67477" begin="300" fromJunction="J6" toJunction="J0" end="360" vehsPerHour="29.568337666377918" departLane="free"/>
  <flow id="JF67478" begin="300" fromJunction="J7" toJunction="J3" end="360" vehsPerHour="23.510430971282226" departLane="free"/>
  <flow id="JF67479" begin="300" fromJunction="J7" toJunction="J0" end="360" vehsPerHour="45.248704424008686" departLane="free"/>
  <flow id="JF67480" begin="360" fromJunction="J3" toJunction="J0" end="420" vehsPerHour="76.0270492904624" departLane="free"/>
  <flow id="JF67481" begin="360" fromJunction="J0" toJunction="J3" end="420" vehsPerHour="0.0023845146597325953" departLane="free"/>
  <flow id="JF67482" begin="360" fromJunction="J3" toJunction="J4" end="420" vehsPerHour="54.56777137323559" departLane="free"/>
  <flow id="JF67483" begin="360" fromJunction="J3" toJunction="J5" end="420" vehsPerHour="12.320218720402375" departLane="free"/>
  <flow id="JF67484" begin="360" fromJunction="J3" toJunction="J6" end="420" vehsPerHour="116.14267693299551" departLane="free"/>
  <flow id="JF67485" begin="360" fromJunction="J3" toJunction="J7" end="420" vehsPerHour="33.25421938968951" departLane="free"/>
  <flow id="JF67486" begin="360" fromJunction="J0" toJunction="J4" end="420" vehsPerHour="16.250924698103226" departLane="free"/>
  <flow id="JF67487" begin="360" fromJunction="J0" toJunction="J5" end="420" vehsPerHour="117.16973995766774" departLane="free"/>
  <flow id="JF67488" begin="360" fromJunction="J0" toJunction="J6" end="420" vehsPerHour="116.18564581168617" departLane="free"/>
  <flow id="JF67489" begin="360" fromJunction="J0" toJunction="J7" end="420" vehsPerHour="50.11986254929139" departLane="free"/>
  <flow id="JF67490" begin="420" fromJunction="J3" toJunction="J0" end="480" vehsPerHour="57.84420303211829" departLane="free"/>
  <flow id="JF67491" begin="420" fromJunction="J0" toJunction="J3" end="480" vehsPerHour="107.18848915260416" departLane="free"/>
  <flow id="JF67492" begin="420" fromJunction="J3" toJunction="J4" end="480" vehsPerHour="12.008470736094516" departLane="free"/>
  <flow id="JF67493" begin="420" fromJunction="J3" toJunction="J5" end="480" vehsPerHour="127.40616735551248" departLane="free"/>
  <flow id="JF67494" begin="420" fromJunction="J3" toJunction="J6" end="480" vehsPerHour="135.08603387929034" departLane="free"/>
  <flow id="JF67495" begin="420" fromJunction="J3" toJunction="J7" end="480" vehsPerHour="129.0263297198777" departLane="free"/>
  <flow id="JF67496" begin="420" fromJunction="J0" toJunction="J4" end="480" vehsPerHour="29.18638974350391" departLane="free"/>
  <flow id="JF67497" begin="420" fromJunction="J0" toJunction="J5" end="480" vehsPerHour="1.2002228038255542" departLane="free"/>
  <flow id="JF67498" begin="420" fromJunction="J0" toJunction="J6" end="480" vehsPerHour="42.62942052696676" departLane="free"/>
  <flow id="JF67499" begin="420" fromJunction="J0" toJunction="J7" end="480" vehsPerHour="58.75201680438382" departLane="free"/>
  <flow id="JF67500" begin="420" fromJunction="J4" toJunction="J5" end="480" vehsPerHour="20.07412889721189" departLane="free"/>
  <flow id="JF67501" begin="420" fromJunction="J4" toJunction="J6" end="480" vehsPerHour="13.73191133376883" departLane="free"/>
  <flow id="JF67502" begin="420" fromJunction="J4" toJunction="J7" end="480" vehsPerHour="7.493116439697792" departLane="free"/>
  <flow id="JF67503" begin="420" fromJunction="J5" toJunction="J4" end="480" vehsPerHour="44.21859171770708" departLane="free"/>
  <flow id="JF67504" begin="420" fromJunction="J5" toJunction="J6" end="480" vehsPerHour="33.722501949582444" departLane="free"/>
  <flow id="JF67505" begin="420" fromJunction="J5" toJunction="J7" end="480" vehsPerHour="33.75414616548886" departLane="free"/>
  <flow id="JF67506" begin="420" fromJunction="J6" toJunction="J4" end="480" vehsPerHour="20.377336949351594" departLane="free"/>
  <flow id="JF67507" begin="420" fromJunction="J6" toJunction="J5" end="480" vehsPerHour="39.25372238196436" departLane="free"/>
  <flow id="JF67508" begin="420" fromJunction="J6" toJunction="J7" end="480" vehsPerHour="67.84798566019093" departLane="free"/>
  <flow id="JF67509" begin="420" fromJunction="J7" toJunction="J4" end="480" vehsPerHour="42.63516121291873" departLane="free"/>
  <flow id="JF67510" begin="420" fromJunction="J7" toJunction="J5" end="480" vehsPerHour="51.416818456629485" departLane="free"/>
  <flow id="JF67511" begin="420" fromJunction="J7" toJunction="J6" end="480" vehsPerHour="34.58510022644895" departLane="free"/>
  <flow id="JF67512" begin="420" fromJunction="J4" toJunction="J3" end="480" vehsPerHour="45.691262369060155" departLane="free"/>
  <flow id="JF67513" begin="420" fromJunction="J4" toJunction="J0" end="480" vehsPerHour="39.622051898378395" departLane="free"/>
  <flow id="JF67514" begin="420" fromJunction="J5" toJunction="J3" end="480" vehsPerHour="14.753902755878967" departLane="free"/>
  <flow id="JF67515" begin="420" fromJunction="J5" toJunction="J0" end="480" vehsPerHour="8.20447146728565" departLane="free"/>
  <flow id="JF67516" begin="420" fromJunction="J6" toJunction="J3" end="480" vehsPerHour="34.84783242688701" departLane="free"/>
  <flow id="JF67517" begin="420" fromJunction="J6" toJunction="J0" end="480" vehsPerHour="25.260828831649384" departLane="free"/>
  <flow id="JF67518" begin="420" fromJunction="J7" toJunction="J3" end="480" vehsPerHour="53.70361161547184" departLane="free"/>
  <flow id="JF67519" begin="420" fromJunction="J7" toJunction="J0" end="480" vehsPerHour="26.000835976947638" departLane="free"/>
  <flow id="JF67520" begin="480" fromJunction="J3" toJunction="J0" end="540" vehsPerHour="3.5580904916720066" departLane="free"/>
  <flow id="JF67521" begin="480" fromJunction="J0" toJunction="J3" end="540" vehsPerHour="136.50097437596213" departLane="free"/>
  <flow id="JF67522" begin="480" fromJunction="J3" toJunction="J4" end="540" vehsPerHour="37.45240223503449" departLane="free"/>
  <flow id="JF67523" begin="480" fromJunction="J3" toJunction="J5" end="540" vehsPerHour="85.84516833450314" departLane="free"/>
  <flow id="JF67524" begin="480" fromJunction="J3" toJunction="J6" end="540" vehsPerHour="93.0023598297227" departLane="free"/>
  <flow id="JF67525" begin="480" fromJunction="J3" toJunction="J7" end="540" vehsPerHour="40.14844271362148" departLane="free"/>
  <flow id="JF67526" begin="480" fromJunction="J0" toJunction="J4" end="540" vehsPerHour="81.50752940710903" departLane="free"/>
  <flow id="JF67527" begin="480" fromJunction="J0" toJunction="J5" end="540" vehsPerHour="94.86101182411481" departLane="free"/>
  <flow id="JF67528" begin="480" fromJunction="J0" toJunction="J6" end="540" vehsPerHour="85.7474891746653" departLane="free"/>
  <flow id="JF67529" begin="480" fromJunction="J0" toJunction="J7" end="540" vehsPerHour="126.80093938119896" departLane="free"/>
  <flow id="JF67530" begin="540" fromJunction="J3" toJunction="J0" end="600" vehsPerHour="46.57501759579702" departLane="free"/>
  <flow id="JF67531" begin="540" fromJunction="J0" toJunction="J3" end="600" vehsPerHour="89.60529612359278" departLane="free"/>
  <flow id="JF67532" begin="540" fromJunction="J3" toJunction="J4" end="600" vehsPerHour="93.80180126099414" departLane="free"/>
  <flow id="JF67533" begin="540" fromJunction="J3" toJunction="J5" end="600" vehsPerHour="54.981366717999386" departLane="free"/>
  <flow id="JF67534" begin="540" fromJunction="J3" toJunction="J6" end="600" vehsPerHour="65.74419118217165" departLane="free"/>
  <flow id="JF67535" begin="540" fromJunction="J3" toJunction="J7" end="600" vehsPerHour="110.661228345721" departLane="free"/>
  <flow id="JF67536" begin="540" fromJunction="J0" toJunction="J4" end="600" vehsPerHour="106.58643847450307" departLane="free"/>
  <flow id="JF67537" begin="540" fromJunction="J0" toJunction="J5" end="600" vehsPerHour="38.375241335944565" departLane="free"/>
  <flow id="JF67538" begin="540" fromJunction="J0" toJunction="J6" end="600" vehsPerHour="135.07346708328706" departLane="free"/>
  <flow id="JF67539" begin="540" fromJunction="J0" toJunction="J7" end="600" vehsPerHour="88.78050166921955" departLane="free"/>
  <flow id="JF67540" begin="540" fromJunction="J4" toJunction="J5" end="600" vehsPerHour="57.9374842684531" departLane="free"/>
  <flow id="JF67541" begin="540" fromJunction="J4" toJunction="J6" end="600" vehsPerHour="52.90339087361483" departLane="free"/>
  <flow id="JF67542" begin="540" fromJunction="J4" toJunction="J7" end="600" vehsPerHour="14.254552370754606" departLane="free"/>
  <flow id="JF67543" begin="540" fromJunction="J5" toJunction="J4" end="600" vehsPerHour="45.69999237175612" departLane="free"/>
  <flow id="JF67544" begin="540" fromJunction="J5" toJunction="J6" end="600" vehsPerHour="39.706167939801" departLane="free"/>
  <flow id="JF67545" begin="540" fromJunction="J5" toJunction="J7" end="600" vehsPerHour="9.737147226935448" departLane="free"/>
  <flow id="JF67546" begin="540" fromJunction="J6" toJunction="J4" end="600" vehsPerHour="33.16449832925573" departLane="free"/>
  <flow id="JF67547" begin="540" fromJunction="J6" toJunction="J5" end="600" vehsPerHour="32.67519603508178" departLane="free"/>
  <flow id="JF67548" begin="540" fromJunction="J6" toJunction="J7" end="600" vehsPerHour="2.486048098873766" departLane="free"/>
  <flow id="JF67549" begin="540" fromJunction="J7" toJunction="J4" end="600" vehsPerHour="56.820313022096606" departLane="free"/>
  <flow id="JF67550" begin="540" fromJunction="J7" toJunction="J5" end="600" vehsPerHour="19.05286828662481" departLane="free"/>