<?xml version="1.0" encoding="UTF-8"?>
<routes xmlns:xsi="http://www.w3.org/2001/XMLSchema-instance" xsi:noNamespaceSchemaLocation="http://sumo.dlr.de/xsd/routes_file.xsd">
  <flow id="JF71480" begin="0" fromJunction="J3" toJunction="J0" end="60" vehsPerHour="19.06366841517419" departLane="free"/>
  <flow id="JF71481" begin="0" fromJunction="J0" toJunction="J3" end="60" vehsPerHour="116.02253578028967" departLane="free"/>
  <flow id="JF71482" begin="0" fromJunction="J3" toJunction="J4" end="60" vehsPerHour="75.09265407466555" departLane="free"/>
  <flow id="JF71483" begin="0" fromJunction="J3" toJunction="J5" end="60" vehsPerHour="10.495609498051113" departLane="free"/>
  <flow id="JF71484" begin="0" fromJunction="J3" toJunction="J6" end="60" vehsPerHour="16.077265429142212" departLane="free"/>
  <flow id="JF71485" begin="0" fromJunction="J3" toJunction="J7" end="60" vehsPerHour="43.735157783465375" departLane="free"/>
  <flow id="JF71486" begin="0" fromJunction="J0" toJunction="J4" end="60" vehsPerHour="57.94663117835938" departLane="free"/>
  <flow id="JF71487" begin="0" fromJunction="J0" toJunction="J5" end="60" vehsPerHour="81.01161544723043" departLane="free"/>
  <flow id="JF71488" begin="0" fromJunction="J0" toJunction="J6" end="60" vehsPerHour="105.55291166202672" departLane="free"/>
  <flow id="JF71489" begin="0" fromJunction="J0" toJunction="J7" end="60" vehsPerHour="101.31899228079558" departLane="free"/>
  <flow id="JF71490" begin="0" fromJunction="J4" toJunction="J5" end="60" vehsPerHour="52.075230517145165" departLane="free"/>
  <flow id="JF71491" begin="0" fromJunction="J4" toJunction="J6" end="60" vehsPerHour="33.33885034816352" departLane="free"/>
  <flow id="JF71492" begin="0" fromJunction="J4" toJunction="J7" end="60" vehsPerHour="18.828911491316713" departLane="free"/>
  <flow id="JF71493" begin="0" fromJunction="J5" toJunction="J4" end="60" vehsPerHour="24.05110956808588" departLane="free"/>
  <flow id="JF71494" begin="0" fromJunction="J5" toJunction="J6" end="60" vehsPerHour="33.784857921787584" departLane="free"/>
  <flow id="JF71495" begin="0" fromJunction="J5" toJunction="J7" end="60" vehsPerHour="43.00566330298194" departLane="free"/>
  <flow id="JF71496" begin="0" fromJunction="J6" toJunction="J4" end="60" vehsPerHour="37.31228808899308" departLane="free"/>
  <flow id="JF71497" begin="0" fromJunction="J6" toJunction="J5" end="60" vehsPerHour="58.32956368042368" departLane="free"/>
  <flow id="JF71498" begin="0" fromJunction="J6" toJunction="J7" end="60" vehsPerHour="10.556391148624197" departLane="free"/>
  <flow id="JF71499" begin="0" fromJunction="J7" toJunction="J4" end="60" vehsPerHour="13.56167542991557" departLane="free"/>
  <flow id="JF71500" begin="0" fromJunction="J7" toJunction="J5" end="60" vehsPerHour="54.24233309014317" departLane="free"/>
  <flow id="JF71501" begin="0" fromJunction="J7" toJunction="J6" end="60" vehsPerHour="16.73955170341548" departLane="free"/>
  <flow id="JF71502" begin="0" fromJunction="J4" toJunction="J3" end="60" vehsPerHour="42.20545726838714" departLane="free"/>
  <flow id="JF71503" begin="0" fromJunction="J4" toJunction="J0" end="60" vehsPerHour="15.513847514567141" departLane="free"/>
  <flow id="JF71504" begin="0" fromJunction="J5" toJunction="J3" end="60" vehsPerHour="5.879987147010877" departLane="free"/>
  <flow id="JF71505" begin="0" fromJunction="J5" toJunction="J0" end="60" vehsPerHour="27.576938141634873" departLane="free"/>
  <flow id="JF71506" begin="0" fromJunction="J6" toJunction="J3" end="60" vehsPerHour="63.58078398917608" departLane="free"/>
  <flow id="JF71507" begin="0" fromJunction="J6" toJunction="J0" end="60" vehsPerHour="41.67261351002834" departLane="free"/>
  <flow id="JF71508" begin="0" fromJunction="J7" toJunction="J3" end="60" vehsPerHour="24.940046162820924" departLane="free"/>
  <flow id="JF71509" begin="0" fromJunction="J7" toJunction="J0" end="60" vehsPerHour="25.15305261615085" departLane="free"/>
  <flow id="JF71510" begin="60" fromJunction="J3" toJunction="J0" end="120" vehsPerHour="78.94778782147698" departLane="free"/>
  <flow id="JF71511" begin="60" fromJunction="J0" toJunction="J3" end="120" vehsPerHour="34.98909285571896" departLane="free"/>
  <flow id="JF71512" begin="60" fromJunction="J3" toJunction="J4" end="120" vehsPerHour="36.04328162635205" departLane="free"/>
  <flow id="JF71513" begin="60" fromJunction="J3" toJunction="J5" end="120" vehsPerHour="106.4760117270581" departLane="free"/>
  <flow id="JF71514" begin="60" fromJunction="J3" toJunction="J6" end="120" vehsPerHour="127.6392020647457" departLane="free"/>
  <flow id="JF71515" begin="60" fromJunction="J3" toJunction="J7" end="120" vehsPerHour="70.90076999566254" departLane="free"/>
  <flow id="JF71516" begin="60" fromJunction="J0" toJunction="J4" end="120" vehsPerHour="37.602405313270054" departLane="free"/>
  <flow id="JF71517" begin="60" fromJunction="J0" toJunction="J5" end="120" vehsPerHour="74.08439058536194" departLane="free"/>
  <flow id="JF71518" begin="60" fromJunction="J0" toJunction="J6" end="120" vehsPerHour="49.811212178683824" departLane="free"/>
  <flow id="JF71519" begin="60" fromJunction="J0" toJunction="J7" end="120" vehsPerHour="23.233845529982425" departLane="free"/>
  <flow id="JF71520" begin="60" fromJunction="J4" toJunction="J5" end="120" vehsPerHour="4.44490455060258" departLane="free"/>
  <flow id="JF71521" begin="60" fromJunction="J4" toJunction="J6" end="120" vehsPerHour="42.94475286548992" departLane="free"/>
  <flow id="JF71522" begin="60" fromJunction="J4" toJunction="J7" end="120" vehsPerHour="9.499111023987192" departLane="free"/>
  <flow id="JF71523" begin="60" fromJunction="J5" toJunction="J4" end="120" vehsPerHour="34.3773964727136" departLane="free"/>
  <flow id="JF71524" begin="60" fromJunction="J5" toJunction="J6" end="120" vehsPerHour="55.10134085066179" departLane="free"/>
  <flow id="JF71525" begin="60" fromJunction="J5" toJunction="J7" end="120" vehsPerHour="65.23529031780623" departLane="free"/>
  <flow id="JF71526" begin="60" fromJunction="J6" toJunction="J4" end="120" vehsPerHour="67.01696874246953" departLane="free"/>
  <flow id="JF71527" begin="60" fromJunction="J6" toJunction="J5" end="120" vehsPerHour="31.891086373942912" departLane="free"/>
  <flow id="JF71528" begin="60" fromJunction="J6" toJunction="J7" end="120" vehsPerHour="56.02182578109819" departLane="free"/>
  <flow id="JF71529" begin="60" fromJunction="J7" toJunction="J4" end="120" vehsPerHour="8.55362509381986" departLane="free"/>
  <flow id="JF71530" begin="60" fromJunction="J7" toJunction="J5" end="120" vehsPerHour="23.67684945927875" departLane="free"/>
  <flow id="JF71531" begin="60" fromJunction="J7" toJunction="J6" end="120" vehsPerHour="13.002906355174419" departLane="free"/>
  <flow id="JF71532" begin="60" fromJunction="J4" toJunction="J3" end="120" vehsPerHour="40.748462915088545" departLane="free"/>
  <flow id="JF71533" begin="60" fromJunction="J4" toJunction="J0" end="120" vehsPerHour="39.880965828448105" departLane="free"/>
  <flow id="JF71534" begin="60" fromJunction="J5" toJunction="J3" end="120" vehsPerHour="31.719172077412374" departLane="free"/>
  <flow id="JF71535" begin="60" fromJunction="J5" toJunction="J0" end="120" vehsPerHour="7.940730136519352" departLane="free"/>
  <flow id="JF71536" begin="60" fromJunction="J6" toJunction="J3" end="120" vehsPerHour="25.906091903441332" departLane="free"/>
  <flow id="JF71537" begin="60" fromJunction="J6" toJunction="J0" end="120" vehsPerHour="65.65730355681805" departLane="free"/>
  <flow id="JF71538" begin="60" fromJunction="J7" toJunction="J3" end="120" vehsPerHour="33.00240511796805" departLane="free"/>
  <flow id="JF71539" begin="60" fromJunction="J7" toJunction="J0" end="120" vehsPerHour="10.224123217472625" departLane="free"/>
  <flow id="JF71540" begin="120" fromJunction="J3" toJunction="J0" end="180" vehsPerHour="129.94971450062806" departLane="free"/>
  <flow id="JF71541" begin="120" fromJunction="J0" toJunction="J3" end="180" vehsPerHour="52.72204742156834" departLane="free"/>
  <flow id="JF71542" begin="120" fromJunction="J3" toJunction="J4" end="180" vehsPerHour="62.893143990760514" departLane="free"/>
  <flow id="JF71543" begin="120" fromJunction="J3" toJunction="J5" end="180" vehsPerHour="4.045773380264319" departLane="free"/>
  <flow id="JF71544" begin="120" fromJunction="J3" toJunction="J6" end="180" vehsPerHour="3.799471100916511" departLane="free"/>
  <flow id="JF71545" begin="120" fromJunction="J3" toJunction="J7" end="180" vehsPerHour="51.01692766048717" departLane="free"/>
  <flow id="JF71546" begin="120" fromJunction="J0" toJunction="J4" end="180" vehsPerHour="83.14556645122259" departLane="free"/>
  <flow id="JF71547" begin="120" fromJunction="J0" toJunction="J5" end="180" vehsPerHour="107.40264905208188" departLane="free"/>
  <flow id="JF71548" begin="120" fromJunction="J0" toJunction="J6" end="180" vehsPerHour="46.23008051244511" departLane="free"/>
  <flow id="JF71549" begin="120" fromJunction="J0" toJunction="J7" end="180" vehsPerHour="83.71957100538589" departLane="free"/>
  <flow id="JF71550" begin="180" fromJunction="J3" toJunction="J0" end="240" vehsPerHour="108.29268999493986" departLane="free"/>
  <flow id="JF71551" begin="180" fromJunction="J0" toJunction="J3" end="240" vehsPerHour="135.08190758524913" departLane="free"/>
  <flow id="JF71552" begin="180" fromJunction="J3" toJunction="J4" end="240" vehsPerHour="32.81498821664247" departLane="free"/>
  <flow id="JF71553" begin="180" fromJunction="J3" toJunction="J5" end="240" vehsPerHour="79.43497533479412" departLane="free"/>
  <flow id="JF71554" begin="180" fromJunction="J3" toJunction="J6" end="240" vehsPerHour="113.81239858857148" departLane="free"/>
  <flow id="JF71555" begin="180" fromJunction="J3" toJunction="J7" end="240" vehsPerHour="57.14628236526318" departLane="free"/>
  <flow id="JF71556" begin="180" fromJunction="J0" toJunction="J4" end="240" vehsPerHour="69.2887759779365" departLane="free"/>
  <flow id="JF71557" begin="180" fromJunction="J0" toJunction="J5" end="240" vehsPerHour="102.10109927657035" departLane="free"/>
  <flow id="JF71558" begin="180" fromJunction="J0" toJunction="J6" end="240" vehsPerHour="71.82117288790748" departLane="free"/>
  <flow id="JF71559" begin="180" fromJunction="J0" toJunction="J7" end="240" vehsPerHour="126.83335189380286" departLane="free"/>
  <flow id="JF71560" begin="180" fromJunction="J4" toJunction="J5" end="240" vehsPerHour="29.172693957076042" departLane="free"/>
  <flow id="JF71561" begin="180" fromJunction="J4" toJunction="J6" end="240" vehsPerHour="1.7480051715453633" departLane="free"/>
  <flow id="JF71562" begin="180" fromJunction="J4" toJunction="J7" end="240" vehsPerHour="10.720047161676023" departLane="free"/>
  <flow id="JF71563" begin="180" fromJunction="J5" toJunction="J4" end="240" vehsPerHour="39.02361462051858" departLane="free"/>
  <flow id="JF71564" begin="180" fromJunction="J5" toJunction="J6" end="240" vehsPerHour="9.150796697646927" departLane="free"/>
  <flow id="JF71565" begin="180" fromJunction="J5" toJunction="J7" end="240" vehsPerHour="58.97388740214748" departLane="free"/>
  <flow id="JF71566" begin="180" fromJunction="J6" toJunction="J4" end="240" vehsPerHour="31.766173223151334" departLane="free"/>
  <flow id="JF71567" begin="180" fromJunction="J6" toJunction="J5" end="240" vehsPerHour="32.06367243220998" departLane="free"/>
  <flow id="JF71568" begin="180" fromJunction="J6" toJunction="J7" end="240" vehsPerHour="20.490052497134034" departLane="free"/>
  <flow id="JF71569" begin="180" fromJunction="J7" toJunction="J4" end="240" vehsPerHour="14.320164925699924" departLane="free"/>
  <flow id="JF71570" begin="180" fromJunction="J7" toJunction="J5" end="240" vehsPerHour="61.86481850907884" departLane="free"/>
  <flow id="JF71571" begin="180" fromJunction="J7" toJunction="J6" end="240" vehsPerHour="57.56653608256436" departLane="free"/>
  <flow id="JF71572" begin="180" fromJunction="J4" toJunction="J3" end="240" vehsPerHour="62.28733354100216" departLane="free"/>
  <flow id="JF71573" begin="180" fromJunction="J4" toJunction="J0" end="240" vehsPerHour="34.249758026112985" departLane="free"/>
  <flow id="JF71574" begin="180" fromJunction="J5" toJunction="J3" end="240" vehsPerHour="46.65853067542955" departLane="free"/>
  <flow id="JF71575" begin="180" fromJunction="J5" toJunction="J0" end="240" vehsPerHour="53.76258662197668" departLane="free"/>
  <flow id="JF71576" begin="180" fromJunction="J6" toJunction="J3" end="240" vehsPerHour="14.738347935821512" departLane="free"/>
  <flow id="JF71577" begin="180" fromJunction="J6" toJunction="J0" end="240" vehsPerHour="43.47497110084756" departLane="free"/>
  <flow id="JF71578" begin="180" fromJunction="J7" toJunction="J3" end="240" vehsPerHour="37.794171248611605" departLane="free"/>
  <flow id="JF71579" begin="180" fromJunction="J7" toJunction="J0" end="240" vehsPerHour="18.574396527027385" departLane="free"/>
  <flow id="JF71580" begin="240" fromJunction="J3" toJunction="J0" end="300" vehsPerHour="53.02721535808055" departLane="free"/>
  <flow id="JF71581" begin="240" fromJunction="J0" toJunction="J3" end="300" vehsPerHour="18.884543716422897" departLane="free"/>
  <flow id="JF71582" begin="240" fromJunction="J3" toJunction="J4" end="300" vehsPerHour="125.53909217140315" departLane="free"/>
  <flow id="JF71583" begin="240" fromJunction="J3" toJunction="J5" end="300" vehsPerHour="1.970965693078933" departLane="free"/>
  <flow id="JF71584" begin="240" fromJunction="J3" toJunction="J6" end="300" vehsPerHour="51.5306744321768" departLane="free"/>
  <flow id="JF71585" begin="240" fromJunction="J3" toJunction="J7" end="300" vehsPerHour="68.05359614504913" departLane="free"/>
  <flow id="JF71586" begin="240" fromJunction="J0" toJunction="J4" end="300" vehsPerHour="100.00114326630931" departLane="free"/>
  <flow id="JF71587" begin="240" fromJunction="J0" toJunction="J5" end="300" vehsPerHour="120.47965553620595" departLane="free"/>
  <flow id="JF71588" begin="240" fromJunction="J0" toJunction="J6" end="300" vehsPerHour="45.596288808824475" departLane="free"/>
  <flow id="JF71589" begin="240" fromJunction="J0" toJunction="J7" end="300" vehsPerHour="120.62171468106345" departLane="free"/>
  <flow id="JF71590" begin="240" fromJunction="J4" toJunction="J5" end="300" vehsPerHour="14.290201158286575" departLane="free"/>
  <flow id="JF71591" begin="240" fromJunction="J4" toJunction="J6" end="300" vehsPerHour="15.786737441956914" departLane="free"/>
  <flow id="JF71592" begin="240" fromJunction="J4" toJunction="J7" end="300" vehsPerHour="9.181959673139348" departLane="free"/>
  <flow id="JF71593" begin="240" fromJunction="J5" toJunction="J4" end="300" vehsPerHour="51.16248331613374" departLane="free"/>
  <flow id="JF71594" begin="240" fromJunction="J5" toJunction="J6" end="300" vehsPerHour="34.88833908792816" departLane="free"/>
  <flow id="JF71595" begin="240" fromJunction="J5" toJunction="J7" end="300" vehsPerHour="67.63192652999396" departLane="free"/>
  <flow id="JF71596" begin="240" fromJunction="J6" toJunction="J4" end="300" vehsPerHour="60.20414918322241" departLane="free"/>
  <flow id="JF71597" begin="240" fromJunction="J6" toJunction="J5" end="300" vehsPerHour="34.70752835263683" departLane="free"/>
  <flow id="JF71598" begin="240" fromJunction="J6" toJunction="J7" end="300" vehsPerHour="54.10205886241549" departLane="free"/>
  <flow id="JF71599" begin="240" fromJunction="J7" toJunction="J4" end="300" vehsPerHour="23.346292287426387" departLane="free"/>
  <flow id="JF71600" begin="240" fromJunction="J7" toJunction="J5" end="300" vehsPerHour="28.80783475950733" departLane="free"/>
  <flow id="JF71601" begin="240" fromJunction="J7" toJunction="J6" end="300" vehsPerHour="61.67564339519125" departLane="free"/>
  <flow id="JF71602" begin="240" fromJunction="J4" toJunction="J3" end="300" vehsPerHour="10.822055066768689" departLane="free"/>
  <flow id="JF71603" begin="240" fromJunction="J4" toJunction="J0" end="300" vehsPerHour="30.91267636570102" departLane="free"/>
  <flow id="JF71604" begin="240" fromJunction="J5" toJunction="J3" end="300" vehsPerHour="23.47192750489032" departLane="free"/>
  <flow id="JF71605" begin="240" fromJunction="J5" toJunction="J0" end="300" vehsPerHour="20.96488770474772" departLane="free"/>
  <flow id="JF71606" begin="240" fromJunction="J6" toJunction="J3" end="300" vehsPerHour="59.79521067712489" departLane="free"/>
  <flow id="JF71607" begin="240" fromJunction="J6" toJunction="J0" end="300" vehsPerHour="18.87289583250962" departLane="free"/>
  <flow id="JF71608" begin="240" fromJunction="J7" toJunction="J3" end="300" vehsPerHour="62.07129730722209" departLane="free"/>
  <flow id="JF71609" begin="240" fromJunction="J7" toJunction="J0" end="300" vehsPerHour="36.11263160150565" departLane="free"/>
  <flow id="JF71610" begin="300" fromJunction="J3" toJunction="J0" end="360" vehsPerHour="7.966608084440654" departLane="free"/>
  <flow id="JF71611" begin="300" fromJunction="J0" toJunction="J3" end="360" vehsPerHour="130.01455579895224" departLane="free"/>
  <flow id="JF71612" begin="300" fromJunction="J3" toJunction="J4" end="360" vehsPerHour="73.02493013570373" departLane="free"/>
  <flow id="JF71613" begin="300" fromJunction="J3" toJunction="J5" end="360" vehsPerHour="133.1100207291786" departLane="free"/>
  <flow id="JF71614" begin="300" fromJunction="J3" toJunction="J6" end="360" vehsPerHour="117.93035067656143" departLane="free"/>
  <flow id="JF71615" begin="300" fromJunction="J3" toJunction="J7" end="360" vehsPerHour="90.23419518568463" departLane="free"/>
  <flow id="JF71616" begin="300" fromJunction="J0" toJunction="J4" end="360" vehsPerHour="36.88285824006742" departLane="free"/>
  <flow id="JF71617" begin="300" fromJunction="J0" toJunction="J5" end="360" vehsPerHour="103.60480158248215" departLane="free"/>
  <flow id="JF71618" begin="300" fromJunction="J0" toJunction="J6" end="360" vehsPerHour="25.08804239433776" departLane="free"/>
  <flow id="JF71619" begin="300" fromJunction="J0" toJunction="J7" end="360" vehsPerHour="111.47099915068435" departLane="free"/>
  <flow id="JF71620" begin="300" fromJunction="J4" toJunction="J5" end="360" vehsPerHour="42.03886753658753" departLane="free"/>
  <flow id="JF71621" begin="300" fromJunction="J4" toJunction="J6" end="360" vehsPerHour="37.28347452616409" departLane="free"/>
  <flow id="JF71622" begin="300" fromJunction="J4" toJunction="J7" end="360" vehsPerHour="28.00726248582505" departLane="free"/>
  <flow id="JF71623" begin="300" fromJunction="J5" toJunction="J4" end="360" vehsPerHour="51.491421073795436" departLane="free"/>
  <flow id="JF71624" begin="300" fromJunction="J5" toJunction="J6" end="360" vehsPerHour="17.642415509391714" departLane="free"/>
  <flow id="JF71625" begin="300" fromJunction="J5" toJunction="J7" end="360" vehsPerHour="13.888189300754808" departLane="free"/>
  <flow id="JF71626" begin="300" fromJunction="J6" toJunction="J4" end="360" vehsPerHour="24.447083135391786" departLane="free"/>
  <flow id="JF71627" begin="300" fromJunction="J6" toJunction="J5" end="360" vehsPerHour="48.287949331251916" departLane="free"/>
  <flow id="JF71628" begin="300" fromJunction="J6" toJunction="J7" end="360" vehsPerHour="23.782954859699494" departLane="free"/>
  <flow id="JF71629" begin="300" fromJunction="J7" toJunction="J4" end="360" vehsPerHour="37.65782081299653" departLane="free"/>
  <flow id="JF71630" begin="300" fromJunction="J7" toJunction="J5" end="360" vehsPerHour="48.79684330613792" departLane="free"/>
  <flow id="JF71631" begin="300" fromJunction="J7" toJunction="J6" end="360" vehsPerHour="46.42347552156153" departLane="free"/>
  <flow id="JF71632" begin="300" fromJunction="J4" toJunction="J3" end="360" vehsPerHour="60.27681520157726" departLane="free"/>
  <flow id="JF71633" begin="300" fromJunction="J4" toJunction="J0" end="360" vehsPerHour="66.46996533253113" departLane="free"/>
  <flow id="JF71634" begin="300" fromJunction="J5" toJunction="J3" end="360" vehsPerHour="3.9059019566170363" departLane="free"/>
  <flow id="JF71635" begin="300" fromJunction="J5" toJunction="J0" end="360" vehsPerHour="68.36798577190382" departLane="free"/>
  <flow id="JF71636" begin="300" fromJunction="J6" toJunction="J3" end="360" vehsPerHour="53.61446476397157" departLane="free"/>
  <flow id="JF71637" begin="300" fromJunction="J6" toJunction="J0" end="360" vehsPerHour="62.79542031254313" departLane="free"/>
  <flow id="JF71638" begin="300" fromJunction="J7" toJunction="J3" end="360" vehsPerHour="17.69883901357242" departLane="free"/>
  <flow id="JF71639" begin="300" fromJunction="J7" toJunction="J0" end="360" vehsPerHour="26.38320977877571" departLane="free"/>
  <flow id="JF71640" begin="360" fromJunction="J3" toJunction="J0" end="420" vehsPerHour="117.15421695203833" departLane="free"/>
  <flow id="JF71641" begin="360" fromJunction="J0" toJunction="J3" end="420" vehsPerHour="107.85817019702306" departLane="free"/>
  <flow id="JF71642" begin="360" fromJunction="J3" toJunction="J4" end="420" vehsPerHour="102.06304990871237" departLane="free"/>
  <flow id="JF71643" begin="360" fromJunction="J3" toJunction="J5" end="420" vehsPerHour="94.20446097210537" departLane="free"/>
  <flow id="JF71644" begin="360" fromJunction="J3" toJunction="J6" end="420" vehsPerHour="37.83241371348979" departLane="free"/>
  <flow id="JF71645" begin="360" fromJunction="J3" toJunction="J7" end="420" vehsPerHour="78.8863367516943" departLane="free"/>
  <flow id="JF71646" begin="360" fromJunction="J0" toJunction="J4" end="420" vehsPerHour="25.04673996233066" departLane="free"/>
  <flow id="JF71647" begin="360" fromJunction="J0" toJunction="J5" end="420" vehsPerHour="106.21669225667364" departLane="free"/>
  <flow id="JF71648" begin="360" fromJunction="J0" toJunction="J6" end="420" vehsPerHour="44.30751637914045" departLane="free"/>
  <flow id="JF71649" begin="360" fromJunction="J0" toJunction="J7" end="420" vehsPerHour="80.11158413639515" departLane="free"/>
  <flow id="JF71650" begin="360" fromJunction="J4" toJunction="J5" end="420" vehsPerHour="58.33746866341273" departLane="free"/>
  <flow id="JF71651" begin="360" fromJunction="J4" toJunction="J6" end="420" vehsPerHour="30.383650192079003" departLane="free"/>
  <flow id="JF71652" begin="360" fromJunction="J4" toJunction="J7" end="420" vehsPerHour="20.036224181980067" departLane="free"/>
  <flow id="JF71653" begin="360" fromJunction="J5" toJunction="J4" end="420" vehsPerHour="36.71581902144565" departLane="free"/>
  <flow id="JF71654" begin="360" fromJunction="J5" toJunction="J6" end="420" vehsPerHour="33.83422436796585" departLane="free"/>
  <flow id="JF71655" begin="360" fromJunction="J5" toJunction="J7" end="420" vehsPerHour="42.11756322502116" departLane="free"/>
  <flow id="JF71656" begin="360" fromJunction="J6" toJunction="J4" end="420" vehsPerHour="58.14860680121212" departLane="free"/>
  <flow id="JF71657" begin="360" fromJunction="J6" toJunction="J5" end="420" vehsPerHour="34.450804031321844" departLane="free"/>
  <flow id="JF71658" begin="360" fromJunction="J6" toJunction="J7" end="420" vehsPerHour="29.753968733070792" departLane="free"/>
  <flow id="JF71659" begin="360" fromJunction="J7" toJunction="J4" end="420" vehsPerHour="45.422659512473224" departLane="free"/>
  <flow id="JF71660" begin="360" fromJunction="J7" toJunction="J5" end="420" vehsPerHour="59.6417366543014" departLane="free"/>
  <flow id="JF71661" begin="360" fromJunction="J7" toJunction="J6" end="420" vehsPerHour="38.495337998250434" departLane="free"/>
  <flow id="JF71662" begin="360" fromJunction="J4" toJunction="J3" end="420" vehsPerHour="66.82893889469588" departLane="free"/>
  <flow id="JF71663" begin="360" fromJunction="J4" toJunction="J0" end="420" vehsPerHour="37.18269501685166" departLane="free"/>
  <flow id="JF71664" begin="360" fromJunction="J5" toJunction="J3" end="420" vehsPerHour="7.688972848453591" departLane="free"/>
  <flow id="JF71665" begin="360" fromJunction="J5" toJunction="J0" end="420" vehsPerHour="15.850770219231993" departLane="free"/>
  <flow id="JF71666" begin="360" fromJunction="J6" toJunction="J3" end="420" vehsPerHour="59.859763993498625" departLane="free"/>
  <flow id="JF71667" begin="360" fromJunction="J6" toJunction="J0" end="420" vehsPerHour="3.0109147396897478" departLane="free"/>
  <flow id="JF71668" begin="360" fromJunction="J7" toJunction="J3" end="420" vehsPerHour="40.91429828488948" departLane="free"/>
  <flow id="JF71669" begin="360" fromJunction="J7" toJunction="J0" end="420" vehsPerHour="27.04708807242367" departLane="free"/>
  <flow id="JF71670" begin="420" fromJunction="J3" toJunction="J0" end="480" vehsPerHour="125.35905952346418" departLane="free"/>
  <flow id="JF71671" begin="420" fromJunction="J0" toJunction="J3" end="480" vehsPerHour="75.97980342033576" departLane="free"/>
  <flow id="JF71672" begin="420" fromJunction="J3" toJunction="J4" end="480" vehsPerHour="61.26650361365746" departLane="free"/>
  <flow id="JF71673" begin="420" fromJunction="J3" toJunction="J5" end="480" vehsPerHour="27.716665008802902" departLane="free"/>
  <flow id="JF71674" begin="420" fromJunction="J3" toJunction="J6" end="480" vehsPerHour="28.06311852977107" departLane="free"/>
  <flow id="JF71675" begin="420" fromJunction="J3" toJunction="J7" end="480" vehsPerHour="50.73608917576346" departLane="free"/>
  <flow id="JF71676" begin="420" fromJunction="J0" toJunction="J4" end="480" vehsPerHour="127.40234071297289" departLane="free"/>
  <flow id="JF71677" begin="420" fromJunction="J0" toJunction="J5" end="480" vehsPerHour="54.381891987079406" departLane="free"/>
  <flow id="JF71678" begin="420" fromJunction="J0" toJunction="J6" end="480" vehsPerHour="114.311487401042" departLane="free"/>
  <flow id="JF71679" begin="420" fromJunction="J0" toJunction="J7" end="480" vehsPerHour="134.27845336447825" departLane="free"/>
  <flow id="JF71680" begin="480" fromJunction="J3" toJunction="J0" end="540" vehsPerHour="30.106756093484908" departLane="free"/>
  <flow id="JF71681" begin="480" fromJunction="J0" toJunction="J3" end="540" vehsPerHour="67.10941446950818" departLane="free"/>
  <flow id="JF71682" begin="480" fromJunction="J3" toJunction="J4" end="540" vehsPerHour="7.215152894388266" departLane="free"/>
  <flow id="JF71683" begin="480" fromJunction="J3" toJunction="J5" end="540" vehsPerHour="132.40452521440233" departLane="free"/>
  <flow id="JF71684" begin="480" fromJunction="J3" toJunction="J6" end="540" vehsPerHour="110.29223544684261" departLane="free"/>
  <flow id="JF71685" begin="480" fromJunction="J3" toJunction="J7" end="540" vehsPerHour="80.81785887819402" departLane="free"/>
  <flow id="JF71686" begin="480" fromJunction="J0" toJunction="J4" end="540" vehsPerHour="61.55833535831957" departLane="free"/>
  <flow id="JF71687" begin="480" fromJunction="J0" toJunction="J5" end="540" vehsPerHour="76.03762790523959" departLane="free"/>
  <flow id="JF71688" begin="480" fromJunction="J0" toJunction="J6" end="540" vehsPerHour="98.37510324339729" departLane="free"/>
  <flow id="JF71689" begin="480" fromJunction="J0" toJunction="J7" end="540" vehsPerHour="70.78454606695679" departLane="free"/>
  <flow id="JF71690" begin="480" fromJunction="J4" toJunction="J5" end="540" vehsPerHour="51.933373038467444" departLane="free"/>
  <flow id="JF71691" begin="480" fromJunction="J4" toJunction="J6" end="540" vehsPerHour="10.199886039965548" departLane="free"/>
  <flow id="JF71692" begin="480" fromJunction="J4" toJunction="J7" end="540" vehsPerHour="11.399549997540115" departLane="free"/>
  <flow id="JF71693" begin="480" fromJunction="J5" toJunction="J4" end="540" vehsPerHour="67.51782141143633" departLane="free"/>
  <flow id="JF71694" begin="480" fromJunction="J5" toJunction="J6" end="540" vehsPerHour="57.07841669856131" departLane="free"/>
  <flow id="JF71695" begin="480" fromJunction="J5" toJunction="J7" end="540" vehsPerHour="30.79510881394582" departLane="free"/>
  <flow id="JF71696" begin="480" fromJunction="J6" toJunction="J4" end="540" vehsPerHour="0.051209808963205275" departLane="free"/>
  <flow id="JF71697" begin="480" fromJunction="J6" toJunction="J5" end="540" vehsPerHour="55.00267441641052" departLane="free"/>
  <flow id="JF71698" begin="480" fromJunction="J6" toJunction="J7" end="540" vehsPerHour="20.994193534952846" departLane="free"/>
  <flow id="JF71699" begin="480" fromJunction="J7" toJunction="J4" end="540" vehsPerHour="19.027873739454332" departLane="free"/>
  <flow id="JF71700" begin="480" fromJunction="J7" toJunction="J5" end="540" vehsPerHour="58.86454885487049" departLane="free"/>
  <flow id="JF71701" begin="480" fromJunction="J7" toJunction="J6" end="540" vehsPerHour="60.271053286331686" departLane="free"/>
  <flow id="JF71702" begin="480" fromJunction="J4" toJunction="J3" end="540" vehsPerHour="15.30449537357543" departLane="free"/>
  <flow id="JF71703" begin="480" fromJunction="J4" toJunction="J0" end="540" vehsPerHour="49.21250237927953" departLane="free"/>
  <flow id="JF71704" begin="480" fromJunction="J5" toJunction="J3" end="540" vehsPerHour="17.154420711988642" departLane="free"/>
  <flow id="JF71705" begin="480" fromJunction="J5" toJunction="J0" end="540" vehsPerHour="28.849736218503537" departLane="free"/>
  <flow id="JF71706" begin="480" fromJunction="J6" toJunction="J3" end="540" vehsPerHour="13.115563156001741" departLane="free"/>
  <flow id="JF71707" begin="480" fromJunction="J6" toJunction="J0" end="540" vehsPerHour="13.985793637181791" departLane="free"/>
  <flow id="JF71708" begin="480" fromJunction="J7" toJunction="J3" end="540" vehsPerHour="57.23226702164637" departLane="free"/>
  <flow id="JF71709" begin="480" fromJunction="J7" toJunction="J0" end="540" vehsPerHour="8.976672999959389" departLane="free"/>
  <flow id="JF71710" begin="540" fromJunction="J3" toJunction="J0" end="600" vehsPerHour="59.052555777011676" departLane="free"/>