<?xml version="1.0" encoding="UTF-8"?>
<routes xmlns:xsi="http://www.w3.org/2001/XMLSchema-instance" xsi:noNamespaceSchemaLocation="http://sumo.dlr.de/xsd/routes_file.xsd">
  <flow id="JF34974" begin="0" fromJunction="J0" toJunction="J3" end="10000" vehsPerHour="523.4821789816978"/>
  <flow id="JF34975" begin="0" fromJunction="J3" toJunction="J0" end="10000" vehsPerHour="612.7149736962573"/>
  <flow id="JF34976" begin="0" fromJunction="J0" toJunction="J7" end="10000" vehsPerHour="105.78653745970117"/>
  <flow id="JF34977" begin="0" fromJunction="J0" toJunction="J6" end="10000" vehsPerHour="14.909371907253506"/>
  <flow id="JF34978" begin="0" fromJunction="J0" toJunction="J4" end="10000" vehsPerHour="88.24377817761344"/>
  <flow id="JF34979" begin="0" fromJunction="J0" toJunction="J5" end="10000" vehsPerHour="32.59783775584293"/>
  <flow id="JF34980" begin="0" fromJunction="J3" toJunction="J7" end="10000" vehsPerHour="109.78899325162773"/>
  <flow id="JF34981" begin="0" fromJunction="J3" toJunction="J6" end="10000" vehsPerHour="22.297378568858647"/>
  <flow id="JF34982" begin="0" fromJunction="J3" toJunction="J4" end="10000" vehsPerHour="109.28552304012516"/>
  <flow id="JF34983" begin="0" fromJunction="J3" toJunction="J5" end="10000" vehsPerHour="72.79366525932979"/>
  <flow id="JF34984" begin="0" fromJunction="J7" toJunction="J6" end="10000" vehsPerHour="183.08802859549962"/>
  <flow id="JF34985" begin="0" fromJunction="J7" toJunction="J4" end="10000" vehsPerHour="167.90461802548583"/>
  <flow id="JF34986" begin="0" fromJunction="J7" toJunction="J5" end="10000" vehsPerHour="29.47851540752922"/>
  <flow id="JF34987" begin="0" fromJunction="J6" toJunction="J7" end="10000" vehsPerHour="142.2859686901614"/>
  <flow id="JF34988" begin="0" fromJunction="J6" toJunction="J4" end="10000" vehsPerHour="249.4117372061569"/>
  <flow id="JF34989" begin="0" fromJunction="J6" toJunction="J5" end="10000" vehsPerHour="222.30432692093416"/>
  <flow id="JF34990" begin="0" fromJunction="J4" toJunction="J7" end="10000" vehsPerHour="13.192312865121027"/>
  <flow id="JF34991" begin="0" fromJunction="J4" toJunction="J6" end="10000" vehsPerHour="269.9929123275249"/>
  <flow id="JF34992" begin="0" fromJunction="J4" toJunction="J5" end="10000" vehsPerHour="167.24889456804516"/>
  <flow id="JF34993" begin="0" fromJunction="J5" toJunction="J7" end="10000" vehsPerHour="124.72032460095352"/>
  <flow id="JF34994" begin="0" fromJunction="J5" toJunction="J6" end="10000" vehsPerHour="159.60020187830165"/>
  <flow id="JF34995" begin="0" fromJunction="J5" toJunction="J4" end="10000" vehsPerHour="256.8478081320377"/>
  <flow id="JF34996" begin="0" fromJunction="J7" toJunction="J0" end="10000" vehsPerHour="42.89165826597863"/>
  <flow id="JF34997" begin="0" fromJunction="J7" toJunction="J3" end="10000" vehsPerHour="50.9455858648232"/>
  <flow id="JF34998" begin="0" fromJunction="J6" toJunction="J0" end="10000" vehsPerHour="24.211359126079014"/>
  <flow id="JF34999" begin="0" fromJunction="J6" toJunction="J3" end="10000" vehsPerHour="39.19040653230276"/>
  <flow id="JF35000" begin="0" fromJunction="J4" toJunction="J0" end="10000" vehsPerHour="53.929031954553466"/>
  <flow id="JF35001" begin="0" fromJunction="J4" toJunction="J3" end="10000" vehsPerHour="60.64976857729085"/>
  <flow id="JF35002" begin="0" fromJunction="J5" toJunction="J0" end="10000" vehsPerHour="38.995657878335855"/>
  <flow id="JF35003" begin="0" fromJunction="J5" toJunction="J3" end="10000" vehsPerHour="64.09008308688932"/>
</routes>