<?xml version="1.0" encoding="UTF-8"?>
<routes xmlns:xsi="http://www.w3.org/2001/XMLSchema-instance" xsi:noNamespaceSchemaLocation="http://sumo.dlr.de/xsd/routes_file.xsd">
  <flow id="JF34884" begin="0" fromJunction="J0" toJunction="J3" end="10000" vehsPerHour="921.8217329217638"/>
  <flow id="JF34885" begin="0" fromJunction="J3" toJunction="J0" end="10000" vehsPerHour="793.045152879751"/>
  <flow id="JF34886" begin="0" fromJunction="J0" toJunction="J7" end="10000" vehsPerHour="105.39626111359134"/>
  <flow id="JF34887" begin="0" fromJunction="J0" toJunction="J6" end="10000" vehsPerHour="132.34210121652558"/>
  <flow id="JF34888" begin="0" fromJunction="J0" toJunction="J4" end="10000" vehsPerHour="104.77801627249644"/>
  <flow id="JF34889" begin="0" fromJunction="J0" toJunction="J5" end="10000" vehsPerHour="51.20522117354837"/>
  <flow id="JF34890" begin="0" fromJunction="J3" toJunction="J7" end="10000" vehsPerHour="97.91084137749924"/>
  <flow id="JF34891" begin="0" fromJunction="J3" toJunction="J6" end="10000" vehsPerHour="79.67758277617803"/>
  <flow id="JF34892" begin="0" fromJunction="J3" toJunction="J4" end="10000" vehsPerHour="61.298359569261244"/>
  <flow id="JF34893" begin="0" fromJunction="J3" toJunction="J5" end="10000" vehsPerHour="107.26169002869423"/>
  <flow id="JF34894" begin="0" fromJunction="J7" toJunction="J6" end="10000" vehsPerHour="117.42215452043564"/>
  <flow id="JF34895" begin="0" fromJunction="J7" toJunction="J4" end="10000" vehsPerHour="249.8686468282534"/>
  <flow id="JF34896" begin="0" fromJunction="J7" toJunction="J5" end="10000" vehsPerHour="114.75057448191336"/>
  <flow id="JF34897" begin="0" fromJunction="J6" toJunction="J7" end="10000" vehsPerHour="209.58623232074925"/>
  <flow id="JF34898" begin="0" fromJunction="J6" toJunction="J4" end="10000" vehsPerHour="121.97739014305877"/>
  <flow id="JF34899" begin="0" fromJunction="J6" toJunction="J5" end="10000" vehsPerHour="53.43450698362443"/>
  <flow id="JF34900" begin="0" fromJunction="J4" toJunction="J7" end="10000" vehsPerHour="186.91686395775704"/>
  <flow id="JF34901" begin="0" fromJunction="J4" toJunction="J6" end="10000" vehsPerHour="265.9082800020881"/>
  <flow id="JF34902" begin="0" fromJunction="J4" toJunction="J5" end="10000" vehsPerHour="49.03055462440514"/>
  <flow id="JF34903" begin="0" fromJunction="J5" toJunction="J7" end="10000" vehsPerHour="6.561443301604595"/>
  <flow id="JF34904" begin="0" fromJunction="J5" toJunction="J6" end="10000" vehsPerHour="222.36096776616884"/>
  <flow id="JF34905" begin="0" fromJunction="J5" toJunction="J4" end="10000" vehsPerHour="177.00054236006412"/>
  <flow id="JF34906" begin="0" fromJunction="J7" toJunction="J0" end="10000" vehsPerHour="20.987906140195808"/>
  <flow id="JF34907" begin="0" fromJunction="J7" toJunction="J3" end="10000" vehsPerHour="28.644590524201572"/>
  <flow id="JF34908" begin="0" fromJunction="J6" toJunction="J0" end="10000" vehsPerHour="37.564335425925506"/>
  <flow id="JF34909" begin="0" fromJunction="J6" toJunction="J3" end="10000" vehsPerHour="28.11671775362916"/>
  <flow id="JF34910" begin="0" fromJunction="J4" toJunction="J0" end="10000" vehsPerHour="30.695919259243592"/>
  <flow id="JF34911" begin="0" fromJunction="J4" toJunction="J3" end="10000" vehsPerHour="45.814769650193654"/>
  <flow id="JF34912" begin="0" fromJunction="J5" toJunction="J0" end="10000" vehsPerHour="64.95351814222985"/>
  <flow id="JF34913" begin="0" fromJunction="J5" toJunction="J3" end="10000" vehsPerHour="2.9740829117544876"/>
</routes>