<?xml version="1.0" encoding="UTF-8"?>
<routes xmlns:xsi="http://www.w3.org/2001/XMLSchema-instance" xsi:noNamespaceSchemaLocation="http://sumo.dlr.de/xsd/routes_file.xsd">
  <flow id="JF35034" begin="0" fromJunction="J0" toJunction="J3" end="10000" vehsPerHour="1012.296771305333"/>
  <flow id="JF35035" begin="0" fromJunction="J3" toJunction="J0" end="10000" vehsPerHour="955.9851766250916"/>
  <flow id="JF35036" begin="0" fromJunction="J0" toJunction="J7" end="10000" vehsPerHour="85.73896586529092"/>
  <flow id="JF35037" begin="0" fromJunction="J0" toJunction="J6" end="10000" vehsPerHour="107.35074549633754"/>
  <flow id="JF35038" begin="0" fromJunction="J0" toJunction="J4" end="10000" vehsPerHour="64.8970206183811"/>
  <flow id="JF35039" begin="0" fromJunction="J0" toJunction="J5" end="10000" vehsPerHour="80.93860761223786"/>
  <flow id="JF35040" begin="0" fromJunction="J3" toJunction="J7" end="10000" vehsPerHour="9.347818730482645"/>
  <flow id="JF35041" begin="0" fromJunction="J3" toJunction="J6" end="10000" vehsPerHour="41.418735506565625"/>
  <flow id="JF35042" begin="0" fromJunction="J3" toJunction="J4" end="10000" vehsPerHour="62.94151931741464"/>
  <flow id="JF35043" begin="0" fromJunction="J3" toJunction="J5" end="10000" vehsPerHour="84.28314368582997"/>
  <flow id="JF35044" begin="0" fromJunction="J7" toJunction="J6" end="10000" vehsPerHour="169.82538099208534"/>
  <flow id="JF35045" begin="0" fromJunction="J7" toJunction="J4" end="10000" vehsPerHour="211.72250880669284"/>
  <flow id="JF35046" begin="0" fromJunction="J7" toJunction="J5" end="10000" vehsPerHour="227.7427456056672"/>
  <flow id="JF35047" begin="0" fromJunction="J6" toJunction="J7" end="10000" vehsPerHour="269.1145805472515"/>
  <flow id="JF35048" begin="0" fromJunction="J6" toJunction="J4" end="10000" vehsPerHour="95.50628209964052"/>
  <flow id="JF35049" begin="0" fromJunction="J6" toJunction="J5" end="10000" vehsPerHour="55.98225084094144"/>
  <flow id="JF35050" begin="0" fromJunction="J4" toJunction="J7" end="10000" vehsPerHour="139.53553082544406"/>
  <flow id="JF35051" begin="0" fromJunction="J4" toJunction="J6" end="10000" vehsPerHour="204.55329657736465"/>
  <flow id="JF35052" begin="0" fromJunction="J4" toJunction="J5" end="10000" vehsPerHour="2.9363911444822395"/>
  <flow id="JF35053" begin="0" fromJunction="J5" toJunction="J7" end="10000" vehsPerHour="192.29516086101128"/>
  <flow id="JF35054" begin="0" fromJunction="J5" toJunction="J6" end="10000" vehsPerHour="50.714590707909835"/>
  <flow id="JF35055" begin="0" fromJunction="J5" toJunction="J4" end="10000" vehsPerHour="236.0641725164133"/>
  <flow id="JF35056" begin="0" fromJunction="J7" toJunction="J0" end="10000" vehsPerHour="51.75312284878935"/>
  <flow id="JF35057" begin="0" fromJunction="J7" toJunction="J3" end="10000" vehsPerHour="20.682346617236433"/>
  <flow id="JF35058" begin="0" fromJunction="J6" toJunction="J0" end="10000" vehsPerHour="3.9163275777083415"/>
  <flow id="JF35059" begin="0" fromJunction="J6" toJunction="J3" end="10000" vehsPerHour="0.4925141156851352"/>
  <flow id="JF35060" begin="0" fromJunction="J4" toJunction="J0" end="10000" vehsPerHour="66.27446390640284"/>
  <flow id="JF35061" begin="0" fromJunction="J4" toJunction="J3" end="10000" vehsPerHour="2.6280473296408107"/>
  <flow id="JF35062" begin="0" fromJunction="J5" toJunction="J0" end="10000" vehsPerHour="64.02940084323903"/>
  <flow id="JF35063" begin="0" fromJunction="J5" toJunction="J3" end="10000" vehsPerHour="61.78903265578897"/>
</routes>