<?xml version="1.0" encoding="UTF-8"?>
<routes xmlns:xsi="http://www.w3.org/2001/XMLSchema-instance" xsi:noNamespaceSchemaLocation="http://sumo.dlr.de/xsd/routes_file.xsd">
  <flow id="JF35004" begin="0" fromJunction="J0" toJunction="J3" end="10000" vehsPerHour="953.1598716862975"/>
  <flow id="JF35005" begin="0" fromJunction="J3" toJunction="J0" end="10000" vehsPerHour="627.0488449938455"/>
  <flow id="JF35006" begin="0" fromJunction="J0" toJunction="J7" end="10000" vehsPerHour="107.44410798789825"/>
  <flow id="JF35007" begin="0" fromJunction="J0" toJunction="J6" end="10000" vehsPerHour="117.55619640766771"/>
  <flow id="JF35008" begin="0" fromJunction="J0" toJunction="J4" end="10000" vehsPerHour="54.321157777987004"/>
  <flow id="JF35009" begin="0" fromJunction="J0" toJunction="J5" end="10000" vehsPerHour="29.674418620508927"/>
  <flow id="JF35010" begin="0" fromJunction="J3" toJunction="J7" end="10000" vehsPerHour="110.59890068477955"/>
  <flow id="JF35011" begin="0" fromJunction="J3" toJunction="J6" end="10000" vehsPerHour="2.633682615198122"/>
  <flow id="JF35012" begin="0" fromJunction="J3" toJunction="J4" end="10000" vehsPerHour="70.12233440849789"/>
  <flow id="JF35013" begin="0" fromJunction="J3" toJunction="J5" end="10000" vehsPerHour="99.2786104685506"/>
  <flow id="JF35014" begin="0" fromJunction="J7" toJunction="J6" end="10000" vehsPerHour="248.7437104501073"/>
  <flow id="JF35015" begin="0" fromJunction="J7" toJunction="J4" end="10000" vehsPerHour="134.6389023730333"/>
  <flow id="JF35016" begin="0" fromJunction="J7" toJunction="J5" end="10000" vehsPerHour="146.2878666159265"/>
  <flow id="JF35017" begin="0" fromJunction="J6" toJunction="J7" end="10000" vehsPerHour="54.47101154515501"/>
  <flow id="JF35018" begin="0" fromJunction="J6" toJunction="J4" end="10000" vehsPerHour="246.3902577211623"/>
  <flow id="JF35019" begin="0" fromJunction="J6" toJunction="J5" end="10000" vehsPerHour="88.07508360006926"/>
  <flow id="JF35020" begin="0" fromJunction="J4" toJunction="J7" end="10000" vehsPerHour="11.695306434596478"/>
  <flow id="JF35021" begin="0" fromJunction="J4" toJunction="J6" end="10000" vehsPerHour="223.75026129553407"/>
  <flow id="JF35022" begin="0" fromJunction="J4" toJunction="J5" end="10000" vehsPerHour="172.81903427761884"/>
  <flow id="JF35023" begin="0" fromJunction="J5" toJunction="J7" end="10000" vehsPerHour="77.35397068094399"/>
  <flow id="JF35024" begin="0" fromJunction="J5" toJunction="J6" end="10000" vehsPerHour="191.5351297375151"/>
  <flow id="JF35025" begin="0" fromJunction="J5" toJunction="J4" end="10000" vehsPerHour="223.13407971311162"/>
  <flow id="JF35026" begin="0" fromJunction="J7" toJunction="J0" end="10000" vehsPerHour="1.5421228992271674"/>
  <flow id="JF35027" begin="0" fromJunction="J7" toJunction="J3" end="10000" vehsPerHour="33.82924237642647"/>
  <flow id="JF35028" begin="0" fromJunction="J6" toJunction="J0" end="10000" vehsPerHour="62.69383643593291"/>
  <flow id="JF35029" begin="0" fromJunction="J6" toJunction="J3" end="10000" vehsPerHour="44.925645923986444"/>
  <flow id="JF35030" begin="0" fromJunction="J4" toJunction="J0" end="10000" vehsPerHour="54.913574179463005"/>
  <flow id="JF35031" begin="0" fromJunction="J4" toJunction="J3" end="10000" vehsPerHour="23.544665235527408"/>
  <flow id="JF35032" begin="0" fromJunction="J5" toJunction="J0" end="10000" vehsPerHour="44.17536121370848"/>
  <flow id="JF35033" begin="0" fromJunction="J5" toJunction="J3" end="10000" vehsPerHour="8.432297294614692"/>
</routes>