<?xml version="1.0" encoding="UTF-8"?>
<routes xmlns:xsi="http://www.w3.org/2001/XMLSchema-instance" xsi:noNamespaceSchemaLocation="http://sumo.dlr.de/xsd/routes_file.xsd">
  <flow id="JF34824" begin="0" fromJunction="J0" toJunction="J3" end="10000" vehsPerHour="812.5686734654505"/>
  <flow id="JF34825" begin="0" fromJunction="J3" toJunction="J0" end="10000" vehsPerHour="545.1301255126116"/>
  <flow id="JF34826" begin="0" fromJunction="J0" toJunction="J7" end="10000" vehsPerHour="51.56197779529213"/>
  <flow id="JF34827" begin="0" fromJunction="J0" toJunction="J6" end="10000" vehsPerHour="128.33573808352682"/>
  <flow id="JF34828" begin="0" fromJunction="J0" toJunction="J4" end="10000" vehsPerHour="10.300767611160225"/>
  <flow id="JF34829" begin="0" fromJunction="J0" toJunction="J5" end="10000" vehsPerHour="100.97406454136326"/>
  <flow id="JF34830" begin="0" fromJunction="J3" toJunction="J7" end="10000" vehsPerHour="15.77498321478194"/>
  <flow id="JF34831" begin="0" fromJunction="J3" toJunction="J6" end="10000" vehsPerHour="33.38802287845019"/>
  <flow id="JF34832" begin="0" fromJunction="J3" toJunction="J4" end="10000" vehsPerHour="78.24762461293575"/>
  <flow id="JF34833" begin="0" fromJunction="J3" toJunction="J5" end="10000" vehsPerHour="30.019587584606406"/>
  <flow id="JF34834" begin="0" fromJunction="J7" toJunction="J6" end="10000" vehsPerHour="164.15813183024372"/>
  <flow id="JF34835" begin="0" fromJunction="J7" toJunction="J4" end="10000" vehsPerHour="109.1158562447951"/>
  <flow id="JF34836" begin="0" fromJunction="J7" toJunction="J5" end="10000" vehsPerHour="124.43037973126809"/>
  <flow id="JF34837" begin="0" fromJunction="J6" toJunction="J7" end="10000" vehsPerHour="257.41439144578214"/>
  <flow id="JF34838" begin="0" fromJunction="J6" toJunction="J4" end="10000" vehsPerHour="36.50217467715283"/>
  <flow id="JF34839" begin="0" fromJunction="J6" toJunction="J5" end="10000" vehsPerHour="151.6310569822402"/>
  <flow id="JF34840" begin="0" fromJunction="J4" toJunction="J7" end="10000" vehsPerHour="21.559376068358873"/>
  <flow id="JF34841" begin="0" fromJunction="J4" toJunction="J6" end="10000" vehsPerHour="82.99950949819583"/>
  <flow id="JF34842" begin="0" fromJunction="J4" toJunction="J5" end="10000" vehsPerHour="51.8405458000297"/>
  <flow id="JF34843" begin="0" fromJunction="J5" toJunction="J7" end="10000" vehsPerHour="163.68220918375795"/>
  <flow id="JF34844" begin="0" fromJunction="J5" toJunction="J6" end="10000" vehsPerHour="81.72952754833558"/>
  <flow id="JF34845" begin="0" fromJunction="J5" toJunction="J4" end="10000" vehsPerHour="72.73008517654235"/>
  <flow id="JF34846" begin="0" fromJunction="J7" toJunction="J0" end="10000" vehsPerHour="67.76045488570026"/>
  <flow id="JF34847" begin="0" fromJunction="J7" toJunction="J3" end="10000" vehsPerHour="41.38244107759361"/>
  <flow id="JF34848" begin="0" fromJunction="J6" toJunction="J0" end="10000" vehsPerHour="18.897609108460493"/>
  <flow id="JF34849" begin="0" fromJunction="J6" toJunction="J3" end="10000" vehsPerHour="31.84509711696387"/>
  <flow id="JF34850" begin="0" fromJunction="J4" toJunction="J0" end="10000" vehsPerHour="18.095693377963855"/>
  <flow id="JF34851" begin="0" fromJunction="J4" toJunction="J3" end="10000" vehsPerHour="20.4258951640158"/>
  <flow id="JF34852" begin="0" fromJunction="J5" toJunction="J0" end="10000" vehsPerHour="34.22707968919781"/>
  <flow id="JF34853" begin="0" fromJunction="J5" toJunction="J3" end="10000" vehsPerHour="2.9105779104939002"/>
</routes>