<?xml version="1.0" encoding="UTF-8"?>
<routes xmlns:xsi="http://www.w3.org/2001/XMLSchema-instance" xsi:noNamespaceSchemaLocation="http://sumo.dlr.de/xsd/routes_file.xsd">
  <flow id="JF34944" begin="0" fromJunction="J0" toJunction="J3" end="10000" vehsPerHour="1135.312260958258"/>
  <flow id="JF34945" begin="0" fromJunction="J3" toJunction="J0" end="10000" vehsPerHour="269.8420245289295"/>
  <flow id="JF34946" begin="0" fromJunction="J0" toJunction="J7" end="10000" vehsPerHour="49.41175545681836"/>
  <flow id="JF34947" begin="0" fromJunction="J0" toJunction="J6" end="10000" vehsPerHour="31.25857885018473"/>
  <flow id="JF34948" begin="0" fromJunction="J0" toJunction="J4" end="10000" vehsPerHour="40.89406643861587"/>
  <flow id="JF34949" begin="0" fromJunction="J0" toJunction="J5" end="10000" vehsPerHour="93.51284165080686"/>
  <flow id="JF34950" begin="0" fromJunction="J3" toJunction="J7" end="10000" vehsPerHour="81.301169543888"/>
  <flow id="JF34951" begin="0" fromJunction="J3" toJunction="J6" end="10000" vehsPerHour="30.980189137177195"/>
  <flow id="JF34952" begin="0" fromJunction="J3" toJunction="J4" end="10000" vehsPerHour="7.863038356060697"/>
  <flow id="JF34953" begin="0" fromJunction="J3" toJunction="J5" end="10000" vehsPerHour="90.01470497523042"/>
  <flow id="JF34954" begin="0" fromJunction="J7" toJunction="J6" end="10000" vehsPerHour="63.64889122178862"/>
  <flow id="JF34955" begin="0" fromJunction="J7" toJunction="J4" end="10000" vehsPerHour="195.62434490243137"/>
  <flow id="JF34956" begin="0" fromJunction="J7" toJunction="J5" end="10000" vehsPerHour="142.70410933831812"/>
  <flow id="JF34957" begin="0" fromJunction="J6" toJunction="J7" end="10000" vehsPerHour="128.27326646579212"/>
  <flow id="JF34958" begin="0" fromJunction="J6" toJunction="J4" end="10000" vehsPerHour="37.871804577920294"/>
  <flow id="JF34959" begin="0" fromJunction="J6" toJunction="J5" end="10000" vehsPerHour="246.85592600118738"/>
  <flow id="JF34960" begin="0" fromJunction="J4" toJunction="J7" end="10000" vehsPerHour="106.00286321084418"/>
  <flow id="JF34961" begin="0" fromJunction="J4" toJunction="J6" end="10000" vehsPerHour="51.5002331957992"/>
  <flow id="JF34962" begin="0" fromJunction="J4" toJunction="J5" end="10000" vehsPerHour="133.98235844892108"/>
  <flow id="JF34963" begin="0" fromJunction="J5" toJunction="J7" end="10000" vehsPerHour="231.65213589191447"/>
  <flow id="JF34964" begin="0" fromJunction="J5" toJunction="J6" end="10000" vehsPerHour="192.95837372074885"/>
  <flow id="JF34965" begin="0" fromJunction="J5" toJunction="J4" end="10000" vehsPerHour="152.73812475348262"/>
  <flow id="JF34966" begin="0" fromJunction="J7" toJunction="J0" end="10000" vehsPerHour="26.22006138431865"/>
  <flow id="JF34967" begin="0" fromJunction="J7" toJunction="J3" end="10000" vehsPerHour="37.21711543400337"/>
  <flow id="JF34968" begin="0" fromJunction="J6" toJunction="J0" end="10000" vehsPerHour="54.731949491131765"/>
  <flow id="JF34969" begin="0" fromJunction="J6" toJunction="J3" end="10000" vehsPerHour="10.220052956163642"/>
  <flow id="JF34970" begin="0" fromJunction="J4" toJunction="J0" end="10000" vehsPerHour="27.655384012716905"/>
  <flow id="JF34971" begin="0" fromJunction="J4" toJunction="J3" end="10000" vehsPerHour="37.62344908457346"/>
  <flow id="JF34972" begin="0" fromJunction="J5" toJunction="J0" end="10000" vehsPerHour="22.13014013339131"/>
  <flow id="JF34973" begin="0" fromJunction="J5" toJunction="J3" end="10000" vehsPerHour="44.654830605803596"/>
</routes>