<?xml version="1.0" encoding="UTF-8"?>
<routes xmlns:xsi="http://www.w3.org/2001/XMLSchema-instance" xsi:noNamespaceSchemaLocation="http://sumo.dlr.de/xsd/routes_file.xsd">
  <flow id="JF35064" begin="0" fromJunction="J0" toJunction="J3" end="10000" vehsPerHour="481.6944920899637"/>
  <flow id="JF35065" begin="0" fromJunction="J3" toJunction="J0" end="10000" vehsPerHour="673.2947198964694"/>
  <flow id="JF35066" begin="0" fromJunction="J0" toJunction="J7" end="10000" vehsPerHour="75.64177368659846"/>
  <flow id="JF35067" begin="0" fromJunction="J0" toJunction="J6" end="10000" vehsPerHour="91.13258293192094"/>
  <flow id="JF35068" begin="0" fromJunction="J0" toJunction="J4" end="10000" vehsPerHour="58.725093917721594"/>
  <flow id="JF35069" begin="0" fromJunction="J0" toJunction="J5" end="10000" vehsPerHour="74.39985505976261"/>
  <flow id="JF35070" begin="0" fromJunction="J3" toJunction="J7" end="10000" vehsPerHour="75.98009855405718"/>
  <flow id="JF35071" begin="0" fromJunction="J3" toJunction="J6" end="10000" vehsPerHour="46.532295857927814"/>
  <flow id="JF35072" begin="0" fromJunction="J3" toJunction="J4" end="10000" vehsPerHour="12.255903524446389"/>
  <flow id="JF35073" begin="0" fromJunction="J3" toJunction="J5" end="10000" vehsPerHour="73.74222243018734"/>
  <flow id="JF35074" begin="0" fromJunction="J7" toJunction="J6" end="10000" vehsPerHour="246.3670736751535"/>
  <flow id="JF35075" begin="0" fromJunction="J7" toJunction="J4" end="10000" vehsPerHour="216.0485930587778"/>
  <flow id="JF35076" begin="0" fromJunction="J7" toJunction="J5" end="10000" vehsPerHour="260.127503715865"/>
  <flow id="JF35077" begin="0" fromJunction="J6" toJunction="J7" end="10000" vehsPerHour="5.254970777845789"/>
  <flow id="JF35078" begin="0" fromJunction="J6" toJunction="J4" end="10000" vehsPerHour="83.35873810061001"/>
  <flow id="JF35079" begin="0" fromJunction="J6" toJunction="J5" end="10000" vehsPerHour="221.25208796277408"/>
  <flow id="JF35080" begin="0" fromJunction="J4" toJunction="J7" end="10000" vehsPerHour="106.84165398287399"/>
  <flow id="JF35081" begin="0" fromJunction="J4" toJunction="J6" end="10000" vehsPerHour="117.16937322711844"/>
  <flow id="JF35082" begin="0" fromJunction="J4" toJunction="J5" end="10000" vehsPerHour="37.67598968963024"/>
  <flow id="JF35083" begin="0" fromJunction="J5" toJunction="J7" end="10000" vehsPerHour="184.9853016272096"/>
  <flow id="JF35084" begin="0" fromJunction="J5" toJunction="J6" end="10000" vehsPerHour="73.39660965057807"/>
  <flow id="JF35085" begin="0" fromJunction="J5" toJunction="J4" end="10000" vehsPerHour="226.3125999784267"/>
  <flow id="JF35086" begin="0" fromJunction="J7" toJunction="J0" end="10000" vehsPerHour="59.91645703980784"/>
  <flow id="JF35087" begin="0" fromJunction="J7" toJunction="J3" end="10000" vehsPerHour="52.86788209126141"/>
  <flow id="JF35088" begin="0" fromJunction="J6" toJunction="J0" end="10000" vehsPerHour="22.37470850162535"/>
  <flow id="JF35089" begin="0" fromJunction="J6" toJunction="J3" end="10000" vehsPerHour="56.70421888087728"/>
  <flow id="JF35090" begin="0" fromJunction="J4" toJunction="J0" end="10000" vehsPerHour="16.447880058030698"/>
  <flow id="JF35091" begin="0" fromJunction="J4" toJunction="J3" end="10000" vehsPerHour="32.54170639882794"/>
  <flow id="JF35092" begin="0" fromJunction="J5" toJunction="J0" end="10000" vehsPerHour="16.0030031370248"/>
  <flow id="JF35093" begin="0" fromJunction="J5" toJunction="J3" end="10000" vehsPerHour="66.90789050418995"/>
</routes>