<?xml version="1.0" encoding="UTF-8"?>
<routes xmlns:xsi="http://www.w3.org/2001/XMLSchema-instance" xsi:noNamespaceSchemaLocation="http://sumo.dlr.de/xsd/routes_file.xsd">
  <flow id="JF34914" begin="0" fromJunction="J0" toJunction="J3" end="10000" vehsPerHour="841.0282464925793"/>
  <flow id="JF34915" begin="0" fromJunction="J3" toJunction="J0" end="10000" vehsPerHour="970.5727788106318"/>
  <flow id="JF34916" begin="0" fromJunction="J0" toJunction="J7" end="10000" vehsPerHour="106.01399682794413"/>
  <flow id="JF34917" begin="0" fromJunction="J0" toJunction="J6" end="10000" vehsPerHour="90.20357880776503"/>
  <flow id="JF34918" begin="0" fromJunction="J0" toJunction="J4" end="10000" vehsPerHour="107.2640960935752"/>
  <flow id="JF34919" begin="0" fromJunction="J0" toJunction="J5" end="10000" vehsPerHour="97.54596643501604"/>
  <flow id="JF34920" begin="0" fromJunction="J3" toJunction="J7" end="10000" vehsPerHour="11.944031194645937"/>
  <flow id="JF34921" begin="0" fromJunction="J3" toJunction="J6" end="10000" vehsPerHour="81.55098423323808"/>
  <flow id="JF34922" begin="0" fromJunction="J3" toJunction="J4" end="10000" vehsPerHour="35.27452300752383"/>
  <flow id="JF34923" begin="0" fromJunction="J3" toJunction="J5" end="10000" vehsPerHour="64.16030757673542"/>
  <flow id="JF34924" begin="0" fromJunction="J7" toJunction="J6" end="10000" vehsPerHour="168.73780896508956"/>
  <flow id="JF34925" begin="0" fromJunction="J7" toJunction="J4" end="10000" vehsPerHour="126.6279398328916"/>
  <flow id="JF34926" begin="0" fromJunction="J7" toJunction="J5" end="10000" vehsPerHour="215.48223166961418"/>
  <flow id="JF34927" begin="0" fromJunction="J6" toJunction="J7" end="10000" vehsPerHour="236.85614957382236"/>
  <flow id="JF34928" begin="0" fromJunction="J6" toJunction="J4" end="10000" vehsPerHour="131.15251739686303"/>
  <flow id="JF34929" begin="0" fromJunction="J6" toJunction="J5" end="10000" vehsPerHour="162.13044818172932"/>
  <flow id="JF34930" begin="0" fromJunction="J4" toJunction="J7" end="10000" vehsPerHour="227.88321149784798"/>
  <flow id="JF34931" begin="0" fromJunction="J4" toJunction="J6" end="10000" vehsPerHour="53.339310219511866"/>
  <flow id="JF34932" begin="0" fromJunction="J4" toJunction="J5" end="10000" vehsPerHour="241.6041811629189"/>
  <flow id="JF34933" begin="0" fromJunction="J5" toJunction="J7" end="10000" vehsPerHour="9.07411128707"/>
  <flow id="JF34934" begin="0" fromJunction="J5" toJunction="J6" end="10000" vehsPerHour="38.29255749313882"/>
  <flow id="JF34935" begin="0" fromJunction="J5" toJunction="J4" end="10000" vehsPerHour="162.64801394924956"/>
  <flow id="JF34936" begin="0" fromJunction="J7" toJunction="J0" end="10000" vehsPerHour="34.50836482820353"/>
  <flow id="JF34937" begin="0" fromJunction="J7" toJunction="J3" end="10000" vehsPerHour="25.853095173679495"/>
  <flow id="JF34938" begin="0" fromJunction="J6" toJunction="J0" end="10000" vehsPerHour="8.412425022401244"/>
  <flow id="JF34939" begin="0" fromJunction="J6" toJunction="J3" end="10000" vehsPerHour="36.70936490855361"/>
  <flow id="JF34940" begin="0" fromJunction="J4" toJunction="J0" end="10000" vehsPerHour="65.45413994133744"/>
  <flow id="JF34941" begin="0" fromJunction="J4" toJunction="J3" end="10000" vehsPerHour="51.63725144284017"/>
  <flow id="JF34942" begin="0" fromJunction="J5" toJunction="J0" end="10000" vehsPerHour="6.260875571406468"/>
  <flow id="JF34943" begin="0" fromJunction="J5" toJunction="J3" end="10000" vehsPerHour="62.93962198132281"/>
</routes>