<?xml version="1.0" encoding="UTF-8"?>
<routes xmlns:xsi="http://www.w3.org/2001/XMLSchema-instance" xsi:noNamespaceSchemaLocation="http://sumo.dlr.de/xsd/routes_file.xsd">
  <flow id="JF34854" begin="0" fromJunction="J0" toJunction="J3" end="10000" vehsPerHour="985.6542571286041"/>
  <flow id="JF34855" begin="0" fromJunction="J3" toJunction="J0" end="10000" vehsPerHour="205.5893850280816"/>
  <flow id="JF34856" begin="0" fromJunction="J0" toJunction="J7" end="10000" vehsPerHour="134.63722900161187"/>
  <flow id="JF34857" begin="0" fromJunction="J0" toJunction="J6" end="10000" vehsPerHour="127.93883159953323"/>
  <flow id="JF34858" begin="0" fromJunction="J0" toJunction="J4" end="10000" vehsPerHour="102.22473339143154"/>
  <flow id="JF34859" begin="0" fromJunction="J0" toJunction="J5" end="10000" vehsPerHour="15.887103016545812"/>
  <flow id="JF34860" begin="0" fromJunction="J3" toJunction="J7" end="10000" vehsPerHour="77.35102802973384"/>
  <flow id="JF34861" begin="0" fromJunction="J3" toJunction="J6" end="10000" vehsPerHour="23.53507183418532"/>
  <flow id="JF34862" begin="0" fromJunction="J3" toJunction="J4" end="10000" vehsPerHour="27.086380580125404"/>
  <flow id="JF34863" begin="0" fromJunction="J3" toJunction="J5" end="10000" vehsPerHour="91.12945895613271"/>
  <flow id="JF34864" begin="0" fromJunction="J7" toJunction="J6" end="10000" vehsPerHour="232.22730321508445"/>
  <flow id="JF34865" begin="0" fromJunction="J7" toJunction="J4" end="10000" vehsPerHour="223.45661147512274"/>
  <flow id="JF34866" begin="0" fromJunction="J7" toJunction="J5" end="10000" vehsPerHour="202.8611895144501"/>
  <flow id="JF34867" begin="0" fromJunction="J6" toJunction="J7" end="10000" vehsPerHour="160.14861771459772"/>
  <flow id="JF34868" begin="0" fromJunction="J6" toJunction="J4" end="10000" vehsPerHour="48.79065746895044"/>
  <flow id="JF34869" begin="0" fromJunction="J6" toJunction="J5" end="10000" vehsPerHour="53.87746694182275"/>
  <flow id="JF34870" begin="0" fromJunction="J4" toJunction="J7" end="10000" vehsPerHour="247.74545308197156"/>
  <flow id="JF34871" begin="0" fromJunction="J4" toJunction="J6" end="10000" vehsPerHour="257.6407076240538"/>
  <flow id="JF34872" begin="0" fromJunction="J4" toJunction="J5" end="10000" vehsPerHour="96.8714581033814"/>
  <flow id="JF34873" begin="0" fromJunction="J5" toJunction="J7" end="10000" vehsPerHour="119.63950240466441"/>
  <flow id="JF34874" begin="0" fromJunction="J5" toJunction="J6" end="10000" vehsPerHour="79.95106296756265"/>
  <flow id="JF34875" begin="0" fromJunction="J5" toJunction="J4" end="10000" vehsPerHour="223.60789043797365"/>
  <flow id="JF34876" begin="0" fromJunction="J7" toJunction="J0" end="10000" vehsPerHour="26.15766162895419"/>
  <flow id="JF34877" begin="0" fromJunction="J7" toJunction="J3" end="10000" vehsPerHour="64.58672998036423"/>
  <flow id="JF34878" begin="0" fromJunction="J6" toJunction="J0" end="10000" vehsPerHour="54.39817484451212"/>
  <flow id="JF34879" begin="0" fromJunction="J6" toJunction="J3" end="10000" vehsPerHour="8.108261376063359"/>
  <flow id="JF34880" begin="0" fromJunction="J4" toJunction="J0" end="10000" vehsPerHour="37.93200732445192"/>
  <flow id="JF34881" begin="0" fromJunction="J4" toJunction="J3" end="10000" vehsPerHour="44.76749724388969"/>
  <flow id="JF34882" begin="0" fromJunction="J5" toJunction="J0" end="10000" vehsPerHour="60.6287994233134"/>
  <flow id="JF34883" begin="0" fromJunction="J5" toJunction="J3" end="10000" vehsPerHour="49.24124036496488"/>
</routes>