<?xml version="1.0" encoding="UTF-8"?>
<routes xmlns:xsi="http://www.w3.org/2001/XMLSchema-instance" xsi:noNamespaceSchemaLocation="http://sumo.dlr.de/xsd/routes_file.xsd">
  <flow id="JF136994" begin="0" fromJunction="J3" toJunction="J0" end="5000" vehsPerHour="281.7889011445745"/>
  <flow id="JF136995" begin="0" fromJunction="J0" toJunction="J3" end="5000" vehsPerHour="981.6665519498061"/>
  <flow id="JF136996" begin="0" fromJunction="J3" toJunction="J7" end="5000" vehsPerHour="83.96415027389303"/>
  <flow id="JF136997" begin="0" fromJunction="J3" toJunction="J6" end="5000" vehsPerHour="110.1221216482161"/>
  <flow id="JF136998" begin="0" fromJunction="J3" toJunction="J5" end="5000" vehsPerHour="113.81747391895713"/>
  <flow id="JF136999" begin="0" fromJunction="J3" toJunction="J4" end="5000" vehsPerHour="70.60639518186728"/>
  <flow id="JF137000" begin="0" fromJunction="J0" toJunction="J7" end="5000" vehsPerHour="3.080137064857122"/>
  <flow id="JF137001" begin="0" fromJunction="J0" toJunction="J6" end="5000" vehsPerHour="14.339141440340326"/>
  <flow id="JF137002" begin="0" fromJunction="J0" toJunction="J5" end="5000" vehsPerHour="43.783211334240384"/>
  <flow id="JF137003" begin="0" fromJunction="J0" toJunction="J4" end="5000" vehsPerHour="38.66229996766164"/>
  <flow id="JF137004" begin="0" fromJunction="J7" toJunction="J6" end="5000" vehsPerHour="250.2354556085156"/>
  <flow id="JF137005" begin="0" fromJunction="J7" toJunction="J5" end="5000" vehsPerHour="56.81097859150291"/>
  <flow id="JF137006" begin="0" fromJunction="J7" toJunction="J4" end="5000" vehsPerHour="13.573967064314672"/>
  <flow id="JF137007" begin="0" fromJunction="J6" toJunction="J7" end="5000" vehsPerHour="13.44542257561662"/>
  <flow id="JF137008" begin="0" fromJunction="J6" toJunction="J5" end="5000" vehsPerHour="198.69402360024748"/>
  <flow id="JF137009" begin="0" fromJunction="J6" toJunction="J4" end="5000" vehsPerHour="103.80617953127779"/>
  <flow id="JF137010" begin="0" fromJunction="J5" toJunction="J7" end="5000" vehsPerHour="119.82021498746131"/>
  <flow id="JF137011" begin="0" fromJunction="J5" toJunction="J6" end="5000" vehsPerHour="110.78408532327987"/>
  <flow id="JF137012" begin="0" fromJunction="J5" toJunction="J4" end="5000" vehsPerHour="84.63174460817817"/>
  <flow id="JF137013" begin="0" fromJunction="J4" toJunction="J7" end="5000" vehsPerHour="24.567473890611254"/>
  <flow id="JF137014" begin="0" fromJunction="J4" toJunction="J6" end="5000" vehsPerHour="72.14304979990357"/>
  <flow id="JF137015" begin="0" fromJunction="J4" toJunction="J5" end="5000" vehsPerHour="6.588467625228211"/>
  <flow id="JF137016" begin="0" fromJunction="J7" toJunction="J3" end="5000" vehsPerHour="18.55606076384681"/>
  <flow id="JF137017" begin="0" fromJunction="J7" toJunction="J0" end="5000" vehsPerHour="4.904084572182974"/>
  <flow id="JF137018" begin="0" fromJunction="J6" toJunction="J3" end="5000" vehsPerHour="35.14196723516115"/>
  <flow id="JF137019" begin="0" fromJunction="J6" toJunction="J0" end="5000" vehsPerHour="59.403824088753176"/>
  <flow id="JF137020" begin="0" fromJunction="J5" toJunction="J3" end="5000" vehsPerHour="19.21314320587477"/>
  <flow id="JF137021" begin="0" fromJunction="J5" toJunction="J0" end="5000" vehsPerHour="10.533658017688524"/>
  <flow id="JF137022" begin="0" fromJunction="J4" toJunction="J3" end="5000" vehsPerHour="51.292301145189676"/>
  <flow id="JF137023" begin="0" fromJunction="J4" toJunction="J0" end="5000" vehsPerHour="21.276850732031743"/>
  <flow id="JF137024" begin="5000" fromJunction="J0" toJunction="J5" end="5060" vehsPerHour="78.67137788715199"/>
  <flow id="JF137025" begin="5000" fromJunction="J0" toJunction="J6" end="5060" vehsPerHour="89.66756454902254"/>
  <flow id="JF137026" begin="5000" fromJunction="J3" toJunction="J0" end="5060" vehsPerHour="4.662917408796713"/>
  <flow id="JF137027" begin="5000" fromJunction="J3" toJunction="J4" end="5060" vehsPerHour="84.6474776932891"/>
  <flow id="JF137028" begin="5000" fromJunction="J3" toJunction="J5" end="5060" vehsPerHour="23.13096101639092"/>
  <flow id="JF137029" begin="5000" fromJunction="J3" toJunction="J6" end="5060" vehsPerHour="53.72342684888251"/>
  <flow id="JF137030" begin="5000" fromJunction="J3" toJunction="J7" end="5060" vehsPerHour="27.04944209045352"/>
  <flow id="JF137031" begin="5000" fromJunction="J4" toJunction="J0" end="5060" vehsPerHour="56.87049089535115"/>
  <flow id="JF137032" begin="5000" fromJunction="J4" toJunction="J3" end="5060" vehsPerHour="23.16803330687162"/>
  <flow id="JF137033" begin="5000" fromJunction="J4" toJunction="J6" end="5060" vehsPerHour="34.30601340101074"/>
  <flow id="JF137034" begin="5000" fromJunction="J5" toJunction="J0" end="5060" vehsPerHour="60.374148743085286"/>
  <flow id="JF137035" begin="5000" fromJunction="J5" toJunction="J3" end="5060" vehsPerHour="42.084083395612865"/>
  <flow id="JF137036" begin="5000" fromJunction="J5" toJunction="J4" end="5060" vehsPerHour="3.3298599325003253"/>
  <flow id="JF137037" begin="5000" fromJunction="J5" toJunction="J6" end="5060" vehsPerHour="28.693342765795"/>
  <flow id="JF137038" begin="5000" fromJunction="J5" toJunction="J7" end="5060" vehsPerHour="27.0824483274018"/>
  <flow id="JF137039" begin="5000" fromJunction="J6" toJunction="J3" end="5060" vehsPerHour="32.44233583320174"/>
  <flow id="JF137040" begin="5000" fromJunction="J6" toJunction="J5" end="5060" vehsPerHour="48.0640641153966"/>
  <flow id="JF137041" begin="5000" fromJunction="J6" toJunction="J7" end="5060" vehsPerHour="59.82132944240293"/>
  <flow id="JF137042" begin="5000" fromJunction="J7" toJunction="J3" end="5060" vehsPerHour="3.157214418689954"/>
  <flow id="JF137043" begin="5060" fromJunction="J0" toJunction="J3" end="5120" vehsPerHour="134.13781214036482"/>
  <flow id="JF137044" begin="5060" fromJunction="J0" toJunction="J5" end="5120" vehsPerHour="45.027016251127165"/>
  <flow id="JF137045" begin="5060" fromJunction="J0" toJunction="J6" end="5120" vehsPerHour="39.262460020334515"/>
  <flow id="JF137046" begin="5060" fromJunction="J0" toJunction="J7" end="5120" vehsPerHour="136.65781138400584"/>
  <flow id="JF137047" begin="5060" fromJunction="J3" toJunction="J6" end="5120" vehsPerHour="39.3411669649343"/>
  <flow id="JF137048" begin="5060" fromJunction="J3" toJunction="J7" end="5120" vehsPerHour="65.2629024899515"/>
  <flow id="JF137049" begin="5060" fromJunction="J4" toJunction="J0" end="5120" vehsPerHour="46.247473809837615"/>
  <flow id="JF137050" begin="5060" fromJunction="J4" toJunction="J5" end="5120" vehsPerHour="34.41043552472467"/>
  <flow id="JF137051" begin="5060" fromJunction="J4" toJunction="J7" end="5120" vehsPerHour="14.189560714612618"/>
  <flow id="JF137052" begin="5060" fromJunction="J5" toJunction="J3" end="5120" vehsPerHour="27.29201543742686"/>
  <flow id="JF137053" begin="5060" fromJunction="J5" toJunction="J4" end="5120" vehsPerHour="15.043746508877597"/>
  <flow id="JF137054" begin="5060" fromJunction="J5" toJunction="J6" end="5120" vehsPerHour="10.41448079520567"/>
  <flow id="JF137055" begin="5060" fromJunction="J6" toJunction="J0" end="5120" vehsPerHour="50.64973221437241"/>
  <flow id="JF137056" begin="5060" fromJunction="J6" toJunction="J4" end="5120" vehsPerHour="44.73361674221488"/>
  <flow id="JF137057" begin="5060" fromJunction="J7" toJunction="J0" end="5120" vehsPerHour="12.533848411150464"/>
  <flow id="JF137058" begin="5060" fromJunction="J7" toJunction="J3" end="5120" vehsPerHour="2.4991942115923638"/>
  <flow id="JF137059" begin="5060" fromJunction="J7" toJunction="J4" end="5120" vehsPerHour="68.56911812918419"/>
  <flow id="JF137060" begin="5060" fromJunction="J7" toJunction="J5" end="5120" vehsPerHour="57.607697390208195"/>
  <flow id="JF137061" begin="5060" fromJunction="J7" toJunction="J6" end="5120" vehsPerHour="18.359383708661525"/>
  <flow id="JF137062" begin="5120" fromJunction="J0" toJunction="J4" end="5180" vehsPerHour="44.14260750779365"/>
  <flow id="JF137063" begin="5120" fromJunction="J0" toJunction="J5" end="5180" vehsPerHour="67.90831718265731"/>
  <flow id="JF137064" begin="5120" fromJunction="J3" toJunction="J0" end="5180" vehsPerHour="1.1929319055879164"/>
  <flow id="JF137065" begin="5120" fromJunction="J3" toJunction="J4" end="5180" vehsPerHour="124.99677585305383"/>
  <flow id="JF137066" begin="5120" fromJunction="J3" toJunction="J6" end="5180" vehsPerHour="97.15687654399663"/>
  <flow id="JF137067" begin="5120" fromJunction="J3" toJunction="J7" end="5180" vehsPerHour="9.525379000792032"/>
  <flow id="JF137068" begin="5120" fromJunction="J4" toJunction="J0" end="5180" vehsPerHour="7.762349020240963"/>
  <flow id="JF137069" begin="5120" fromJunction="J4" toJunction="J3" end="5180" vehsPerHour="55.93187848439529"/>
  <flow id="JF137070" begin="5120" fromJunction="J4" toJunction="J5" end="5180" vehsPerHour="28.78921905533312"/>
  <flow id="JF137071" begin="5120" fromJunction="J4" toJunction="J6" end="5180" vehsPerHour="16.201049646289317"/>
  <flow id="JF137072" begin="5120" fromJunction="J4" toJunction="J7" end="5180" vehsPerHour="4.418239519053216"/>
  <flow id="JF137073" begin="5120" fromJunction="J5" toJunction="J0" end="5180" vehsPerHour="54.40300844007785"/>
  <flow id="JF137074" begin="5120" fromJunction="J5" toJunction="J3" end="5180" vehsPerHour="63.67670832250329"/>
  <flow id="JF137075" begin="5120" fromJunction="J5" toJunction="J4" end="5180" vehsPerHour="26.525012656170293"/>
  <flow id="JF137076" begin="5120" fromJunction="J5" toJunction="J6" end="5180" vehsPerHour="54.41313057667325"/>
  <flow id="JF137077" begin="5120" fromJunction="J5" toJunction="J7" end="5180" vehsPerHour="61.993838839696856"/>
  <flow id="JF137078" begin="5120" fromJunction="J6" toJunction="J0" end="5180" vehsPerHour="38.66683401235504"/>
  <flow id="JF137079" begin="5120" fromJunction="J6" toJunction="J7" end="5180" vehsPerHour="62.56664188375058"/>
  <flow id="JF137080" begin="5120" fromJunction="J7" toJunction="J3" end="5180" vehsPerHour="46.11535614715952"/>
  <flow id="JF137081" begin="5180" fromJunction="J0" toJunction="J4" end="5240" vehsPerHour="95.52530419209158"/>
  <flow id="JF137082" begin="5180" fromJunction="J0" toJunction="J7" end="5240" vehsPerHour="30.883207037193625"/>
  <flow id="JF137083" begin="5180" fromJunction="J3" toJunction="J0" end="5240" vehsPerHour="76.14861125408345"/>
  <flow id="JF137084" begin="5180" fromJunction="J3" toJunction="J4" end="5240" vehsPerHour="116.55736537808002"/>
  <flow id="JF137085" begin="5180" fromJunction="J3" toJunction="J5" end="5240" vehsPerHour="11.762970555927414"/>
  <flow id="JF137086" begin="5180" fromJunction="J3" toJunction="J6" end="5240" vehsPerHour="64.49609315776821"/>
  <flow id="JF137087" begin="5180" fromJunction="J4" toJunction="J0" end="5240" vehsPerHour="55.00542531372251"/>
  <flow id="JF137088" begin="5180" fromJunction="J4" toJunction="J3" end="5240" vehsPerHour="35.770817017657166"/>
  <flow id="JF137089" begin="5180" fromJunction="J4" toJunction="J5" end="5240" vehsPerHour="63.59556279083563"/>
  <flow id="JF137090" begin="5180" fromJunction="J4" toJunction="J6" end="5240" vehsPerHour="8.967737453255664"/>
  <flow id="JF137091" begin="5180" fromJunction="J5" toJunction="J3" end="5240" vehsPerHour="13.964680695919437"/>
  <flow id="JF137092" begin="5180" fromJunction="J5" toJunction="J4" end="5240" vehsPerHour="7.943650156178639"/>
  <flow id="JF137093" begin="5180" fromJunction="J5" toJunction="J7" end="5240" vehsPerHour="66.9487091820396"/>
  <flow id="JF137094" begin="5180" fromJunction="J6" toJunction="J0" end="5240" vehsPerHour="22.582253514175566"/>
  <flow id="JF137095" begin="5180" fromJunction="J6" toJunction="J3" end="5240" vehsPerHour="48.752324829251336"/>
  <flow id="JF137096" begin="5180" fromJunction="J6" toJunction="J4" end="5240" vehsPerHour="61.08466526974844"/>
  <flow id="JF137097" begin="5180" fromJunction="J6" toJunction="J5" end="5240" vehsPerHour="32.58489650949384"/>
  <flow id="JF137098" begin="5180" fromJunction="J6" toJunction="J7" end="5240" vehsPerHour="31.785277252594764"/>
  <flow id="JF137099" begin="5180" fromJunction="J7" toJunction="J0" end="5240" vehsPerHour="62.77839196395136"/>
  <flow id="JF137100" begin="5180" fromJunction="J7" toJunction="J4" end="5240" vehsPerHour="16.37868134467529"/>
  <flow id="JF137101" begin="5180" fromJunction="J7" toJunction="J5" end="5240" vehsPerHour="58.52978971757118"/>
  <flow id="JF137102" begin="5180" fromJunction="J7" toJunction="J6" end="5240" vehsPerHour="51.804484597070115"/>
  <flow id="JF137103" begin="5240" fromJunction="J0" toJunction="J3" end="5300" vehsPerHour="91.52857251829508"/>
  <flow id="JF137104" begin="5240" fromJunction="J0" toJunction="J4" end="5300" vehsPerHour="58.423130293615316"/>
  <flow id="JF137105" begin="5240" fromJunction="J0" toJunction="J5" end="5300" vehsPerHour="38.71828455999173"/>
  <flow id="JF137106" begin="5240" fromJunction="J0" toJunction="J6" end="5300" vehsPerHour="39.85927560781647"/>
  <flow id="JF137107" begin="5240" fromJunction="J3" toJunction="J0" end="5300" vehsPerHour="94.96749789545862"/>
  <flow id="JF137108" begin="5240" fromJunction="J3" toJunction="J4" end="5300" vehsPerHour="57.32220957881568"/>
  <flow id="JF137109" begin="5240" fromJunction="J3" toJunction="J5" end="5300" vehsPerHour="65.7437964090376"/>
  <flow id="JF137110" begin="5240" fromJunction="J3" toJunction="J7" end="5300" vehsPerHour="64.27610279198824"/>
  <flow id="JF137111" begin="5240" fromJunction="J4" toJunction="J0" end="5300" vehsPerHour="1.9915783581573008"/>
  <flow id="JF137112" begin="5240" fromJunction="J4" toJunction="J5" end="5300" vehsPerHour="17.521170470637387"/>
  <flow id="JF137113" begin="5240" fromJunction="J4" toJunction="J7" end="5300" vehsPerHour="31.447197468275913"/>
  <flow id="JF137114" begin="5240" fromJunction="J5" toJunction="J0" end="5300" vehsPerHour="36.361313781830184"/>
  <flow id="JF137115" begin="5240" fromJunction="J5" toJunction="J3" end="5300" vehsPerHour="36.41238553028732"/>
  <flow id="JF137116" begin="5240" fromJunction="J5" toJunction="J6" end="5300" vehsPerHour="50.73602371133912"/>
  <flow id="JF137117" begin="5240" fromJunction="J6" toJunction="J3" end="5300" vehsPerHour="15.406669455166796"/>
  <flow id="JF137118" begin="5240" fromJunction="J6" toJunction="J7" end="5300" vehsPerHour="57.37241761242592"/>
  <flow id="JF137119" begin="5240" fromJunction="J7" toJunction="J0" end="5300" vehsPerHour="1.0140295108315427"/>
  <flow id="JF137120" begin="5240" fromJunction="J7" toJunction="J4" end="5300" vehsPerHour="14.788312233799942"/>
  <flow id="JF137121" begin="5240" fromJunction="J7" toJunction="J6" end="5300" vehsPerHour="57.666670063318996"/>
  <flow id="JF137122" begin="5300" fromJunction="J0" toJunction="J3" end="5360" vehsPerHour="15.214566628711781"/>
  <flow id="JF137123" begin="5300" fromJunction="J0" toJunction="J4" end="5360" vehsPerHour="82.58253451657984"/>
  <flow id="JF137124" begin="5300" fromJunction="J0" toJunction="J5" end="5360" vehsPerHour="7.932181379631096"/>
  <flow id="JF137125" begin="5300" fromJunction="J0" toJunction="J7" end="5360" vehsPerHour="26.20527748279731"/>
  <flow id="JF137126" begin="5300" fromJunction="J3" toJunction="J0" end="5360" vehsPerHour="89.87177106717826"/>
  <flow id="JF137127" begin="5300" fromJunction="J3" toJunction="J4" end="5360" vehsPerHour="128.66323397384235"/>
  <flow id="JF137128" begin="5300" fromJunction="J3" toJunction="J5" end="5360" vehsPerHour="109.30165994822383"/>
  <flow id="JF137129" begin="5300" fromJunction="J3" toJunction="J6" end="5360" vehsPerHour="36.35839701579891"/>
  <flow id="JF137130" begin="5300" fromJunction="J3" toJunction="J7" end="5360" vehsPerHour="119.43723998882912"/>
  <flow id="JF137131" begin="5300" fromJunction="J4" toJunction="J0" end="5360" vehsPerHour="3.3771237958765172"/>
  <flow id="JF137132" begin="5300" fromJunction="J5" toJunction="J0" end="5360" vehsPerHour="4.050331000211742"/>
  <flow id="JF137133" begin="5300" fromJunction="J5" toJunction="J4" end="5360" vehsPerHour="39.18923499104423"/>
  <flow id="JF137134" begin="5300" fromJunction="J5" toJunction="J6" end="5360" vehsPerHour="31.05443345897322"/>
  <flow id="JF137135" begin="5300" fromJunction="J5" toJunction="J7" end="5360" vehsPerHour="47.47074641396612"/>
  <flow id="JF137136" begin="5300" fromJunction="J6" toJunction="J0" end="5360" vehsPerHour="53.25095979729722"/>
  <flow id="JF137137" begin="5300" fromJunction="J7" toJunction="J4" end="5360" vehsPerHour="43.82579461828253"/>
  <flow id="JF137138" begin="5300" fromJunction="J7" toJunction="J5" end="5360" vehsPerHour="51.80342363898635"/>
  <flow id="JF137139" begin="5300" fromJunction="J7" toJunction="J6" end="5360" vehsPerHour="0.13128053898781875"/>
  <flow id="JF137140" begin="5360" fromJunction="J0" toJunction="J4" end="5420" vehsPerHour="49.084696425554334"/>
  <flow id="JF137141" begin="5360" fromJunction="J0" toJunction="J5" end="5420" vehsPerHour="59.80771393216634"/>
  <flow id="JF137142" begin="5360" fromJunction="J0" toJunction="J6" end="5420" vehsPerHour="84.91129001626791"/>
  <flow id="JF137143" begin="5360" fromJunction="J0" toJunction="J7" end="5420" vehsPerHour="21.868199393461136"/>
  <flow id="JF137144" begin="5360" fromJunction="J3" toJunction="J0" end="5420" vehsPerHour="125.32323424237629"/>
  <flow id="JF137145" begin="5360" fromJunction="J3" toJunction="J4" end="5420" vehsPerHour="81.54900697944171"/>
  <flow id="JF137146" begin="5360" fromJunction="J3" toJunction="J5" end="5420" vehsPerHour="4.715594698797528"/>
  <flow id="JF137147" begin="5360" fromJunction="J3" toJunction="J7" end="5420" vehsPerHour="41.31733143056599"/>
  <flow id="JF137148" begin="5360" fromJunction="J4" toJunction="J0" end="5420" vehsPerHour="54.42234001614134"/>
  <flow id="JF137149" begin="5360" fromJunction="J4" toJunction="J5" end="5420" vehsPerHour="7.565324099290884"/>
  <flow id="JF137150" begin="5360" fromJunction="J4" toJunction="J7" end="5420" vehsPerHour="23.23934762671067"/>
  <flow id="JF137151" begin="5360" fromJunction="J5" toJunction="J0" end="5420" vehsPerHour="12.457103726889288"/>
  <flow id="JF137152" begin="5360" fromJunction="J5" toJunction="J3" end="5420" vehsPerHour="54.98615178068917"/>
  <flow id="JF137153" begin="5360" fromJunction="J5" toJunction="J6" end="5420" vehsPerHour="14.139630753418684"/>
  <flow id="JF137154" begin="5360" fromJunction="J5" toJunction="J7" end="5420" vehsPerHour="20.924712834152235"/>
  <flow id="JF137155" begin="5360" fromJunction="J6" toJunction="J0" end="5420" vehsPerHour="34.76151030423382"/>
  <flow id="JF137156" begin="5360" fromJunction="J6" toJunction="J3" end="5420" vehsPerHour="44.431265399005724"/>
  <flow id="JF137157" begin="5360" fromJunction="J6" toJunction="J4" end="5420" vehsPerHour="45.69932669946467"/>
  <flow id="JF137158" begin="5360" fromJunction="J6" toJunction="J5" end="5420" vehsPerHour="10.678278683958913"/>
  <flow id="JF137159" begin="5360" fromJunction="J6" toJunction="J7" end="5420" vehsPerHour="62.004585719432455"/>
  <flow id="JF137160" begin="5360" fromJunction="J7" toJunction="J0" end="5420" vehsPerHour="20.523255577085028"/>
  <flow id="JF137161" begin="5360" fromJunction="J7" toJunction="J3" end="5420" vehsPerHour="8.845203650934106"/>
  <flow id="JF137162" begin="5360" fromJunction="J7" toJunction="J4" end="5420" vehsPerHour="28.367706367452673"/>
  <flow id="JF137163" begin="5360" fromJunction="J7" toJunction="J5" end="5420" vehsPerHour="29.405595125837024"/>
  <flow id="JF137164" begin="5420" fromJunction="J0" toJunction="J3" end="5480" vehsPerHour="105.27216141847407"/>
  <flow id="JF137165" begin="5420" fromJunction="J0" toJunction="J4" end="5480" vehsPerHour="96.20686582137853"/>
  <flow id="JF137166" begin="5420" fromJunction="J0" toJunction="J5" end="5480" vehsPerHour="132.20112523228775"/>
  <flow id="JF137167" begin="5420" fromJunction="J0" toJunction="J6" end="5480" vehsPerHour="94.32472006725905"/>
  <flow id="JF137168" begin="5420" fromJunction="J0" toJunction="J7" end="5480" vehsPerHour="49.06906994766491"/>
  <flow id="JF137169" begin="5420" fromJunction="J3" toJunction="J0" end="5480" vehsPerHour="101.6132173908988"/>
  <flow id="JF137170" begin="5420" fromJunction="J3" toJunction="J4" end="5480" vehsPerHour="22.406041377443135"/>
  <flow id="JF137171" begin="5420" fromJunction="J3" toJunction="J5" end="5480" vehsPerHour="19.418214918375735"/>
  <flow id="JF137172" begin="5420" fromJunction="J3" toJunction="J6" end="5480" vehsPerHour="20.03069730982477"/>
  <flow id="JF137173" begin="5420" fromJunction="J3" toJunction="J7" end="5480" vehsPerHour="48.01420027727395"/>
  <flow id="JF137174" begin="5420" fromJunction="J4" toJunction="J0" end="5480" vehsPerHour="61.934536239041165"/>
  <flow id="JF137175" begin="5420" fromJunction="J4" toJunction="J5" end="5480" vehsPerHour="63.1858364685611"/>
  <flow id="JF137176" begin="5420" fromJunction="J4" toJunction="J6" end="5480" vehsPerHour="67.42496430245905"/>
  <flow id="JF137177" begin="5420" fromJunction="J4" toJunction="J7" end="5480" vehsPerHour="16.27282057108485"/>
  <flow id="JF137178" begin="5420" fromJunction="J5" toJunction="J0" end="5480" vehsPerHour="67.92213865609615"/>
  <flow id="JF137179" begin="5420" fromJunction="J5" toJunction="J3" end="5480" vehsPerHour="15.178400628864917"/>
  <flow id="JF137180" begin="5420" fromJunction="J5" toJunction="J4" end="5480" vehsPerHour="17.945040643476922"/>
  <flow id="JF137181" begin="5420" fromJunction="J5" toJunction="J6" end="5480" vehsPerHour="64.62451241013302"/>
  <flow id="JF137182" begin="5420" fromJunction="J5" toJunction="J7" end="5480" vehsPerHour="4.39644022112945"/>
  <flow id="JF137183" begin="5420" fromJunction="J6" toJunction="J3" end="5480" vehsPerHour="42.00800827499788"/>
  <flow id="JF137184" begin="5420" fromJunction="J6" toJunction="J4" end="5480" vehsPerHour="19.744827667571478"/>
  <flow id="JF137185" begin="5420" fromJunction="J6" toJunction="J5" end="5480" vehsPerHour="35.38473446556733"/>
  <flow id="JF137186" begin="5420" fromJunction="J6" toJunction="J7" end="5480" vehsPerHour="23.142668413015773"/>
  <flow id="JF137187" begin="5420" fromJunction="J7" toJunction="J3" end="5480" vehsPerHour="9.641640615856607"/>
  <flow id="JF137188" begin="5420" fromJunction="J7" toJunction="J4" end="5480" vehsPerHour="54.993633698534644"/>
  <flow id="JF137189" begin="5420" fromJunction="J7" toJunction="J5" end="5480" vehsPerHour="7.0300924169251555"/>
  <flow id="JF137190" begin="5420" fromJunction="J7" toJunction="J6" end="5480" vehsPerHour="43.41817883738914"/>
  <flow id="JF137191" begin="5480" fromJunction="J0" toJunction="J3" end="5540" vehsPerHour="114.449051846934"/>
  <flow id="JF137192" begin="5480" fromJunction="J0" toJunction="J4" end="5540" vehsPerHour="15.902636433219996"/>
  <flow id="JF137193" begin="5480" fromJunction="J0" toJunction="J7" end="5540" vehsPerHour="94.55201643358468"/>
  <flow id="JF137194" begin="5480" fromJunction="J3" toJunction="J0" end="5540" vehsPerHour="10.134387149897814"/>
  <flow id="JF137195" begin="5480" fromJunction="J3" toJunction="J4" end="5540" vehsPerHour="19.258073402081287"/>
  <flow id="JF137196" begin="5480" fromJunction="J4" toJunction="J3" end="5540" vehsPerHour="10.06714525585005"/>
  <flow id="JF137197" begin="5480" fromJunction="J4" toJunction="J5" end="5540" vehsPerHour="56.51052053305631"/>
  <flow id="JF137198" begin="5480" fromJunction="J4" toJunction="J7" end="5540" vehsPerHour="58.982918493495475"/>
  <flow id="JF137199" begin="5480" fromJunction="J5" toJunction="J0" end="5540" vehsPerHour="21.138963523122836"/>
  <flow id="JF137200" begin="5480" fromJunction="J5" toJunction="J4" end="5540" vehsPerHour="14.656497911115185"/>
  <flow id="JF137201" begin="5480" fromJunction="J6" toJunction="J0" end="5540" vehsPerHour="67.81299686396333"/>
  <flow id="JF137202" begin="5480" fromJunction="J6" toJunction="J3" end="5540" vehsPerHour="23.373268263665402"/>
  <flow id="JF137203" begin="5480" fromJunction="J6" toJunction="J4" end="5540" vehsPerHour="63.85413858743094"/>
  <flow id="JF137204" begin="5480" fromJunction="J7" toJunction="J3" end="5540" vehsPerHour="66.4415439399762"/>
  <flow id="JF137205" begin="5480" fromJunction="J7" toJunction="J4" end="5540" vehsPerHour="52.54471791874064"/>
  <flow id="JF137206" begin="5480" fromJunction="J7" toJunction="J5" end="5540" vehsPerHour="66.4495937159387"/>
  <flow id="JF137207" begin="5480" fromJunction="J7" toJunction="J6" end="5540" vehsPerHour="18.64353017816815"/>
  <flow id="JF137208" begin="5540" fromJunction="J0" toJunction="J3" end="5600" vehsPerHour="55.27888433809422"/>
  <flow id="JF137209" begin="5540" fromJunction="J0" toJunction="J4" end="5600" vehsPerHour="66.24600798536616"/>
  <flow id="JF137210" begin="5540" fromJunction="J0" toJunction="J5" end="5600" vehsPerHour="72.10138745722195"/>
  <flow id="JF137211" begin="5540" fromJunction="J0" toJunction="J6" end="5600" vehsPerHour="92.15429798322138"/>
  <flow id="JF137212" begin="5540" fromJunction="J0" toJunction="J7" end="5600" vehsPerHour="7.1772756026972475"/>
  <flow id="JF137213" begin="5540" fromJunction="J3" toJunction="J4" end="5600" vehsPerHour="128.2016471835165"/>
  <flow id="JF137214" begin="5540" fromJunction="J3" toJunction="J6" end="5600" vehsPerHour="22.53722244303853"/>
  <flow id="JF137215" begin="5540" fromJunction="J4" toJunction="J0" end="5600" vehsPerHour="20.998427022639422"/>
  <flow id="JF137216" begin="5540" fromJunction="J4" toJunction="J3" end="5600" vehsPerHour="60.2653968761508"/>
  <flow id="JF137217" begin="5540" fromJunction="J4" toJunction="J5" end="5600" vehsPerHour="4.591554357395763"/>
  <flow id="JF137218" begin="5540" fromJunction="J4" toJunction="J6" end="5600" vehsPerHour="42.99533947999745"/>
  <flow id="JF137219" begin="5540" fromJunction="J5" toJunction="J3" end="5600" vehsPerHour="1.7438066629458038"/>
  <flow id="JF137220" begin="5540" fromJunction="J5" toJunction="J7" end="5600" vehsPerHour="62.454726392302156"/>
  <flow id="JF137221" begin="5540" fromJunction="J6" toJunction="J4" end="5600" vehsPerHour="24.534385477782454"/>
  <flow id="JF137222" begin="5540" fromJunction="J6" toJunction="J5" end="5600" vehsPerHour="66.02822574325482"/>
  <flow id="JF137223" begin="5540" fromJunction="J6" toJunction="J7" end="5600" vehsPerHour="11.853284545626419"/>
  <flow id="JF137224" begin="5540" fromJunction="J7" toJunction="J0" end="5600" vehsPerHour="60.532941422895995"/>
  <flow id="JF137225" begin="5540" fromJunction="J7" toJunction="J4" end="5600" vehsPerHour="17.783272758468097"/>
  <flow id="JF137226" begin="5540" fromJunction="J7" toJunction="J6" end="5600" vehsPerHour="56.43602129861055"/>
  <flow id="JF137227" begin="5600" fromJunction="J0" toJunction="J4" end="5660" vehsPerHour="14.154799155981834"/>
  <flow id="JF137228" begin="5600" fromJunction="J0" toJunction="J6" end="5660" vehsPerHour="90.61491968147074"/>
  <flow id="JF137229" begin="5600" fromJunction="J0" toJunction="J7" end="5660" vehsPerHour="128.2146949087302"/>
  <flow id="JF137230" begin="5600" fromJunction="J3" toJunction="J4" end="5660" vehsPerHour="115.72159540851908"/>
  <flow id="JF137231" begin="5600" fromJunction="J3" toJunction="J5" end="5660" vehsPerHour="39.904543835925224"/>
  <flow id="JF137232" begin="5600" fromJunction="J3" toJunction="J6" end="5660" vehsPerHour="91.97920085141314"/>
  <flow id="JF137233" begin="5600" fromJunction="J4" toJunction="J0" end="5660" vehsPerHour="18.666185707510177"/>
  <flow id="JF137234" begin="5600" fromJunction="J4" toJunction="J6" end="5660" vehsPerHour="3.058023421166954"/>
  <flow id="JF137235" begin="5600" fromJunction="J4" toJunction="J7" end="5660" vehsPerHour="33.45428130330666"/>
  <flow id="JF137236" begin="5600" fromJunction="J5" toJunction="J0" end="5660" vehsPerHour="59.52488325852935"/>
  <flow id="JF137237" begin="5600" fromJunction="J5" toJunction="J3" end="5660" vehsPerHour="55.89859274628451"/>
  <flow id="JF137238" begin="5600" fromJunction="J5" toJunction="J4" end="5660" vehsPerHour="32.80433353072484"/>
  <flow id="JF137239" begin="5600" fromJunction="J5" toJunction="J6" end="5660" vehsPerHour="1.429839391718514"/>
  <flow id="JF137240" begin="5600" fromJunction="J5" toJunction="J7" end="5660" vehsPerHour="67.95742181944993"/>
  <flow id="JF137241" begin="5600" fromJunction="J6" toJunction="J0" end="5660" vehsPerHour="49.35542281994424"/>
  <flow id="JF137242" begin="5600" fromJunction="J6" toJunction="J4" end="5660" vehsPerHour="35.3107066076928"/>
  <flow id="JF137243" begin="5600" fromJunction="J6" toJunction="J5" end="5660" vehsPerHour="16.913492126179946"/>
  <flow id="JF137244" begin="5600" fromJunction="J7" toJunction="J0" end="5660" vehsPerHour="14.498766062331539"/>
  <flow id="JF137245" begin="5600" fromJunction="J7" toJunction="J3" end="5660" vehsPerHour="34.03796082718704"/>
  <flow id="JF137246" begin="5600" fromJunction="J7" toJunction="J4" end="5660" vehsPerHour="51.071377190403076"/>
  <flow id="JF137247" begin="5600" fromJunction="J7" toJunction="J5" end="5660" vehsPerHour="33.50846034103039"/>
  <flow id="JF137248" begin="5600" fromJunction="J7" toJunction="J6" end="5660" vehsPerHour="33.7929561687413"/>
  <flow id="JF137249" begin="5660" fromJunction="J0" toJunction="J4" end="5720" vehsPerHour="11.285563753988018"/>
  <flow id="JF137250" begin="5660" fromJunction="J0" toJunction="J5" end="5720" vehsPerHour="3.1054319155576717"/>
  <flow id="JF137251" begin="5660" fromJunction="J0" toJunction="J6" end="5720" vehsPerHour="4.5101184112845365"/>
  <flow id="JF137252" begin="5660" fromJunction="J0" toJunction="J7" end="5720" vehsPerHour="54.70256605953791"/>
  <flow id="JF137253" begin="5660" fromJunction="J3" toJunction="J0" end="5720" vehsPerHour="103.29293341111358"/>
  <flow id="JF137254" begin="5660" fromJunction="J3" toJunction="J5" end="5720" vehsPerHour="33.409168046882904"/>