<?xml version="1.0" encoding="UTF-8"?>
<routes xmlns:xsi="http://www.w3.org/2001/XMLSchema-instance" xsi:noNamespaceSchemaLocation="http://sumo.dlr.de/xsd/routes_file.xsd">
  <flow id="JF145902" begin="0" fromJunction="J3" toJunction="J0" end="5000" vehsPerHour="428.68821464662824"/>
  <flow id="JF145903" begin="0" fromJunction="J0" toJunction="J3" end="5000" vehsPerHour="1262.1246767196717"/>
  <flow id="JF145904" begin="0" fromJunction="J3" toJunction="J7" end="5000" vehsPerHour="22.925302562702303"/>
  <flow id="JF145905" begin="0" fromJunction="J3" toJunction="J6" end="5000" vehsPerHour="22.0876700300078"/>
  <flow id="JF145906" begin="0" fromJunction="J3" toJunction="J5" end="5000" vehsPerHour="53.40812405459923"/>
  <flow id="JF145907" begin="0" fromJunction="J3" toJunction="J4" end="5000" vehsPerHour="54.30704898017567"/>
  <flow id="JF145908" begin="0" fromJunction="J0" toJunction="J7" end="5000" vehsPerHour="33.81895432997653"/>
  <flow id="JF145909" begin="0" fromJunction="J0" toJunction="J6" end="5000" vehsPerHour="106.69273789902782"/>
  <flow id="JF145910" begin="0" fromJunction="J0" toJunction="J5" end="5000" vehsPerHour="38.78061613587077"/>
  <flow id="JF145911" begin="0" fromJunction="J0" toJunction="J4" end="5000" vehsPerHour="24.19982242265709"/>
  <flow id="JF145912" begin="0" fromJunction="J7" toJunction="J6" end="5000" vehsPerHour="193.33691278347928"/>
  <flow id="JF145913" begin="0" fromJunction="J7" toJunction="J5" end="5000" vehsPerHour="77.0095360800036"/>
  <flow id="JF145914" begin="0" fromJunction="J7" toJunction="J4" end="5000" vehsPerHour="73.65879366516673"/>
  <flow id="JF145915" begin="0" fromJunction="J6" toJunction="J7" end="5000" vehsPerHour="53.250758763600274"/>
  <flow id="JF145916" begin="0" fromJunction="J6" toJunction="J5" end="5000" vehsPerHour="265.4857063227065"/>
  <flow id="JF145917" begin="0" fromJunction="J6" toJunction="J4" end="5000" vehsPerHour="203.26423298486782"/>
  <flow id="JF145918" begin="0" fromJunction="J5" toJunction="J7" end="5000" vehsPerHour="136.45621534072953"/>
  <flow id="JF145919" begin="0" fromJunction="J5" toJunction="J6" end="5000" vehsPerHour="32.83121309635143"/>
  <flow id="JF145920" begin="0" fromJunction="J5" toJunction="J4" end="5000" vehsPerHour="259.4136025062573"/>
  <flow id="JF145921" begin="0" fromJunction="J4" toJunction="J7" end="5000" vehsPerHour="240.42079448084087"/>
  <flow id="JF145922" begin="0" fromJunction="J4" toJunction="J6" end="5000" vehsPerHour="191.12302741944407"/>
  <flow id="JF145923" begin="0" fromJunction="J4" toJunction="J5" end="5000" vehsPerHour="30.783690688185747"/>
  <flow id="JF145924" begin="0" fromJunction="J7" toJunction="J3" end="5000" vehsPerHour="24.017276983924834"/>
  <flow id="JF145925" begin="0" fromJunction="J7" toJunction="J0" end="5000" vehsPerHour="62.547725432580336"/>
  <flow id="JF145926" begin="0" fromJunction="J6" toJunction="J3" end="5000" vehsPerHour="50.24504136938859"/>
  <flow id="JF145927" begin="0" fromJunction="J6" toJunction="J0" end="5000" vehsPerHour="7.781763180219474"/>
  <flow id="JF145928" begin="0" fromJunction="J5" toJunction="J3" end="5000" vehsPerHour="15.30486167225012"/>
  <flow id="JF145929" begin="0" fromJunction="J5" toJunction="J0" end="5000" vehsPerHour="1.0037044992313258"/>
  <flow id="JF145930" begin="0" fromJunction="J4" toJunction="J3" end="5000" vehsPerHour="8.502900282179102"/>
  <flow id="JF145931" begin="0" fromJunction="J4" toJunction="J0" end="5000" vehsPerHour="17.967323498706328"/>
  <flow id="JF145932" begin="5000" fromJunction="J0" toJunction="J3" end="5060" vehsPerHour="10.589172382968545"/>
  <flow id="JF145933" begin="5000" fromJunction="J0" toJunction="J4" end="5060" vehsPerHour="80.75241152340544"/>
  <flow id="JF145934" begin="5000" fromJunction="J0" toJunction="J5" end="5060" vehsPerHour="95.99367481650705"/>
  <flow id="JF145935" begin="5000" fromJunction="J3" toJunction="J0" end="5060" vehsPerHour="104.27305499423754"/>
  <flow id="JF145936" begin="5000" fromJunction="J3" toJunction="J4" end="5060" vehsPerHour="89.20104336133038"/>
  <flow id="JF145937" begin="5000" fromJunction="J3" toJunction="J5" end="5060" vehsPerHour="11.187674575347033"/>
  <flow id="JF145938" begin="5000" fromJunction="J3" toJunction="J7" end="5060" vehsPerHour="80.72110900315629"/>
  <flow id="JF145939" begin="5000" fromJunction="J4" toJunction="J0" end="5060" vehsPerHour="38.89505379542517"/>
  <flow id="JF145940" begin="5000" fromJunction="J4" toJunction="J5" end="5060" vehsPerHour="48.24304866052736"/>
  <flow id="JF145941" begin="5000" fromJunction="J5" toJunction="J0" end="5060" vehsPerHour="54.54946817202915"/>
  <flow id="JF145942" begin="5000" fromJunction="J5" toJunction="J3" end="5060" vehsPerHour="54.08969370106143"/>
  <flow id="JF145943" begin="5000" fromJunction="J5" toJunction="J6" end="5060" vehsPerHour="45.58762348842261"/>
  <flow id="JF145944" begin="5000" fromJunction="J5" toJunction="J7" end="5060" vehsPerHour="11.783110225830193"/>
  <flow id="JF145945" begin="5000" fromJunction="J6" toJunction="J3" end="5060" vehsPerHour="49.09774994890911"/>
  <flow id="JF145946" begin="5000" fromJunction="J7" toJunction="J3" end="5060" vehsPerHour="13.782363164016244"/>
  <flow id="JF145947" begin="5000" fromJunction="J7" toJunction="J6" end="5060" vehsPerHour="0.9380385663067573"/>
  <flow id="JF145948" begin="5060" fromJunction="J0" toJunction="J3" end="5120" vehsPerHour="131.827368706717"/>
  <flow id="JF145949" begin="5060" fromJunction="J0" toJunction="J4" end="5120" vehsPerHour="73.64295689016095"/>
  <flow id="JF145950" begin="5060" fromJunction="J0" toJunction="J5" end="5120" vehsPerHour="36.75545261657358"/>
  <flow id="JF145951" begin="5060" fromJunction="J0" toJunction="J6" end="5120" vehsPerHour="127.3132805129389"/>
  <flow id="JF145952" begin="5060" fromJunction="J3" toJunction="J0" end="5120" vehsPerHour="77.79525149731731"/>
  <flow id="JF145953" begin="5060" fromJunction="J3" toJunction="J7" end="5120" vehsPerHour="114.6419694515944"/>
  <flow id="JF145954" begin="5060" fromJunction="J4" toJunction="J3" end="5120" vehsPerHour="30.65278898507721"/>
  <flow id="JF145955" begin="5060" fromJunction="J4" toJunction="J5" end="5120" vehsPerHour="42.66431549820489"/>
  <flow id="JF145956" begin="5060" fromJunction="J4" toJunction="J6" end="5120" vehsPerHour="57.12578582846146"/>
  <flow id="JF145957" begin="5060" fromJunction="J5" toJunction="J0" end="5120" vehsPerHour="6.0723163854700175"/>
  <flow id="JF145958" begin="5060" fromJunction="J5" toJunction="J3" end="5120" vehsPerHour="21.100297334328175"/>
  <flow id="JF145959" begin="5060" fromJunction="J5" toJunction="J4" end="5120" vehsPerHour="9.405489708538378"/>
  <flow id="JF145960" begin="5060" fromJunction="J5" toJunction="J6" end="5120" vehsPerHour="46.45900529451649"/>
  <flow id="JF145961" begin="5060" fromJunction="J5" toJunction="J7" end="5120" vehsPerHour="3.890105905866617"/>
  <flow id="JF145962" begin="5060" fromJunction="J6" toJunction="J0" end="5120" vehsPerHour="37.084109480511756"/>
  <flow id="JF145963" begin="5060" fromJunction="J6" toJunction="J3" end="5120" vehsPerHour="13.793538139071327"/>
  <flow id="JF145964" begin="5060" fromJunction="J6" toJunction="J4" end="5120" vehsPerHour="55.83392655656953"/>
  <flow id="JF145965" begin="5060" fromJunction="J7" toJunction="J0" end="5120" vehsPerHour="14.748541515692677"/>
  <flow id="JF145966" begin="5060" fromJunction="J7" toJunction="J3" end="5120" vehsPerHour="0.521467470062302"/>
  <flow id="JF145967" begin="5060" fromJunction="J7" toJunction="J4" end="5120" vehsPerHour="66.53996021466908"/>
  <flow id="JF145968" begin="5060" fromJunction="J7" toJunction="J6" end="5120" vehsPerHour="15.235005052164563"/>
  <flow id="JF145969" begin="5120" fromJunction="J0" toJunction="J4" end="5180" vehsPerHour="105.78444395534414"/>
  <flow id="JF145970" begin="5120" fromJunction="J0" toJunction="J5" end="5180" vehsPerHour="23.791751550247955"/>
  <flow id="JF145971" begin="5120" fromJunction="J0" toJunction="J6" end="5180" vehsPerHour="95.37071276557253"/>
  <flow id="JF145972" begin="5120" fromJunction="J0" toJunction="J7" end="5180" vehsPerHour="70.75389764005992"/>
  <flow id="JF145973" begin="5120" fromJunction="J3" toJunction="J4" end="5180" vehsPerHour="133.0190411119778"/>
  <flow id="JF145974" begin="5120" fromJunction="J3" toJunction="J5" end="5180" vehsPerHour="116.69590493796747"/>
  <flow id="JF145975" begin="5120" fromJunction="J3" toJunction="J7" end="5180" vehsPerHour="119.13783233161791"/>
  <flow id="JF145976" begin="5120" fromJunction="J4" toJunction="J0" end="5180" vehsPerHour="32.078815703412275"/>
  <flow id="JF145977" begin="5120" fromJunction="J4" toJunction="J7" end="5180" vehsPerHour="17.891107102293358"/>
  <flow id="JF145978" begin="5120" fromJunction="J5" toJunction="J0" end="5180" vehsPerHour="11.082622326363602"/>
  <flow id="JF145979" begin="5120" fromJunction="J5" toJunction="J4" end="5180" vehsPerHour="27.933253962149607"/>
  <flow id="JF145980" begin="5120" fromJunction="J5" toJunction="J7" end="5180" vehsPerHour="58.850609628293284"/>
  <flow id="JF145981" begin="5120" fromJunction="J6" toJunction="J0" end="5180" vehsPerHour="1.959487745869844"/>
  <flow id="JF145982" begin="5120" fromJunction="J6" toJunction="J3" end="5180" vehsPerHour="55.31769699313831"/>
  <flow id="JF145983" begin="5120" fromJunction="J6" toJunction="J7" end="5180" vehsPerHour="14.423184663676226"/>
  <flow id="JF145984" begin="5120" fromJunction="J7" toJunction="J3" end="5180" vehsPerHour="6.133275460240703"/>
  <flow id="JF145985" begin="5120" fromJunction="J7" toJunction="J4" end="5180" vehsPerHour="47.963729455213986"/>
  <flow id="JF145986" begin="5120" fromJunction="J7" toJunction="J6" end="5180" vehsPerHour="11.109198062547629"/>
  <flow id="JF145987" begin="5180" fromJunction="J0" toJunction="J3" end="5240" vehsPerHour="2.6436836949381495"/>
  <flow id="JF145988" begin="5180" fromJunction="J0" toJunction="J5" end="5240" vehsPerHour="105.41605520165145"/>
  <flow id="JF145989" begin="5180" fromJunction="J0" toJunction="J6" end="5240" vehsPerHour="32.544697625272846"/>
  <flow id="JF145990" begin="5180" fromJunction="J3" toJunction="J0" end="5240" vehsPerHour="107.48670582654437"/>
  <flow id="JF145991" begin="5180" fromJunction="J3" toJunction="J4" end="5240" vehsPerHour="119.1669545349683"/>
  <flow id="JF145992" begin="5180" fromJunction="J3" toJunction="J5" end="5240" vehsPerHour="67.99794936802664"/>
  <flow id="JF145993" begin="5180" fromJunction="J3" toJunction="J6" end="5240" vehsPerHour="97.2292735329047"/>
  <flow id="JF145994" begin="5180" fromJunction="J3" toJunction="J7" end="5240" vehsPerHour="18.975539531139404"/>
  <flow id="JF145995" begin="5180" fromJunction="J4" toJunction="J5" end="5240" vehsPerHour="13.375479330468986"/>
  <flow id="JF145996" begin="5180" fromJunction="J4" toJunction="J7" end="5240" vehsPerHour="36.852611930175954"/>
  <flow id="JF145997" begin="5180" fromJunction="J5" toJunction="J6" end="5240" vehsPerHour="24.276764114627092"/>
  <flow id="JF145998" begin="5180" fromJunction="J5" toJunction="J7" end="5240" vehsPerHour="30.44126256326743"/>
  <flow id="JF145999" begin="5180" fromJunction="J6" toJunction="J4" end="5240" vehsPerHour="8.727423498750916"/>
  <flow id="JF146000" begin="5180" fromJunction="J6" toJunction="J5" end="5240" vehsPerHour="3.7598898612374936"/>
  <flow id="JF146001" begin="5180" fromJunction="J7" toJunction="J3" end="5240" vehsPerHour="33.65689074459463"/>
  <flow id="JF146002" begin="5180" fromJunction="J7" toJunction="J6" end="5240" vehsPerHour="22.23940268719945"/>
  <flow id="JF146003" begin="5240" fromJunction="J0" toJunction="J3" end="5300" vehsPerHour="125.70200702112442"/>
  <flow id="JF146004" begin="5240" fromJunction="J0" toJunction="J4" end="5300" vehsPerHour="37.06161143915291"/>
  <flow id="JF146005" begin="5240" fromJunction="J0" toJunction="J5" end="5300" vehsPerHour="46.862583990653704"/>
  <flow id="JF146006" begin="5240" fromJunction="J0" toJunction="J6" end="5300" vehsPerHour="70.05785513432889"/>
  <flow id="JF146007" begin="5240" fromJunction="J0" toJunction="J7" end="5300" vehsPerHour="72.48870056930438"/>
  <flow id="JF146008" begin="5240" fromJunction="J3" toJunction="J5" end="5300" vehsPerHour="41.676104211090696"/>
  <flow id="JF146009" begin="5240" fromJunction="J3" toJunction="J6" end="5300" vehsPerHour="11.06715514085926"/>
  <flow id="JF146010" begin="5240" fromJunction="J3" toJunction="J7" end="5300" vehsPerHour="47.25508468315302"/>
  <flow id="JF146011" begin="5240" fromJunction="J4" toJunction="J0" end="5300" vehsPerHour="14.555482140004118"/>
  <flow id="JF146012" begin="5240" fromJunction="J4" toJunction="J3" end="5300" vehsPerHour="5.620320567117661"/>
  <flow id="JF146013" begin="5240" fromJunction="J4" toJunction="J5" end="5300" vehsPerHour="62.646950708267944"/>
  <flow id="JF146014" begin="5240" fromJunction="J4" toJunction="J6" end="5300" vehsPerHour="52.25574277847191"/>
  <flow id="JF146015" begin="5240" fromJunction="J4" toJunction="J7" end="5300" vehsPerHour="62.846720510166755"/>
  <flow id="JF146016" begin="5240" fromJunction="J5" toJunction="J0" end="5300" vehsPerHour="55.94214095101001"/>
  <flow id="JF146017" begin="5240" fromJunction="J5" toJunction="J3" end="5300" vehsPerHour="66.34181515772516"/>
  <flow id="JF146018" begin="5240" fromJunction="J5" toJunction="J6" end="5300" vehsPerHour="29.903515204564254"/>
  <flow id="JF146019" begin="5240" fromJunction="J5" toJunction="J7" end="5300" vehsPerHour="20.30656953733855"/>
  <flow id="JF146020" begin="5240" fromJunction="J6" toJunction="J3" end="5300" vehsPerHour="58.90332034796859"/>
  <flow id="JF146021" begin="5240" fromJunction="J6" toJunction="J4" end="5300" vehsPerHour="9.612416124066547"/>
  <flow id="JF146022" begin="5240" fromJunction="J6" toJunction="J5" end="5300" vehsPerHour="1.6365449909047984"/>
  <flow id="JF146023" begin="5240" fromJunction="J7" toJunction="J0" end="5300" vehsPerHour="2.278652818383901"/>
  <flow id="JF146024" begin="5240" fromJunction="J7" toJunction="J3" end="5300" vehsPerHour="63.435302654869176"/>
  <flow id="JF146025" begin="5240" fromJunction="J7" toJunction="J4" end="5300" vehsPerHour="56.45511118884201"/>
  <flow id="JF146026" begin="5240" fromJunction="J7" toJunction="J5" end="5300" vehsPerHour="65.08181554713539"/>
  <flow id="JF146027" begin="5300" fromJunction="J0" toJunction="J3" end="5360" vehsPerHour="7.3523303713706625"/>
  <flow id="JF146028" begin="5300" fromJunction="J0" toJunction="J4" end="5360" vehsPerHour="118.98757458024063"/>
  <flow id="JF146029" begin="5300" fromJunction="J0" toJunction="J5" end="5360" vehsPerHour="132.28511994131958"/>
  <flow id="JF146030" begin="5300" fromJunction="J0" toJunction="J6" end="5360" vehsPerHour="65.1916535811065"/>
  <flow id="JF146031" begin="5300" fromJunction="J0" toJunction="J7" end="5360" vehsPerHour="136.6689085164178"/>
  <flow id="JF146032" begin="5300" fromJunction="J3" toJunction="J4" end="5360" vehsPerHour="38.938170872904635"/>
  <flow id="JF146033" begin="5300" fromJunction="J3" toJunction="J5" end="5360" vehsPerHour="34.7354241392691"/>
  <flow id="JF146034" begin="5300" fromJunction="J3" toJunction="J6" end="5360" vehsPerHour="72.72275179983589"/>
  <flow id="JF146035" begin="5300" fromJunction="J3" toJunction="J7" end="5360" vehsPerHour="45.53386830432763"/>
  <flow id="JF146036" begin="5300" fromJunction="J4" toJunction="J0" end="5360" vehsPerHour="47.69263391485736"/>
  <flow id="JF146037" begin="5300" fromJunction="J4" toJunction="J3" end="5360" vehsPerHour="44.43482311090808"/>
  <flow id="JF146038" begin="5300" fromJunction="J4" toJunction="J5" end="5360" vehsPerHour="28.994649898815638"/>
  <flow id="JF146039" begin="5300" fromJunction="J4" toJunction="J6" end="5360" vehsPerHour="30.545990634708627"/>
  <flow id="JF146040" begin="5300" fromJunction="J4" toJunction="J7" end="5360" vehsPerHour="23.386275232369215"/>
  <flow id="JF146041" begin="5300" fromJunction="J5" toJunction="J0" end="5360" vehsPerHour="46.677082593628704"/>
  <flow id="JF146042" begin="5300" fromJunction="J5" toJunction="J3" end="5360" vehsPerHour="64.05038306390753"/>
  <flow id="JF146043" begin="5300" fromJunction="J5" toJunction="J4" end="5360" vehsPerHour="29.203324663698872"/>
  <flow id="JF146044" begin="5300" fromJunction="J5" toJunction="J6" end="5360" vehsPerHour="15.209836575820416"/>
  <flow id="JF146045" begin="5300" fromJunction="J5" toJunction="J7" end="5360" vehsPerHour="63.888549643275596"/>
  <flow id="JF146046" begin="5300" fromJunction="J6" toJunction="J3" end="5360" vehsPerHour="38.597872231309985"/>
  <flow id="JF146047" begin="5300" fromJunction="J7" toJunction="J0" end="5360" vehsPerHour="38.484299186143296"/>
  <flow id="JF146048" begin="5300" fromJunction="J7" toJunction="J3" end="5360" vehsPerHour="8.558017437636595"/>
  <flow id="JF146049" begin="5300" fromJunction="J7" toJunction="J4" end="5360" vehsPerHour="10.058051818352489"/>
  <flow id="JF146050" begin="5300" fromJunction="J7" toJunction="J6" end="5360" vehsPerHour="28.968795268683348"/>
  <flow id="JF146051" begin="5360" fromJunction="J0" toJunction="J3" end="5420" vehsPerHour="105.2833602450151"/>
  <flow id="JF146052" begin="5360" fromJunction="J0" toJunction="J4" end="5420" vehsPerHour="61.20245064908214"/>
  <flow id="JF146053" begin="5360" fromJunction="J0" toJunction="J5" end="5420" vehsPerHour="130.8651276656394"/>
  <flow id="JF146054" begin="5360" fromJunction="J0" toJunction="J7" end="5420" vehsPerHour="55.86012856550401"/>
  <flow id="JF146055" begin="5360" fromJunction="J3" toJunction="J0" end="5420" vehsPerHour="92.96055223364226"/>
  <flow id="JF146056" begin="5360" fromJunction="J3" toJunction="J4" end="5420" vehsPerHour="32.00934506992879"/>
  <flow id="JF146057" begin="5360" fromJunction="J3" toJunction="J6" end="5420" vehsPerHour="15.847637355258485"/>
  <flow id="JF146058" begin="5360" fromJunction="J3" toJunction="J7" end="5420" vehsPerHour="82.82446599758661"/>
  <flow id="JF146059" begin="5360" fromJunction="J4" toJunction="J0" end="5420" vehsPerHour="31.11918860968703"/>
  <flow id="JF146060" begin="5360" fromJunction="J4" toJunction="J3" end="5420" vehsPerHour="68.60099274892293"/>
  <flow id="JF146061" begin="5360" fromJunction="J4" toJunction="J5" end="5420" vehsPerHour="49.700529076347316"/>
  <flow id="JF146062" begin="5360" fromJunction="J4" toJunction="J7" end="5420" vehsPerHour="40.06971247129877"/>
  <flow id="JF146063" begin="5360" fromJunction="J5" toJunction="J0" end="5420" vehsPerHour="45.643942473050046"/>
  <flow id="JF146064" begin="5360" fromJunction="J5" toJunction="J3" end="5420" vehsPerHour="5.769065004123531"/>
  <flow id="JF146065" begin="5360" fromJunction="J5" toJunction="J6" end="5420" vehsPerHour="67.87538078786727"/>
  <flow id="JF146066" begin="5360" fromJunction="J5" toJunction="J7" end="5420" vehsPerHour="18.506492851993247"/>
  <flow id="JF146067" begin="5360" fromJunction="J6" toJunction="J0" end="5420" vehsPerHour="25.44809380510093"/>
  <flow id="JF146068" begin="5360" fromJunction="J6" toJunction="J3" end="5420" vehsPerHour="11.748454413816477"/>
  <flow id="JF146069" begin="5360" fromJunction="J6" toJunction="J5" end="5420" vehsPerHour="57.4109999229735"/>
  <flow id="JF146070" begin="5360" fromJunction="J7" toJunction="J0" end="5420" vehsPerHour="42.68484710734148"/>
  <flow id="JF146071" begin="5360" fromJunction="J7" toJunction="J4" end="5420" vehsPerHour="54.90918471888629"/>
  <flow id="JF146072" begin="5360" fromJunction="J7" toJunction="J6" end="5420" vehsPerHour="6.2345626313821585"/>
  <flow id="JF146073" begin="5420" fromJunction="J0" toJunction="J6" end="5480" vehsPerHour="16.324750512644872"/>
  <flow id="JF146074" begin="5420" fromJunction="J3" toJunction="J0" end="5480" vehsPerHour="86.31426062853839"/>
  <flow id="JF146075" begin="5420" fromJunction="J3" toJunction="J4" end="5480" vehsPerHour="57.83437523418138"/>
  <flow id="JF146076" begin="5420" fromJunction="J3" toJunction="J5" end="5480" vehsPerHour="2.371439430679604"/>
  <flow id="JF146077" begin="5420" fromJunction="J3" toJunction="J6" end="5480" vehsPerHour="66.89914834837218"/>
  <flow id="JF146078" begin="5420" fromJunction="J3" toJunction="J7" end="5480" vehsPerHour="91.74135213867812"/>
  <flow id="JF146079" begin="5420" fromJunction="J4" toJunction="J3" end="5480" vehsPerHour="68.19628422679739"/>
  <flow id="JF146080" begin="5420" fromJunction="J4" toJunction="J5" end="5480" vehsPerHour="65.88553019228968"/>
  <flow id="JF146081" begin="5420" fromJunction="J4" toJunction="J7" end="5480" vehsPerHour="19.508087445486982"/>
  <flow id="JF146082" begin="5420" fromJunction="J5" toJunction="J0" end="5480" vehsPerHour="51.169216316536"/>
  <flow id="JF146083" begin="5420" fromJunction="J5" toJunction="J4" end="5480" vehsPerHour="55.0879887215974"/>
  <flow id="JF146084" begin="5420" fromJunction="J5" toJunction="J6" end="5480" vehsPerHour="13.722679883575513"/>
  <flow id="JF146085" begin="5420" fromJunction="J5" toJunction="J7" end="5480" vehsPerHour="41.20655779755691"/>
  <flow id="JF146086" begin="5420" fromJunction="J6" toJunction="J3" end="5480" vehsPerHour="25.721218356621517"/>
  <flow id="JF146087" begin="5420" fromJunction="J6" toJunction="J4" end="5480" vehsPerHour="0.1633473842009011"/>
  <flow id="JF146088" begin="5420" fromJunction="J6" toJunction="J7" end="5480" vehsPerHour="5.379042113658499"/>
  <flow id="JF146089" begin="5420" fromJunction="J7" toJunction="J3" end="5480" vehsPerHour="39.82408056390257"/>
  <flow id="JF146090" begin="5420" fromJunction="J7" toJunction="J4" end="5480" vehsPerHour="25.32882550419776"/>
  <flow id="JF146091" begin="5420" fromJunction="J7" toJunction="J5" end="5480" vehsPerHour="47.76682404774171"/>
  <flow id="JF146092" begin="5420" fromJunction="J7" toJunction="J6" end="5480" vehsPerHour="43.06405179808305"/>
  <flow id="JF146093" begin="5480" fromJunction="J0" toJunction="J3" end="5540" vehsPerHour="105.8839906666865"/>
  <flow id="JF146094" begin="5480" fromJunction="J0" toJunction="J5" end="5540" vehsPerHour="34.62766263564496"/>
  <flow id="JF146095" begin="5480" fromJunction="J3" toJunction="J0" end="5540" vehsPerHour="5.35060768149031"/>
  <flow id="JF146096" begin="5480" fromJunction="J3" toJunction="J4" end="5540" vehsPerHour="135.15015916772992"/>
  <flow id="JF146097" begin="5480" fromJunction="J3" toJunction="J6" end="5540" vehsPerHour="50.134967187797415"/>
  <flow id="JF146098" begin="5480" fromJunction="J4" toJunction="J0" end="5540" vehsPerHour="60.62977704542422"/>
  <flow id="JF146099" begin="5480" fromJunction="J4" toJunction="J3" end="5540" vehsPerHour="36.94155471740986"/>
  <flow id="JF146100" begin="5480" fromJunction="J4" toJunction="J5" end="5540" vehsPerHour="66.60462338773698"/>
  <flow id="JF146101" begin="5480" fromJunction="J4" toJunction="J7" end="5540" vehsPerHour="14.102076969704305"/>
  <flow id="JF146102" begin="5480" fromJunction="J5" toJunction="J0" end="5540" vehsPerHour="2.2104204401535443"/>
  <flow id="JF146103" begin="5480" fromJunction="J5" toJunction="J4" end="5540" vehsPerHour="13.226707955061523"/>
  <flow id="JF146104" begin="5480" fromJunction="J5" toJunction="J6" end="5540" vehsPerHour="68.2791515013841"/>
  <flow id="JF146105" begin="5480" fromJunction="J5" toJunction="J7" end="5540" vehsPerHour="3.125923727221316"/>
  <flow id="JF146106" begin="5480" fromJunction="J6" toJunction="J0" end="5540" vehsPerHour="16.15779963525745"/>
  <flow id="JF146107" begin="5480" fromJunction="J6" toJunction="J4" end="5540" vehsPerHour="22.832470921156084"/>
  <flow id="JF146108" begin="5480" fromJunction="J6" toJunction="J5" end="5540" vehsPerHour="30.495946155782796"/>
  <flow id="JF146109" begin="5480" fromJunction="J6" toJunction="J7" end="5540" vehsPerHour="20.28571540998782"/>
  <flow id="JF146110" begin="5480" fromJunction="J7" toJunction="J0" end="5540" vehsPerHour="46.35364419155045"/>
  <flow id="JF146111" begin="5480" fromJunction="J7" toJunction="J4" end="5540" vehsPerHour="35.12049828641368"/>
  <flow id="JF146112" begin="5480" fromJunction="J7" toJunction="J6" end="5540" vehsPerHour="27.958675198680364"/>
  <flow id="JF146113" begin="5540" fromJunction="J0" toJunction="J5" end="5600" vehsPerHour="13.803223879794537"/>
  <flow id="JF146114" begin="5540" fromJunction="J0" toJunction="J6" end="5600" vehsPerHour="44.77365812535727"/>
  <flow id="JF146115" begin="5540" fromJunction="J0" toJunction="J7" end="5600" vehsPerHour="99.67191588711695"/>
  <flow id="JF146116" begin="5540" fromJunction="J3" toJunction="J0" end="5600" vehsPerHour="46.423361075552485"/>
  <flow id="JF146117" begin="5540" fromJunction="J3" toJunction="J4" end="5600" vehsPerHour="45.23540591977057"/>
  <flow id="JF146118" begin="5540" fromJunction="J3" toJunction="J6" end="5600" vehsPerHour="73.92212205649031"/>
  <flow id="JF146119" begin="5540" fromJunction="J3" toJunction="J7" end="5600" vehsPerHour="32.217696882569676"/>
  <flow id="JF146120" begin="5540" fromJunction="J4" toJunction="J5" end="5600" vehsPerHour="25.410494831039976"/>
  <flow id="JF146121" begin="5540" fromJunction="J4" toJunction="J6" end="5600" vehsPerHour="23.232837929757835"/>
  <flow id="JF146122" begin="5540" fromJunction="J4" toJunction="J7" end="5600" vehsPerHour="19.14793778085382"/>
  <flow id="JF146123" begin="5540" fromJunction="J5" toJunction="J4" end="5600" vehsPerHour="58.73738480601203"/>
  <flow id="JF146124" begin="5540" fromJunction="J5" toJunction="J6" end="5600" vehsPerHour="64.31157906826843"/>
  <flow id="JF146125" begin="5540" fromJunction="J5" toJunction="J7" end="5600" vehsPerHour="15.366204336036752"/>
  <flow id="JF146126" begin="5540" fromJunction="J6" toJunction="J0" end="5600" vehsPerHour="51.40929630099469"/>
  <flow id="JF146127" begin="5540" fromJunction="J6" toJunction="J3" end="5600" vehsPerHour="18.694373779705398"/>
  <flow id="JF146128" begin="5540" fromJunction="J6" toJunction="J4" end="5600" vehsPerHour="61.14993296586048"/>
  <flow id="JF146129" begin="5540" fromJunction="J6" toJunction="J5" end="5600" vehsPerHour="60.43231815826104"/>
  <flow id="JF146130" begin="5540" fromJunction="J6" toJunction="J7" end="5600" vehsPerHour="38.25523397951729"/>
  <flow id="JF146131" begin="5540" fromJunction="J7" toJunction="J0" end="5600" vehsPerHour="59.453815347245445"/>
  <flow id="JF146132" begin="5540" fromJunction="J7" toJunction="J3" end="5600" vehsPerHour="25.8288788399259"/>
  <flow id="JF146133" begin="5540" fromJunction="J7" toJunction="J5" end="5600" vehsPerHour="62.64127433758934"/>
  <flow id="JF146134" begin="5540" fromJunction="J7" toJunction="J6" end="5600" vehsPerHour="2.5590512810691504"/>
  <flow id="JF146135" begin="5600" fromJunction="J0" toJunction="J3" end="5660" vehsPerHour="20.366009702862453"/>
  <flow id="JF146136" begin="5600" fromJunction="J0" toJunction="J5" end="5660" vehsPerHour="48.825953236515076"/>
  <flow id="JF146137" begin="5600" fromJunction="J0" toJunction="J6" end="5660" vehsPerHour="2.7976446764200977"/>
  <flow id="JF146138" begin="5600" fromJunction="J0" toJunction="J7" end="5660" vehsPerHour="87.91604964245928"/>
  <flow id="JF146139" begin="5600" fromJunction="J3" toJunction="J4" end="5660" vehsPerHour="64.19828040348709"/>
  <flow id="JF146140" begin="5600" fromJunction="J3" toJunction="J5" end="5660" vehsPerHour="132.16491454686542"/>
  <flow id="JF146141" begin="5600" fromJunction="J3" toJunction="J6" end="5660" vehsPerHour="133.07800207581616"/>
  <flow id="JF146142" begin="5600" fromJunction="J3" toJunction="J7" end="5660" vehsPerHour="83.41677903771692"/>
  <flow id="JF146143" begin="5600" fromJunction="J4" toJunction="J0" end="5660" vehsPerHour="35.10893425440507"/>
  <flow id="JF146144" begin="5600" fromJunction="J4" toJunction="J3" end="5660" vehsPerHour="12.598160113992433"/>
  <flow id="JF146145" begin="5600" fromJunction="J4" toJunction="J5" end="5660" vehsPerHour="26.220295689526193"/>
  <flow id="JF146146" begin="5600" fromJunction="J5" toJunction="J0" end="5660" vehsPerHour="38.82518977656936"/>
  <flow id="JF146147" begin="5600" fromJunction="J5" toJunction="J3" end="5660" vehsPerHour="33.054139274051266"/>
  <flow id="JF146148" begin="5600" fromJunction="J5" toJunction="J7" end="5660" vehsPerHour="27.07477666400945"/>
  <flow id="JF146149" begin="5600" fromJunction="J6" toJunction="J0" end="5660" vehsPerHour="67.56142779871013"/>
  <flow id="JF146150" begin="5600" fromJunction="J6" toJunction="J4" end="5660" vehsPerHour="21.61840917462406"/>
  <flow id="JF146151" begin="5600" fromJunction="J6" toJunction="J5" end="5660" vehsPerHour="11.767972263817791"/>
  <flow id="JF146152" begin="5600" fromJunction="J6" toJunction="J7" end="5660" vehsPerHour="31.16525528730866"/>
  <flow id="JF146153" begin="5600" fromJunction="J7" toJunction="J0" end="5660" vehsPerHour="24.686029873972554"/>
  <flow id="JF146154" begin="5600" fromJunction="J7" toJunction="J3" end="5660" vehsPerHour="19.667146089569194"/>
  <flow id="JF146155" begin="5660" fromJunction="J0" toJunction="J3" end="5720" vehsPerHour="105.359043461958"/>
  <flow id="JF146156" begin="5660" fromJunction="J0" toJunction="J5" end="5720" vehsPerHour="120.50972173891621"/>
  <flow id="JF146157" begin="5660" fromJunction="J0" toJunction="J6" end="5720" vehsPerHour="66.0660638592515"/>
  <flow id="JF146158" begin="5660" fromJunction="J0" toJunction="J7" end="5720" vehsPerHour="24.59200127659933"/>
  <flow id="JF146159" begin="5660" fromJunction="J3" toJunction="J0" end="5720" vehsPerHour="61.434875792958465"/>
  <flow id="JF146160" begin="5660" fromJunction="J3" toJunction="J5" end="5720" vehsPerHour="24.272590363862413"/>
  <flow id="JF146161" begin="5660" fromJunction="J3" toJunction="J6" end="5720" vehsPerHour="57.00693468195256"/>
  <flow id="JF146162" begin="5660" fromJunction="J3" toJunction="J7" end="5720" vehsPerHour="125.68926833369133"/>