<?xml version="1.0" encoding="UTF-8"?>
<routes xmlns:xsi="http://www.w3.org/2001/XMLSchema-instance" xsi:noNamespaceSchemaLocation="http://sumo.dlr.de/xsd/routes_file.xsd">
  <flow id="JF133469" begin="0" fromJunction="J3" toJunction="J0" end="5000" vehsPerHour="1050.7775799960718"/>
  <flow id="JF133470" begin="0" fromJunction="J0" toJunction="J3" end="5000" vehsPerHour="176.62758026659284"/>
  <flow id="JF133471" begin="0" fromJunction="J3" toJunction="J7" end="5000" vehsPerHour="38.21890107202441"/>
  <flow id="JF133472" begin="0" fromJunction="J3" toJunction="J6" end="5000" vehsPerHour="24.114994092445393"/>
  <flow id="JF133473" begin="0" fromJunction="J3" toJunction="J5" end="5000" vehsPerHour="105.70528660893774"/>
  <flow id="JF133474" begin="0" fromJunction="J3" toJunction="J4" end="5000" vehsPerHour="120.12189465889442"/>
  <flow id="JF133475" begin="0" fromJunction="J0" toJunction="J7" end="5000" vehsPerHour="129.09476176732701"/>
  <flow id="JF133476" begin="0" fromJunction="J0" toJunction="J6" end="5000" vehsPerHour="55.016366886876575"/>
  <flow id="JF133477" begin="0" fromJunction="J0" toJunction="J5" end="5000" vehsPerHour="52.293420209329064"/>
  <flow id="JF133478" begin="0" fromJunction="J0" toJunction="J4" end="5000" vehsPerHour="100.51864815860526"/>
  <flow id="JF133479" begin="0" fromJunction="J7" toJunction="J6" end="5000" vehsPerHour="146.19331249048906"/>
  <flow id="JF133480" begin="0" fromJunction="J7" toJunction="J5" end="5000" vehsPerHour="92.7655723099164"/>
  <flow id="JF133481" begin="0" fromJunction="J7" toJunction="J4" end="5000" vehsPerHour="264.2429511353004"/>
  <flow id="JF133482" begin="0" fromJunction="J6" toJunction="J7" end="5000" vehsPerHour="158.56266876682145"/>
  <flow id="JF133483" begin="0" fromJunction="J6" toJunction="J5" end="5000" vehsPerHour="243.17162496299068"/>
  <flow id="JF133484" begin="0" fromJunction="J6" toJunction="J4" end="5000" vehsPerHour="208.46741097250995"/>
  <flow id="JF133485" begin="0" fromJunction="J5" toJunction="J7" end="5000" vehsPerHour="143.41989318832753"/>
  <flow id="JF133486" begin="0" fromJunction="J5" toJunction="J6" end="5000" vehsPerHour="144.68048862960282"/>
  <flow id="JF133487" begin="0" fromJunction="J5" toJunction="J4" end="5000" vehsPerHour="143.60549546155497"/>
  <flow id="JF133488" begin="0" fromJunction="J4" toJunction="J7" end="5000" vehsPerHour="231.90622005548894"/>
  <flow id="JF133489" begin="0" fromJunction="J4" toJunction="J6" end="5000" vehsPerHour="189.2103587662003"/>
  <flow id="JF133490" begin="0" fromJunction="J4" toJunction="J5" end="5000" vehsPerHour="214.9021087376767"/>
  <flow id="JF133491" begin="0" fromJunction="J7" toJunction="J3" end="5000" vehsPerHour="16.514514751538865"/>
  <flow id="JF133492" begin="0" fromJunction="J7" toJunction="J0" end="5000" vehsPerHour="47.448618955173174"/>
  <flow id="JF133493" begin="0" fromJunction="J6" toJunction="J3" end="5000" vehsPerHour="23.82924837060256"/>
  <flow id="JF133494" begin="0" fromJunction="J6" toJunction="J0" end="5000" vehsPerHour="63.80559510868614"/>
  <flow id="JF133495" begin="0" fromJunction="J5" toJunction="J3" end="5000" vehsPerHour="36.902136635538426"/>
  <flow id="JF133496" begin="0" fromJunction="J5" toJunction="J0" end="5000" vehsPerHour="25.295853587121123"/>
  <flow id="JF133497" begin="0" fromJunction="J4" toJunction="J3" end="5000" vehsPerHour="58.52410457252945"/>
  <flow id="JF133498" begin="0" fromJunction="J4" toJunction="J0" end="5000" vehsPerHour="21.593580750938692"/>
  <flow id="JF133499" begin="5000" fromJunction="J0" toJunction="J5" end="5060" vehsPerHour="58.2686970399663"/>
  <flow id="JF133500" begin="5000" fromJunction="J0" toJunction="J7" end="5060" vehsPerHour="85.03272109316505"/>
  <flow id="JF133501" begin="5000" fromJunction="J3" toJunction="J0" end="5060" vehsPerHour="81.55130643542836"/>
  <flow id="JF133502" begin="5000" fromJunction="J3" toJunction="J4" end="5060" vehsPerHour="128.4744918521593"/>
  <flow id="JF133503" begin="5000" fromJunction="J3" toJunction="J7" end="5060" vehsPerHour="5.861043398104829"/>
  <flow id="JF133504" begin="5000" fromJunction="J4" toJunction="J0" end="5060" vehsPerHour="10.37397404610288"/>
  <flow id="JF133505" begin="5000" fromJunction="J4" toJunction="J3" end="5060" vehsPerHour="54.442335817351406"/>
  <flow id="JF133506" begin="5000" fromJunction="J4" toJunction="J5" end="5060" vehsPerHour="27.13490356410532"/>
  <flow id="JF133507" begin="5000" fromJunction="J4" toJunction="J6" end="5060" vehsPerHour="38.18999592149507"/>
  <flow id="JF133508" begin="5000" fromJunction="J4" toJunction="J7" end="5060" vehsPerHour="30.265202208919728"/>
  <flow id="JF133509" begin="5000" fromJunction="J5" toJunction="J3" end="5060" vehsPerHour="54.95189257686329"/>
  <flow id="JF133510" begin="5000" fromJunction="J5" toJunction="J4" end="5060" vehsPerHour="41.02451982889287"/>
  <flow id="JF133511" begin="5000" fromJunction="J5" toJunction="J6" end="5060" vehsPerHour="17.990907686681393"/>
  <flow id="JF133512" begin="5000" fromJunction="J6" toJunction="J0" end="5060" vehsPerHour="61.118449989102025"/>
  <flow id="JF133513" begin="5000" fromJunction="J6" toJunction="J3" end="5060" vehsPerHour="52.18739147029937"/>
  <flow id="JF133514" begin="5000" fromJunction="J6" toJunction="J4" end="5060" vehsPerHour="56.10756206256504"/>
  <flow id="JF133515" begin="5000" fromJunction="J6" toJunction="J7" end="5060" vehsPerHour="62.345377486003436"/>
  <flow id="JF133516" begin="5000" fromJunction="J7" toJunction="J0" end="5060" vehsPerHour="45.610661838428996"/>
  <flow id="JF133517" begin="5000" fromJunction="J7" toJunction="J3" end="5060" vehsPerHour="9.68105420010367"/>
  <flow id="JF133518" begin="5000" fromJunction="J7" toJunction="J4" end="5060" vehsPerHour="3.9224989544054387"/>
  <flow id="JF133519" begin="5000" fromJunction="J7" toJunction="J5" end="5060" vehsPerHour="24.92593271350668"/>
  <flow id="JF133520" begin="5000" fromJunction="J7" toJunction="J6" end="5060" vehsPerHour="55.47508429126049"/>
  <flow id="JF133521" begin="5060" fromJunction="J0" toJunction="J4" end="5120" vehsPerHour="2.4228178309498882"/>
  <flow id="JF133522" begin="5060" fromJunction="J0" toJunction="J6" end="5120" vehsPerHour="133.98864930013065"/>
  <flow id="JF133523" begin="5060" fromJunction="J0" toJunction="J7" end="5120" vehsPerHour="59.84412838271319"/>
  <flow id="JF133524" begin="5060" fromJunction="J3" toJunction="J0" end="5120" vehsPerHour="10.099162468074546"/>
  <flow id="JF133525" begin="5060" fromJunction="J3" toJunction="J4" end="5120" vehsPerHour="6.829283863854385"/>
  <flow id="JF133526" begin="5060" fromJunction="J3" toJunction="J5" end="5120" vehsPerHour="83.87573804679874"/>
  <flow id="JF133527" begin="5060" fromJunction="J3" toJunction="J7" end="5120" vehsPerHour="8.890861801205869"/>
  <flow id="JF133528" begin="5060" fromJunction="J4" toJunction="J3" end="5120" vehsPerHour="44.01722048622316"/>
  <flow id="JF133529" begin="5060" fromJunction="J4" toJunction="J5" end="5120" vehsPerHour="11.502623371869575"/>
  <flow id="JF133530" begin="5060" fromJunction="J4" toJunction="J6" end="5120" vehsPerHour="41.9329025546982"/>
  <flow id="JF133531" begin="5060" fromJunction="J4" toJunction="J7" end="5120" vehsPerHour="34.14300797680954"/>
  <flow id="JF133532" begin="5060" fromJunction="J5" toJunction="J0" end="5120" vehsPerHour="24.23116880751317"/>
  <flow id="JF133533" begin="5060" fromJunction="J5" toJunction="J3" end="5120" vehsPerHour="25.382816961044945"/>
  <flow id="JF133534" begin="5060" fromJunction="J5" toJunction="J4" end="5120" vehsPerHour="64.97722909109305"/>
  <flow id="JF133535" begin="5060" fromJunction="J5" toJunction="J6" end="5120" vehsPerHour="41.90853431455184"/>
  <flow id="JF133536" begin="5060" fromJunction="J6" toJunction="J4" end="5120" vehsPerHour="65.59845028464893"/>
  <flow id="JF133537" begin="5060" fromJunction="J6" toJunction="J5" end="5120" vehsPerHour="17.87892492058639"/>
  <flow id="JF133538" begin="5060" fromJunction="J7" toJunction="J0" end="5120" vehsPerHour="32.099356654566385"/>
  <flow id="JF133539" begin="5060" fromJunction="J7" toJunction="J3" end="5120" vehsPerHour="22.47529265513016"/>
  <flow id="JF133540" begin="5060" fromJunction="J7" toJunction="J4" end="5120" vehsPerHour="25.628033861716986"/>
  <flow id="JF133541" begin="5060" fromJunction="J7" toJunction="J6" end="5120" vehsPerHour="53.45287814819375"/>
  <flow id="JF133542" begin="5120" fromJunction="J0" toJunction="J4" end="5180" vehsPerHour="112.67346690170154"/>
  <flow id="JF133543" begin="5120" fromJunction="J0" toJunction="J5" end="5180" vehsPerHour="75.7750134141947"/>
  <flow id="JF133544" begin="5120" fromJunction="J0" toJunction="J6" end="5180" vehsPerHour="6.917362231872109"/>
  <flow id="JF133545" begin="5120" fromJunction="J0" toJunction="J7" end="5180" vehsPerHour="45.19188223729755"/>
  <flow id="JF133546" begin="5120" fromJunction="J3" toJunction="J0" end="5180" vehsPerHour="88.95568516101625"/>
  <flow id="JF133547" begin="5120" fromJunction="J3" toJunction="J6" end="5180" vehsPerHour="33.521296218505235"/>
  <flow id="JF133548" begin="5120" fromJunction="J3" toJunction="J7" end="5180" vehsPerHour="121.5935281249383"/>
  <flow id="JF133549" begin="5120" fromJunction="J4" toJunction="J0" end="5180" vehsPerHour="40.931555086128114"/>
  <flow id="JF133550" begin="5120" fromJunction="J4" toJunction="J3" end="5180" vehsPerHour="66.91758546878164"/>
  <flow id="JF133551" begin="5120" fromJunction="J4" toJunction="J6" end="5180" vehsPerHour="24.25565147825143"/>
  <flow id="JF133552" begin="5120" fromJunction="J4" toJunction="J7" end="5180" vehsPerHour="34.3553604546066"/>
  <flow id="JF133553" begin="5120" fromJunction="J5" toJunction="J6" end="5180" vehsPerHour="57.97788436908902"/>
  <flow id="JF133554" begin="5120" fromJunction="J5" toJunction="J7" end="5180" vehsPerHour="62.211868365933285"/>
  <flow id="JF133555" begin="5120" fromJunction="J6" toJunction="J3" end="5180" vehsPerHour="21.46993631763362"/>
  <flow id="JF133556" begin="5120" fromJunction="J6" toJunction="J5" end="5180" vehsPerHour="11.818550565834224"/>
  <flow id="JF133557" begin="5120" fromJunction="J6" toJunction="J7" end="5180" vehsPerHour="50.19345688418995"/>
  <flow id="JF133558" begin="5120" fromJunction="J7" toJunction="J0" end="5180" vehsPerHour="21.343782447973382"/>
  <flow id="JF133559" begin="5120" fromJunction="J7" toJunction="J3" end="5180" vehsPerHour="62.61780383100333"/>
  <flow id="JF133560" begin="5120" fromJunction="J7" toJunction="J4" end="5180" vehsPerHour="62.658269645175594"/>
  <flow id="JF133561" begin="5120" fromJunction="J7" toJunction="J6" end="5180" vehsPerHour="52.19479311145543"/>
  <flow id="JF133562" begin="5180" fromJunction="J0" toJunction="J5" end="5240" vehsPerHour="18.86369204879787"/>
  <flow id="JF133563" begin="5180" fromJunction="J0" toJunction="J6" end="5240" vehsPerHour="22.573607576581733"/>
  <flow id="JF133564" begin="5180" fromJunction="J3" toJunction="J0" end="5240" vehsPerHour="58.528442485644916"/>
  <flow id="JF133565" begin="5180" fromJunction="J3" toJunction="J4" end="5240" vehsPerHour="20.364438934198144"/>
  <flow id="JF133566" begin="5180" fromJunction="J3" toJunction="J6" end="5240" vehsPerHour="7.5776731738096474"/>
  <flow id="JF133567" begin="5180" fromJunction="J3" toJunction="J7" end="5240" vehsPerHour="101.36620467732092"/>
  <flow id="JF133568" begin="5180" fromJunction="J4" toJunction="J0" end="5240" vehsPerHour="5.333778866215801"/>
  <flow id="JF133569" begin="5180" fromJunction="J5" toJunction="J3" end="5240" vehsPerHour="41.358978307659605"/>
  <flow id="JF133570" begin="5180" fromJunction="J5" toJunction="J4" end="5240" vehsPerHour="20.549228225341693"/>
  <flow id="JF133571" begin="5180" fromJunction="J5" toJunction="J6" end="5240" vehsPerHour="66.4984537758123"/>
  <flow id="JF133572" begin="5180" fromJunction="J6" toJunction="J0" end="5240" vehsPerHour="26.914290675428134"/>
  <flow id="JF133573" begin="5180" fromJunction="J6" toJunction="J3" end="5240" vehsPerHour="40.129366204559915"/>
  <flow id="JF133574" begin="5180" fromJunction="J6" toJunction="J5" end="5240" vehsPerHour="29.90269122466908"/>
  <flow id="JF133575" begin="5180" fromJunction="J6" toJunction="J7" end="5240" vehsPerHour="9.47935430738922"/>
  <flow id="JF133576" begin="5180" fromJunction="J7" toJunction="J4" end="5240" vehsPerHour="50.9638811203761"/>
  <flow id="JF133577" begin="5180" fromJunction="J7" toJunction="J6" end="5240" vehsPerHour="20.33364240815797"/>
  <flow id="JF133578" begin="5240" fromJunction="J0" toJunction="J4" end="5300" vehsPerHour="55.177213516301435"/>
  <flow id="JF133579" begin="5240" fromJunction="J0" toJunction="J5" end="5300" vehsPerHour="105.98792344112313"/>
  <flow id="JF133580" begin="5240" fromJunction="J0" toJunction="J6" end="5300" vehsPerHour="28.950006158176805"/>
  <flow id="JF133581" begin="5240" fromJunction="J3" toJunction="J0" end="5300" vehsPerHour="78.3184704423736"/>
  <flow id="JF133582" begin="5240" fromJunction="J3" toJunction="J5" end="5300" vehsPerHour="125.33416129603367"/>
  <flow id="JF133583" begin="5240" fromJunction="J3" toJunction="J7" end="5300" vehsPerHour="16.786202370503297"/>
  <flow id="JF133584" begin="5240" fromJunction="J4" toJunction="J0" end="5300" vehsPerHour="3.73769140372071"/>
  <flow id="JF133585" begin="5240" fromJunction="J4" toJunction="J5" end="5300" vehsPerHour="27.82185020546028"/>
  <flow id="JF133586" begin="5240" fromJunction="J4" toJunction="J6" end="5300" vehsPerHour="22.70305130415304"/>
  <flow id="JF133587" begin="5240" fromJunction="J4" toJunction="J7" end="5300" vehsPerHour="39.738142129973085"/>
  <flow id="JF133588" begin="5240" fromJunction="J5" toJunction="J3" end="5300" vehsPerHour="60.07851575388137"/>
  <flow id="JF133589" begin="5240" fromJunction="J5" toJunction="J4" end="5300" vehsPerHour="39.071333066637415"/>
  <flow id="JF133590" begin="5240" fromJunction="J5" toJunction="J7" end="5300" vehsPerHour="49.81669291079638"/>
  <flow id="JF133591" begin="5240" fromJunction="J6" toJunction="J3" end="5300" vehsPerHour="47.03764833981996"/>
  <flow id="JF133592" begin="5240" fromJunction="J6" toJunction="J5" end="5300" vehsPerHour="24.47667721318612"/>
  <flow id="JF133593" begin="5240" fromJunction="J6" toJunction="J7" end="5300" vehsPerHour="32.07422016643236"/>
  <flow id="JF133594" begin="5240" fromJunction="J7" toJunction="J0" end="5300" vehsPerHour="64.15066300368414"/>
  <flow id="JF133595" begin="5240" fromJunction="J7" toJunction="J3" end="5300" vehsPerHour="53.20601993199336"/>
  <flow id="JF133596" begin="5240" fromJunction="J7" toJunction="J5" end="5300" vehsPerHour="31.06648979497857"/>
  <flow id="JF133597" begin="5300" fromJunction="J0" toJunction="J3" end="5360" vehsPerHour="94.14896326034473"/>
  <flow id="JF133598" begin="5300" fromJunction="J0" toJunction="J6" end="5360" vehsPerHour="92.90305350468299"/>
  <flow id="JF133599" begin="5300" fromJunction="J0" toJunction="J7" end="5360" vehsPerHour="0.7957758686665369"/>
  <flow id="JF133600" begin="5300" fromJunction="J3" toJunction="J0" end="5360" vehsPerHour="29.73006179407587"/>
  <flow id="JF133601" begin="5300" fromJunction="J3" toJunction="J4" end="5360" vehsPerHour="3.1645624620477038"/>
  <flow id="JF133602" begin="5300" fromJunction="J3" toJunction="J5" end="5360" vehsPerHour="125.36590833723163"/>
  <flow id="JF133603" begin="5300" fromJunction="J3" toJunction="J6" end="5360" vehsPerHour="56.28250556003749"/>
  <flow id="JF133604" begin="5300" fromJunction="J3" toJunction="J7" end="5360" vehsPerHour="54.93628878666832"/>
  <flow id="JF133605" begin="5300" fromJunction="J4" toJunction="J0" end="5360" vehsPerHour="49.62491450013565"/>
  <flow id="JF133606" begin="5300" fromJunction="J4" toJunction="J3" end="5360" vehsPerHour="35.03664944217596"/>
  <flow id="JF133607" begin="5300" fromJunction="J4" toJunction="J6" end="5360" vehsPerHour="38.879902450286274"/>
  <flow id="JF133608" begin="5300" fromJunction="J4" toJunction="J7" end="5360" vehsPerHour="18.930459351054353"/>
  <flow id="JF133609" begin="5300" fromJunction="J5" toJunction="J3" end="5360" vehsPerHour="13.065814182521192"/>
  <flow id="JF133610" begin="5300" fromJunction="J5" toJunction="J4" end="5360" vehsPerHour="15.712316680316182"/>
  <flow id="JF133611" begin="5300" fromJunction="J5" toJunction="J6" end="5360" vehsPerHour="8.788188559178094"/>
  <flow id="JF133612" begin="5300" fromJunction="J5" toJunction="J7" end="5360" vehsPerHour="6.263553867282962"/>
  <flow id="JF133613" begin="5300" fromJunction="J6" toJunction="J4" end="5360" vehsPerHour="7.0817953222800885"/>
  <flow id="JF133614" begin="5300" fromJunction="J6" toJunction="J5" end="5360" vehsPerHour="17.79711467568405"/>
  <flow id="JF133615" begin="5300" fromJunction="J6" toJunction="J7" end="5360" vehsPerHour="13.69215359194503"/>
  <flow id="JF133616" begin="5300" fromJunction="J7" toJunction="J0" end="5360" vehsPerHour="17.095878902778807"/>
  <flow id="JF133617" begin="5300" fromJunction="J7" toJunction="J4" end="5360" vehsPerHour="47.94771962360983"/>
  <flow id="JF133618" begin="5300" fromJunction="J7" toJunction="J5" end="5360" vehsPerHour="18.254876944108112"/>
  <flow id="JF133619" begin="5360" fromJunction="J0" toJunction="J3" end="5420" vehsPerHour="55.76341911342431"/>
  <flow id="JF133620" begin="5360" fromJunction="J0" toJunction="J4" end="5420" vehsPerHour="88.95847799248217"/>
  <flow id="JF133621" begin="5360" fromJunction="J0" toJunction="J5" end="5420" vehsPerHour="112.24441182644742"/>
  <flow id="JF133622" begin="5360" fromJunction="J0" toJunction="J7" end="5420" vehsPerHour="95.3123645722881"/>
  <flow id="JF133623" begin="5360" fromJunction="J3" toJunction="J0" end="5420" vehsPerHour="8.258163623753875"/>
  <flow id="JF133624" begin="5360" fromJunction="J3" toJunction="J4" end="5420" vehsPerHour="100.22861363656685"/>
  <flow id="JF133625" begin="5360" fromJunction="J4" toJunction="J0" end="5420" vehsPerHour="18.239465012648246"/>
  <flow id="JF133626" begin="5360" fromJunction="J4" toJunction="J3" end="5420" vehsPerHour="16.844692301513522"/>
  <flow id="JF133627" begin="5360" fromJunction="J4" toJunction="J5" end="5420" vehsPerHour="3.520892830185327"/>
  <flow id="JF133628" begin="5360" fromJunction="J5" toJunction="J3" end="5420" vehsPerHour="11.306632781312377"/>
  <flow id="JF133629" begin="5360" fromJunction="J5" toJunction="J7" end="5420" vehsPerHour="8.096803088187489"/>
  <flow id="JF133630" begin="5360" fromJunction="J6" toJunction="J3" end="5420" vehsPerHour="36.62284950554824"/>
  <flow id="JF133631" begin="5360" fromJunction="J6" toJunction="J4" end="5420" vehsPerHour="15.76962215037209"/>
  <flow id="JF133632" begin="5360" fromJunction="J6" toJunction="J5" end="5420" vehsPerHour="57.560746679681664"/>
  <flow id="JF133633" begin="5360" fromJunction="J7" toJunction="J0" end="5420" vehsPerHour="24.862030579125793"/>
  <flow id="JF133634" begin="5360" fromJunction="J7" toJunction="J3" end="5420" vehsPerHour="29.403471748881238"/>
  <flow id="JF133635" begin="5360" fromJunction="J7" toJunction="J4" end="5420" vehsPerHour="17.853955995952514"/>
  <flow id="JF133636" begin="5360" fromJunction="J7" toJunction="J5" end="5420" vehsPerHour="44.22653019103565"/>
  <flow id="JF133637" begin="5360" fromJunction="J7" toJunction="J6" end="5420" vehsPerHour="22.612323986481975"/>
  <flow id="JF133638" begin="5420" fromJunction="J0" toJunction="J3" end="5480" vehsPerHour="30.252871006389242"/>
  <flow id="JF133639" begin="5420" fromJunction="J0" toJunction="J4" end="5480" vehsPerHour="35.09183533295281"/>
  <flow id="JF133640" begin="5420" fromJunction="J0" toJunction="J5" end="5480" vehsPerHour="85.20103362391141"/>
  <flow id="JF133641" begin="5420" fromJunction="J0" toJunction="J7" end="5480" vehsPerHour="28.47346914657863"/>
  <flow id="JF133642" begin="5420" fromJunction="J3" toJunction="J0" end="5480" vehsPerHour="31.711396236874847"/>
  <flow id="JF133643" begin="5420" fromJunction="J3" toJunction="J4" end="5480" vehsPerHour="103.20667740336572"/>
  <flow id="JF133644" begin="5420" fromJunction="J3" toJunction="J7" end="5480" vehsPerHour="73.73472781373673"/>
  <flow id="JF133645" begin="5420" fromJunction="J4" toJunction="J0" end="5480" vehsPerHour="31.490499841204347"/>
  <flow id="JF133646" begin="5420" fromJunction="J4" toJunction="J3" end="5480" vehsPerHour="46.007669437579615"/>
  <flow id="JF133647" begin="5420" fromJunction="J4" toJunction="J6" end="5480" vehsPerHour="4.377899634216625"/>
  <flow id="JF133648" begin="5420" fromJunction="J4" toJunction="J7" end="5480" vehsPerHour="0.3959178558231975"/>
  <flow id="JF133649" begin="5420" fromJunction="J5" toJunction="J0" end="5480" vehsPerHour="67.30071826654326"/>
  <flow id="JF133650" begin="5420" fromJunction="J5" toJunction="J3" end="5480" vehsPerHour="31.454937412404774"/>
  <flow id="JF133651" begin="5420" fromJunction="J5" toJunction="J4" end="5480" vehsPerHour="51.18972080920947"/>
  <flow id="JF133652" begin="5420" fromJunction="J5" toJunction="J7" end="5480" vehsPerHour="23.47156102205569"/>
  <flow id="JF133653" begin="5420" fromJunction="J6" toJunction="J0" end="5480" vehsPerHour="18.646329998247342"/>
  <flow id="JF133654" begin="5420" fromJunction="J6" toJunction="J4" end="5480" vehsPerHour="36.80955836684425"/>
  <flow id="JF133655" begin="5420" fromJunction="J6" toJunction="J5" end="5480" vehsPerHour="53.48971651021552"/>
  <flow id="JF133656" begin="5420" fromJunction="J6" toJunction="J7" end="5480" vehsPerHour="54.936133012361104"/>
  <flow id="JF133657" begin="5420" fromJunction="J7" toJunction="J0" end="5480" vehsPerHour="38.91884148451909"/>
  <flow id="JF133658" begin="5420" fromJunction="J7" toJunction="J3" end="5480" vehsPerHour="44.71919488365612"/>
  <flow id="JF133659" begin="5420" fromJunction="J7" toJunction="J4" end="5480" vehsPerHour="21.53353025118124"/>
  <flow id="JF133660" begin="5420" fromJunction="J7" toJunction="J5" end="5480" vehsPerHour="18.67126690315939"/>
  <flow id="JF133661" begin="5420" fromJunction="J7" toJunction="J6" end="5480" vehsPerHour="34.44665622838429"/>
  <flow id="JF133662" begin="5480" fromJunction="J0" toJunction="J3" end="5540" vehsPerHour="60.67644442642642"/>
  <flow id="JF133663" begin="5480" fromJunction="J0" toJunction="J5" end="5540" vehsPerHour="87.27699593926444"/>
  <flow id="JF133664" begin="5480" fromJunction="J0" toJunction="J6" end="5540" vehsPerHour="89.27586742847731"/>
  <flow id="JF133665" begin="5480" fromJunction="J0" toJunction="J7" end="5540" vehsPerHour="60.60684805205646"/>
  <flow id="JF133666" begin="5480" fromJunction="J3" toJunction="J0" end="5540" vehsPerHour="5.489945012948895"/>
  <flow id="JF133667" begin="5480" fromJunction="J3" toJunction="J5" end="5540" vehsPerHour="102.49854574653932"/>
  <flow id="JF133668" begin="5480" fromJunction="J3" toJunction="J6" end="5540" vehsPerHour="106.59780114051597"/>
  <flow id="JF133669" begin="5480" fromJunction="J3" toJunction="J7" end="5540" vehsPerHour="38.542812514512434"/>
  <flow id="JF133670" begin="5480" fromJunction="J4" toJunction="J0" end="5540" vehsPerHour="15.62014342521908"/>
  <flow id="JF133671" begin="5480" fromJunction="J4" toJunction="J3" end="5540" vehsPerHour="0.06741708311952595"/>
  <flow id="JF133672" begin="5480" fromJunction="J4" toJunction="J5" end="5540" vehsPerHour="25.685828933068752"/>
  <flow id="JF133673" begin="5480" fromJunction="J4" toJunction="J6" end="5540" vehsPerHour="42.348433264227396"/>
  <flow id="JF133674" begin="5480" fromJunction="J5" toJunction="J4" end="5540" vehsPerHour="22.339499569617185"/>
  <flow id="JF133675" begin="5480" fromJunction="J5" toJunction="J7" end="5540" vehsPerHour="23.304403254131962"/>
  <flow id="JF133676" begin="5480" fromJunction="J6" toJunction="J0" end="5540" vehsPerHour="53.224905769567194"/>
  <flow id="JF133677" begin="5480" fromJunction="J6" toJunction="J3" end="5540" vehsPerHour="67.49288500147183"/>
  <flow id="JF133678" begin="5480" fromJunction="J6" toJunction="J5" end="5540" vehsPerHour="5.895640940849132"/>
  <flow id="JF133679" begin="5480" fromJunction="J6" toJunction="J7" end="5540" vehsPerHour="62.465832995485634"/>
  <flow id="JF133680" begin="5480" fromJunction="J7" toJunction="J0" end="5540" vehsPerHour="11.793085403638944"/>
  <flow id="JF133681" begin="5480" fromJunction="J7" toJunction="J3" end="5540" vehsPerHour="50.89998131563907"/>
  <flow id="JF133682" begin="5480" fromJunction="J7" toJunction="J5" end="5540" vehsPerHour="45.60510524882196"/>
  <flow id="JF133683" begin="5540" fromJunction="J0" toJunction="J3" end="5600" vehsPerHour="27.66164808412922"/>
  <flow id="JF133684" begin="5540" fromJunction="J0" toJunction="J4" end="5600" vehsPerHour="117.47132332576412"/>
  <flow id="JF133685" begin="5540" fromJunction="J0" toJunction="J5" end="5600" vehsPerHour="83.5785245364335"/>
  <flow id="JF133686" begin="5540" fromJunction="J0" toJunction="J6" end="5600" vehsPerHour="42.97324404186025"/>
  <flow id="JF133687" begin="5540" fromJunction="J0" toJunction="J7" end="5600" vehsPerHour="37.066647089985736"/>
  <flow id="JF133688" begin="5540" fromJunction="J3" toJunction="J5" end="5600" vehsPerHour="84.7438485278749"/>
  <flow id="JF133689" begin="5540" fromJunction="J3" toJunction="J6" end="5600" vehsPerHour="34.50595823990759"/>
  <flow id="JF133690" begin="5540" fromJunction="J3" toJunction="J7" end="5600" vehsPerHour="130.9524061472136"/>
  <flow id="JF133691" begin="5540" fromJunction="J4" toJunction="J3" end="5600" vehsPerHour="22.976092010597288"/>
  <flow id="JF133692" begin="5540" fromJunction="J4" toJunction="J5" end="5600" vehsPerHour="3.489384132175527"/>
  <flow id="JF133693" begin="5540" fromJunction="J4" toJunction="J6" end="5600" vehsPerHour="32.04127946796152"/>
  <flow id="JF133694" begin="5540" fromJunction="J4" toJunction="J7" end="5600" vehsPerHour="1.1513319701716767"/>
  <flow id="JF133695" begin="5540" fromJunction="J5" toJunction="J0" end="5600" vehsPerHour="41.4033292364468"/>
  <flow id="JF133696" begin="5540" fromJunction="J5" toJunction="J6" end="5600" vehsPerHour="47.54381367445697"/>
  <flow id="JF133697" begin="5540" fromJunction="J5" toJunction="J7" end="5600" vehsPerHour="13.715215608885535"/>
  <flow id="JF133698" begin="5540" fromJunction="J6" toJunction="J4" end="5600" vehsPerHour="51.26159591437194"/>
  <flow id="JF133699" begin="5540" fromJunction="J6" toJunction="J5" end="5600" vehsPerHour="64.58258970515324"/>
  <flow id="JF133700" begin="5540" fromJunction="J6" toJunction="J7" end="5600" vehsPerHour="9.200901416139828"/>
  <flow id="JF133701" begin="5540" fromJunction="J7" toJunction="J0" end="5600" vehsPerHour="42.77977905806614"/>
  <flow id="JF133702" begin="5540" fromJunction="J7" toJunction="J4" end="5600" vehsPerHour="22.66147245663249"/>
  <flow id="JF133703" begin="5540" fromJunction="J7" toJunction="J5" end="5600" vehsPerHour="64.44395228295568"/>
  <flow id="JF133704" begin="5540" fromJunction="J7" toJunction="J6" end="5600" vehsPerHour="5.392829093725942"/>
  <flow id="JF133705" begin="5600" fromJunction="J0" toJunction="J3" end="5660" vehsPerHour="31.369562450498904"/>
  <flow id="JF133706" begin="5600" fromJunction="J0" toJunction="J4" end="5660" vehsPerHour="104.54409081619593"/>
  <flow id="JF133707" begin="5600" fromJunction="J0" toJunction="J5" end="5660" vehsPerHour="95.41155520231362"/>
  <flow id="JF133708" begin="5600" fromJunction="J0" toJunction="J6" end="5660" vehsPerHour="74.61537393770706"/>
  <flow id="JF133709" begin="5600" fromJunction="J3" toJunction="J7" end="5660" vehsPerHour="80.09275382257668"/>
  <flow id="JF133710" begin="5600" fromJunction="J4" toJunction="J0" end="5660" vehsPerHour="55.35239606237662"/>
  <flow id="JF133711" begin="5600" fromJunction="J4" toJunction="J3" end="5660" vehsPerHour="12.332822307976848"/>
  <flow id="JF133712" begin="5600" fromJunction="J4" toJunction="J6" end="5660" vehsPerHour="18.95790101798574"/>
  <flow id="JF133713" begin="5600" fromJunction="J5" toJunction="J0" end="5660" vehsPerHour="52.03600778375408"/>
  <flow id="JF133714" begin="5600" fromJunction="J5" toJunction="J3" end="5660" vehsPerHour="21.514702709076865"/>
  <flow id="JF133715" begin="5600" fromJunction="J5" toJunction="J4" end="5660" vehsPerHour="27.99856868919712"/>
  <flow id="JF133716" begin="5600" fromJunction="J5" toJunction="J7" end="5660" vehsPerHour="61.24875175404485"/>
  <flow id="JF133717" begin="5600" fromJunction="J6" toJunction="J3" end="5660" vehsPerHour="54.153013083620905"/>
  <flow id="JF133718" begin="5600" fromJunction="J6" toJunction="J4" end="5660" vehsPerHour="19.598278539967488"/>
  <flow id="JF133719" begin="5600" fromJunction="J6" toJunction="J7" end="5660" vehsPerHour="58.371183140801335"/>
  <flow id="JF133720" begin="5600" fromJunction="J7" toJunction="J0" end="5660" vehsPerHour="20.85213910462076"/>
  <flow id="JF133721" begin="5600" fromJunction="J7" toJunction="J4" end="5660" vehsPerHour="26.491934601202214"/>
  <flow id="JF133722" begin="5600" fromJunction="J7" toJunction="J5" end="5660" vehsPerHour="36.897502938007776"/>
  <flow id="JF133723" begin="5660" fromJunction="J0" toJunction="J4" end="5720" vehsPerHour="12.598817018230415"/>
  <flow id="JF133724" begin="5660" fromJunction="J0" toJunction="J5" end="5720" vehsPerHour="0.073304357937143"/>
  <flow id="JF133725" begin="5660" fromJunction="J0" toJunction="J6" end="5720" vehsPerHour="77.2923731596911"/>
  <flow id="JF133726" begin="5660" fromJunction="J0" toJunction="J7" end="5720" vehsPerHour="24.602793931425104"/>
  <flow id="JF133727" begin="5660" fromJunction="J3" toJunction="J0" end="5720" vehsPerHour="90.13159680398483"/>
  <flow id="JF133728" begin="5660" fromJunction="J3" toJunction="J4" end="5720" vehsPerHour="62.07617214218759"/>
  <flow id="JF133729" begin="5660" fromJunction="J3" toJunction="J7" end="5720" vehsPerHour="45.46511730043699"/>