<?xml version="1.0" encoding="UTF-8"?>
<routes xmlns:xsi="http://www.w3.org/2001/XMLSchema-instance" xsi:noNamespaceSchemaLocation="http://sumo.dlr.de/xsd/routes_file.xsd">
  <flow id="JF129930" begin="0" fromJunction="J3" toJunction="J0" end="5000" vehsPerHour="1290.7888153378165"/>
  <flow id="JF129931" begin="0" fromJunction="J0" toJunction="J3" end="5000" vehsPerHour="408.24569275134485"/>
  <flow id="JF129932" begin="0" fromJunction="J3" toJunction="J7" end="5000" vehsPerHour="85.03429285540561"/>
  <flow id="JF129933" begin="0" fromJunction="J3" toJunction="J6" end="5000" vehsPerHour="14.474454687355273"/>
  <flow id="JF129934" begin="0" fromJunction="J3" toJunction="J5" end="5000" vehsPerHour="99.63631794307643"/>
  <flow id="JF129935" begin="0" fromJunction="J3" toJunction="J4" end="5000" vehsPerHour="32.550659345081954"/>
  <flow id="JF129936" begin="0" fromJunction="J0" toJunction="J7" end="5000" vehsPerHour="95.2039355583894"/>
  <flow id="JF129937" begin="0" fromJunction="J0" toJunction="J6" end="5000" vehsPerHour="23.734607438083604"/>
  <flow id="JF129938" begin="0" fromJunction="J0" toJunction="J5" end="5000" vehsPerHour="8.638354822441764"/>
  <flow id="JF129939" begin="0" fromJunction="J0" toJunction="J4" end="5000" vehsPerHour="121.71278532670256"/>
  <flow id="JF129940" begin="0" fromJunction="J7" toJunction="J6" end="5000" vehsPerHour="208.18690447910333"/>
  <flow id="JF129941" begin="0" fromJunction="J7" toJunction="J5" end="5000" vehsPerHour="103.93751576422953"/>
  <flow id="JF129942" begin="0" fromJunction="J7" toJunction="J4" end="5000" vehsPerHour="166.14363923091287"/>
  <flow id="JF129943" begin="0" fromJunction="J6" toJunction="J7" end="5000" vehsPerHour="48.69071113119228"/>
  <flow id="JF129944" begin="0" fromJunction="J6" toJunction="J5" end="5000" vehsPerHour="241.53893572530788"/>
  <flow id="JF129945" begin="0" fromJunction="J6" toJunction="J4" end="5000" vehsPerHour="78.77724888904156"/>
  <flow id="JF129946" begin="0" fromJunction="J5" toJunction="J7" end="5000" vehsPerHour="160.0864201611452"/>
  <flow id="JF129947" begin="0" fromJunction="J5" toJunction="J6" end="5000" vehsPerHour="77.9957497214796"/>
  <flow id="JF129948" begin="0" fromJunction="J5" toJunction="J4" end="5000" vehsPerHour="181.4799908359144"/>
  <flow id="JF129949" begin="0" fromJunction="J4" toJunction="J7" end="5000" vehsPerHour="236.03987973832184"/>
  <flow id="JF129950" begin="0" fromJunction="J4" toJunction="J6" end="5000" vehsPerHour="233.7939473746847"/>
  <flow id="JF129951" begin="0" fromJunction="J4" toJunction="J5" end="5000" vehsPerHour="272.0599381338655"/>
  <flow id="JF129952" begin="0" fromJunction="J7" toJunction="J3" end="5000" vehsPerHour="44.97291212178101"/>
  <flow id="JF129953" begin="0" fromJunction="J7" toJunction="J0" end="5000" vehsPerHour="35.22634300463844"/>
  <flow id="JF129954" begin="0" fromJunction="J6" toJunction="J3" end="5000" vehsPerHour="55.97850997932058"/>
  <flow id="JF129955" begin="0" fromJunction="J6" toJunction="J0" end="5000" vehsPerHour="65.50357697377092"/>
  <flow id="JF129956" begin="0" fromJunction="J5" toJunction="J3" end="5000" vehsPerHour="40.285100494552864"/>
  <flow id="JF129957" begin="0" fromJunction="J5" toJunction="J0" end="5000" vehsPerHour="67.35750218187363"/>
  <flow id="JF129958" begin="0" fromJunction="J4" toJunction="J3" end="5000" vehsPerHour="47.04674366993086"/>
  <flow id="JF129959" begin="0" fromJunction="J4" toJunction="J0" end="5000" vehsPerHour="7.8063901220175085"/>
  <flow id="JF129960" begin="5000" fromJunction="J0" toJunction="J3" end="5060" vehsPerHour="25.512314480680296"/>
  <flow id="JF129961" begin="5000" fromJunction="J0" toJunction="J7" end="5060" vehsPerHour="49.54241706835158"/>
  <flow id="JF129962" begin="5000" fromJunction="J3" toJunction="J0" end="5060" vehsPerHour="75.82913195142504"/>
  <flow id="JF129963" begin="5000" fromJunction="J3" toJunction="J4" end="5060" vehsPerHour="0.11027931070298432"/>
  <flow id="JF129964" begin="5000" fromJunction="J3" toJunction="J5" end="5060" vehsPerHour="93.80543751703362"/>
  <flow id="JF129965" begin="5000" fromJunction="J3" toJunction="J6" end="5060" vehsPerHour="23.65323747399981"/>
  <flow id="JF129966" begin="5000" fromJunction="J3" toJunction="J7" end="5060" vehsPerHour="122.7249894263286"/>
  <flow id="JF129967" begin="5000" fromJunction="J4" toJunction="J0" end="5060" vehsPerHour="44.90185963446374"/>
  <flow id="JF129968" begin="5000" fromJunction="J4" toJunction="J3" end="5060" vehsPerHour="67.01868573620972"/>
  <flow id="JF129969" begin="5000" fromJunction="J4" toJunction="J6" end="5060" vehsPerHour="54.18494620364807"/>
  <flow id="JF129970" begin="5000" fromJunction="J5" toJunction="J0" end="5060" vehsPerHour="28.629143171489048"/>
  <flow id="JF129971" begin="5000" fromJunction="J5" toJunction="J3" end="5060" vehsPerHour="31.330138067593882"/>
  <flow id="JF129972" begin="5000" fromJunction="J5" toJunction="J4" end="5060" vehsPerHour="0.4390207318755387"/>
  <flow id="JF129973" begin="5000" fromJunction="J5" toJunction="J6" end="5060" vehsPerHour="54.95471496766192"/>
  <flow id="JF129974" begin="5000" fromJunction="J5" toJunction="J7" end="5060" vehsPerHour="55.56199705398536"/>
  <flow id="JF129975" begin="5000" fromJunction="J6" toJunction="J5" end="5060" vehsPerHour="37.739016885500455"/>
  <flow id="JF129976" begin="5000" fromJunction="J7" toJunction="J0" end="5060" vehsPerHour="17.76988632126597"/>
  <flow id="JF129977" begin="5000" fromJunction="J7" toJunction="J3" end="5060" vehsPerHour="43.50545388663177"/>
  <flow id="JF129978" begin="5000" fromJunction="J7" toJunction="J4" end="5060" vehsPerHour="59.851072430653375"/>
  <flow id="JF129979" begin="5000" fromJunction="J7" toJunction="J5" end="5060" vehsPerHour="46.76590349578911"/>
  <flow id="JF129980" begin="5060" fromJunction="J0" toJunction="J3" end="5120" vehsPerHour="14.824372047252792"/>
  <flow id="JF129981" begin="5060" fromJunction="J0" toJunction="J4" end="5120" vehsPerHour="66.4770299378772"/>
  <flow id="JF129982" begin="5060" fromJunction="J0" toJunction="J5" end="5120" vehsPerHour="82.30013793634467"/>
  <flow id="JF129983" begin="5060" fromJunction="J3" toJunction="J0" end="5120" vehsPerHour="83.69904897593334"/>
  <flow id="JF129984" begin="5060" fromJunction="J3" toJunction="J4" end="5120" vehsPerHour="106.54156166243058"/>
  <flow id="JF129985" begin="5060" fromJunction="J3" toJunction="J5" end="5120" vehsPerHour="52.7463599697172"/>
  <flow id="JF129986" begin="5060" fromJunction="J3" toJunction="J7" end="5120" vehsPerHour="120.84724576213793"/>
  <flow id="JF129987" begin="5060" fromJunction="J4" toJunction="J0" end="5120" vehsPerHour="39.11663388082578"/>
  <flow id="JF129988" begin="5060" fromJunction="J4" toJunction="J5" end="5120" vehsPerHour="11.114955324547998"/>
  <flow id="JF129989" begin="5060" fromJunction="J4" toJunction="J6" end="5120" vehsPerHour="64.67793052729135"/>
  <flow id="JF129990" begin="5060" fromJunction="J5" toJunction="J0" end="5120" vehsPerHour="55.600903792299604"/>
  <flow id="JF129991" begin="5060" fromJunction="J5" toJunction="J4" end="5120" vehsPerHour="49.34359707344154"/>
  <flow id="JF129992" begin="5060" fromJunction="J5" toJunction="J7" end="5120" vehsPerHour="16.53385135942508"/>
  <flow id="JF129993" begin="5060" fromJunction="J6" toJunction="J3" end="5120" vehsPerHour="52.09823559761948"/>
  <flow id="JF129994" begin="5060" fromJunction="J6" toJunction="J4" end="5120" vehsPerHour="20.926698845489234"/>
  <flow id="JF129995" begin="5060" fromJunction="J6" toJunction="J7" end="5120" vehsPerHour="36.915331679190565"/>
  <flow id="JF129996" begin="5060" fromJunction="J7" toJunction="J0" end="5120" vehsPerHour="55.82626017211616"/>
  <flow id="JF129997" begin="5060" fromJunction="J7" toJunction="J3" end="5120" vehsPerHour="21.547510622869602"/>
  <flow id="JF129998" begin="5060" fromJunction="J7" toJunction="J4" end="5120" vehsPerHour="5.926006963495031"/>
  <flow id="JF129999" begin="5060" fromJunction="J7" toJunction="J5" end="5120" vehsPerHour="46.781862846763985"/>
  <flow id="JF130000" begin="5120" fromJunction="J0" toJunction="J4" end="5180" vehsPerHour="30.30991868129618"/>
  <flow id="JF130001" begin="5120" fromJunction="J0" toJunction="J5" end="5180" vehsPerHour="29.521987184559936"/>
  <flow id="JF130002" begin="5120" fromJunction="J3" toJunction="J0" end="5180" vehsPerHour="128.49206478554726"/>
  <flow id="JF130003" begin="5120" fromJunction="J3" toJunction="J4" end="5180" vehsPerHour="88.4749355086568"/>
  <flow id="JF130004" begin="5120" fromJunction="J3" toJunction="J5" end="5180" vehsPerHour="59.37983244272296"/>
  <flow id="JF130005" begin="5120" fromJunction="J3" toJunction="J6" end="5180" vehsPerHour="132.65529247309502"/>
  <flow id="JF130006" begin="5120" fromJunction="J3" toJunction="J7" end="5180" vehsPerHour="93.78778690883381"/>
  <flow id="JF130007" begin="5120" fromJunction="J4" toJunction="J0" end="5180" vehsPerHour="3.0996792039405205"/>
  <flow id="JF130008" begin="5120" fromJunction="J4" toJunction="J3" end="5180" vehsPerHour="53.685855596921854"/>
  <flow id="JF130009" begin="5120" fromJunction="J4" toJunction="J5" end="5180" vehsPerHour="7.358932314560006"/>
  <flow id="JF130010" begin="5120" fromJunction="J4" toJunction="J7" end="5180" vehsPerHour="10.691847512905303"/>
  <flow id="JF130011" begin="5120" fromJunction="J5" toJunction="J0" end="5180" vehsPerHour="52.353865364436885"/>
  <flow id="JF130012" begin="5120" fromJunction="J5" toJunction="J4" end="5180" vehsPerHour="17.665996418266328"/>
  <flow id="JF130013" begin="5120" fromJunction="J5" toJunction="J6" end="5180" vehsPerHour="32.175315397116066"/>
  <flow id="JF130014" begin="5120" fromJunction="J5" toJunction="J7" end="5180" vehsPerHour="5.0392128345894145"/>
  <flow id="JF130015" begin="5120" fromJunction="J6" toJunction="J0" end="5180" vehsPerHour="34.31017296821282"/>
  <flow id="JF130016" begin="5120" fromJunction="J6" toJunction="J3" end="5180" vehsPerHour="53.16869093614663"/>
  <flow id="JF130017" begin="5120" fromJunction="J6" toJunction="J4" end="5180" vehsPerHour="10.588806260054307"/>
  <flow id="JF130018" begin="5120" fromJunction="J6" toJunction="J5" end="5180" vehsPerHour="22.18934511197282"/>
  <flow id="JF130019" begin="5120" fromJunction="J7" toJunction="J0" end="5180" vehsPerHour="6.9792896789931795"/>
  <flow id="JF130020" begin="5120" fromJunction="J7" toJunction="J3" end="5180" vehsPerHour="66.21366694490644"/>
  <flow id="JF130021" begin="5120" fromJunction="J7" toJunction="J4" end="5180" vehsPerHour="22.244014017060987"/>
  <flow id="JF130022" begin="5180" fromJunction="J0" toJunction="J3" end="5240" vehsPerHour="114.56760694364344"/>
  <flow id="JF130023" begin="5180" fromJunction="J0" toJunction="J4" end="5240" vehsPerHour="38.93284609682603"/>
  <flow id="JF130024" begin="5180" fromJunction="J0" toJunction="J6" end="5240" vehsPerHour="13.722771118130462"/>
  <flow id="JF130025" begin="5180" fromJunction="J3" toJunction="J4" end="5240" vehsPerHour="106.48949008080288"/>
  <flow id="JF130026" begin="5180" fromJunction="J3" toJunction="J5" end="5240" vehsPerHour="13.102701977048218"/>
  <flow id="JF130027" begin="5180" fromJunction="J3" toJunction="J7" end="5240" vehsPerHour="4.175219691502149"/>
  <flow id="JF130028" begin="5180" fromJunction="J4" toJunction="J0" end="5240" vehsPerHour="67.57709952673082"/>
  <flow id="JF130029" begin="5180" fromJunction="J4" toJunction="J5" end="5240" vehsPerHour="21.715953529821686"/>
  <flow id="JF130030" begin="5180" fromJunction="J4" toJunction="J6" end="5240" vehsPerHour="12.830220647200674"/>
  <flow id="JF130031" begin="5180" fromJunction="J4" toJunction="J7" end="5240" vehsPerHour="48.08395123377683"/>
  <flow id="JF130032" begin="5180" fromJunction="J5" toJunction="J0" end="5240" vehsPerHour="41.99283691693165"/>
  <flow id="JF130033" begin="5180" fromJunction="J5" toJunction="J3" end="5240" vehsPerHour="65.63060134115116"/>
  <flow id="JF130034" begin="5180" fromJunction="J5" toJunction="J4" end="5240" vehsPerHour="6.978241297561732"/>
  <flow id="JF130035" begin="5180" fromJunction="J5" toJunction="J7" end="5240" vehsPerHour="66.8435318265213"/>
  <flow id="JF130036" begin="5180" fromJunction="J6" toJunction="J0" end="5240" vehsPerHour="34.672977501935264"/>
  <flow id="JF130037" begin="5180" fromJunction="J6" toJunction="J4" end="5240" vehsPerHour="23.85393264413363"/>
  <flow id="JF130038" begin="5180" fromJunction="J6" toJunction="J5" end="5240" vehsPerHour="34.32514466818256"/>
  <flow id="JF130039" begin="5180" fromJunction="J6" toJunction="J7" end="5240" vehsPerHour="36.03438788914285"/>
  <flow id="JF130040" begin="5180" fromJunction="J7" toJunction="J0" end="5240" vehsPerHour="18.682318185922924"/>
  <flow id="JF130041" begin="5180" fromJunction="J7" toJunction="J3" end="5240" vehsPerHour="16.98448787754414"/>
  <flow id="JF130042" begin="5240" fromJunction="J0" toJunction="J4" end="5300" vehsPerHour="134.34735666166952"/>
  <flow id="JF130043" begin="5240" fromJunction="J0" toJunction="J5" end="5300" vehsPerHour="28.15281279315579"/>
  <flow id="JF130044" begin="5240" fromJunction="J0" toJunction="J7" end="5300" vehsPerHour="48.87941577499824"/>
  <flow id="JF130045" begin="5240" fromJunction="J3" toJunction="J0" end="5300" vehsPerHour="99.17148788105203"/>
  <flow id="JF130046" begin="5240" fromJunction="J3" toJunction="J4" end="5300" vehsPerHour="84.73362423609538"/>
  <flow id="JF130047" begin="5240" fromJunction="J4" toJunction="J0" end="5300" vehsPerHour="55.71172800777645"/>
  <flow id="JF130048" begin="5240" fromJunction="J4" toJunction="J3" end="5300" vehsPerHour="43.05690250933138"/>
  <flow id="JF130049" begin="5240" fromJunction="J4" toJunction="J6" end="5300" vehsPerHour="15.698565312084908"/>
  <flow id="JF130050" begin="5240" fromJunction="J4" toJunction="J7" end="5300" vehsPerHour="25.622816982167272"/>
  <flow id="JF130051" begin="5240" fromJunction="J5" toJunction="J0" end="5300" vehsPerHour="62.827145579794184"/>
  <flow id="JF130052" begin="5240" fromJunction="J5" toJunction="J3" end="5300" vehsPerHour="46.85855134528319"/>
  <flow id="JF130053" begin="5240" fromJunction="J5" toJunction="J4" end="5300" vehsPerHour="38.32227323217722"/>
  <flow id="JF130054" begin="5240" fromJunction="J6" toJunction="J3" end="5300" vehsPerHour="52.53580290349167"/>
  <flow id="JF130055" begin="5240" fromJunction="J6" toJunction="J7" end="5300" vehsPerHour="3.840397796790448"/>
  <flow id="JF130056" begin="5240" fromJunction="J7" toJunction="J0" end="5300" vehsPerHour="42.81242198102808"/>
  <flow id="JF130057" begin="5240" fromJunction="J7" toJunction="J4" end="5300" vehsPerHour="61.28589627023734"/>
  <flow id="JF130058" begin="5240" fromJunction="J7" toJunction="J5" end="5300" vehsPerHour="21.717083980640542"/>
  <flow id="JF130059" begin="5300" fromJunction="J0" toJunction="J3" end="5360" vehsPerHour="116.36617850350734"/>
  <flow id="JF130060" begin="5300" fromJunction="J0" toJunction="J4" end="5360" vehsPerHour="100.6341711163541"/>
  <flow id="JF130061" begin="5300" fromJunction="J0" toJunction="J5" end="5360" vehsPerHour="21.5422381118086"/>
  <flow id="JF130062" begin="5300" fromJunction="J0" toJunction="J7" end="5360" vehsPerHour="74.94206582590938"/>
  <flow id="JF130063" begin="5300" fromJunction="J3" toJunction="J0" end="5360" vehsPerHour="56.644384589031354"/>
  <flow id="JF130064" begin="5300" fromJunction="J3" toJunction="J4" end="5360" vehsPerHour="82.45889238363962"/>
  <flow id="JF130065" begin="5300" fromJunction="J3" toJunction="J5" end="5360" vehsPerHour="48.97339444957414"/>
  <flow id="JF130066" begin="5300" fromJunction="J3" toJunction="J6" end="5360" vehsPerHour="36.04775195447315"/>
  <flow id="JF130067" begin="5300" fromJunction="J3" toJunction="J7" end="5360" vehsPerHour="87.52655768815954"/>
  <flow id="JF130068" begin="5300" fromJunction="J4" toJunction="J3" end="5360" vehsPerHour="27.260617047715936"/>
  <flow id="JF130069" begin="5300" fromJunction="J4" toJunction="J5" end="5360" vehsPerHour="1.4503676253677977"/>
  <flow id="JF130070" begin="5300" fromJunction="J4" toJunction="J6" end="5360" vehsPerHour="31.997408441020575"/>
  <flow id="JF130071" begin="5300" fromJunction="J4" toJunction="J7" end="5360" vehsPerHour="59.466331306345225"/>
  <flow id="JF130072" begin="5300" fromJunction="J5" toJunction="J0" end="5360" vehsPerHour="62.054489010634384"/>
  <flow id="JF130073" begin="5300" fromJunction="J5" toJunction="J4" end="5360" vehsPerHour="14.173906153743872"/>
  <flow id="JF130074" begin="5300" fromJunction="J5" toJunction="J6" end="5360" vehsPerHour="46.79585446650114"/>
  <flow id="JF130075" begin="5300" fromJunction="J6" toJunction="J0" end="5360" vehsPerHour="54.45705774510046"/>
  <flow id="JF130076" begin="5300" fromJunction="J6" toJunction="J3" end="5360" vehsPerHour="9.746270867328416"/>
  <flow id="JF130077" begin="5300" fromJunction="J6" toJunction="J4" end="5360" vehsPerHour="29.986467401466932"/>
  <flow id="JF130078" begin="5300" fromJunction="J6" toJunction="J5" end="5360" vehsPerHour="37.69514339982028"/>
  <flow id="JF130079" begin="5300" fromJunction="J6" toJunction="J7" end="5360" vehsPerHour="13.378362180472505"/>
  <flow id="JF130080" begin="5300" fromJunction="J7" toJunction="J0" end="5360" vehsPerHour="25.800266619751316"/>
  <flow id="JF130081" begin="5300" fromJunction="J7" toJunction="J3" end="5360" vehsPerHour="23.510280129503858"/>
  <flow id="JF130082" begin="5300" fromJunction="J7" toJunction="J4" end="5360" vehsPerHour="36.437408705752354"/>
  <flow id="JF130083" begin="5300" fromJunction="J7" toJunction="J6" end="5360" vehsPerHour="62.221943694528825"/>
  <flow id="JF130084" begin="5360" fromJunction="J0" toJunction="J3" end="5420" vehsPerHour="95.92105517191851"/>
  <flow id="JF130085" begin="5360" fromJunction="J0" toJunction="J4" end="5420" vehsPerHour="88.28724578919469"/>
  <flow id="JF130086" begin="5360" fromJunction="J0" toJunction="J5" end="5420" vehsPerHour="97.02336875632487"/>
  <flow id="JF130087" begin="5360" fromJunction="J3" toJunction="J0" end="5420" vehsPerHour="40.35985684958032"/>
  <flow id="JF130088" begin="5360" fromJunction="J3" toJunction="J4" end="5420" vehsPerHour="127.64282340420945"/>
  <flow id="JF130089" begin="5360" fromJunction="J3" toJunction="J6" end="5420" vehsPerHour="51.77358210623869"/>
  <flow id="JF130090" begin="5360" fromJunction="J3" toJunction="J7" end="5420" vehsPerHour="7.438581687673946"/>
  <flow id="JF130091" begin="5360" fromJunction="J4" toJunction="J0" end="5420" vehsPerHour="54.50981069497468"/>
  <flow id="JF130092" begin="5360" fromJunction="J4" toJunction="J5" end="5420" vehsPerHour="58.03293459989435"/>
  <flow id="JF130093" begin="5360" fromJunction="J4" toJunction="J6" end="5420" vehsPerHour="32.174906979713036"/>
  <flow id="JF130094" begin="5360" fromJunction="J5" toJunction="J3" end="5420" vehsPerHour="35.90142326633458"/>
  <flow id="JF130095" begin="5360" fromJunction="J5" toJunction="J4" end="5420" vehsPerHour="59.52443711541665"/>
  <flow id="JF130096" begin="5360" fromJunction="J6" toJunction="J0" end="5420" vehsPerHour="58.08825241477245"/>
  <flow id="JF130097" begin="5360" fromJunction="J6" toJunction="J3" end="5420" vehsPerHour="17.97489517184268"/>
  <flow id="JF130098" begin="5360" fromJunction="J6" toJunction="J4" end="5420" vehsPerHour="6.788664857799678"/>
  <flow id="JF130099" begin="5360" fromJunction="J7" toJunction="J0" end="5420" vehsPerHour="40.86625138103684"/>
  <flow id="JF130100" begin="5360" fromJunction="J7" toJunction="J3" end="5420" vehsPerHour="9.695336667517504"/>
  <flow id="JF130101" begin="5360" fromJunction="J7" toJunction="J5" end="5420" vehsPerHour="27.330769299959638"/>
  <flow id="JF130102" begin="5360" fromJunction="J7" toJunction="J6" end="5420" vehsPerHour="51.25463490308251"/>
  <flow id="JF130103" begin="5420" fromJunction="J0" toJunction="J3" end="5480" vehsPerHour="111.61443559132906"/>
  <flow id="JF130104" begin="5420" fromJunction="J0" toJunction="J4" end="5480" vehsPerHour="27.720906793565312"/>
  <flow id="JF130105" begin="5420" fromJunction="J0" toJunction="J5" end="5480" vehsPerHour="81.0925899286366"/>
  <flow id="JF130106" begin="5420" fromJunction="J3" toJunction="J4" end="5480" vehsPerHour="41.763477628511374"/>
  <flow id="JF130107" begin="5420" fromJunction="J3" toJunction="J5" end="5480" vehsPerHour="19.65495374675842"/>
  <flow id="JF130108" begin="5420" fromJunction="J4" toJunction="J3" end="5480" vehsPerHour="68.48019722911727"/>
  <flow id="JF130109" begin="5420" fromJunction="J4" toJunction="J5" end="5480" vehsPerHour="44.24628711812195"/>
  <flow id="JF130110" begin="5420" fromJunction="J4" toJunction="J6" end="5480" vehsPerHour="4.383981273690415"/>
  <flow id="JF130111" begin="5420" fromJunction="J4" toJunction="J7" end="5480" vehsPerHour="6.418836754661416"/>
  <flow id="JF130112" begin="5420" fromJunction="J5" toJunction="J3" end="5480" vehsPerHour="48.79206901344454"/>
  <flow id="JF130113" begin="5420" fromJunction="J5" toJunction="J6" end="5480" vehsPerHour="16.34648804012114"/>
  <flow id="JF130114" begin="5420" fromJunction="J5" toJunction="J7" end="5480" vehsPerHour="35.31134299940208"/>
  <flow id="JF130115" begin="5420" fromJunction="J6" toJunction="J0" end="5480" vehsPerHour="29.65622089361079"/>
  <flow id="JF130116" begin="5420" fromJunction="J6" toJunction="J3" end="5480" vehsPerHour="10.724365898017597"/>
  <flow id="JF130117" begin="5420" fromJunction="J6" toJunction="J4" end="5480" vehsPerHour="5.982416002645035"/>
  <flow id="JF130118" begin="5420" fromJunction="J7" toJunction="J0" end="5480" vehsPerHour="57.27746144349812"/>
  <flow id="JF130119" begin="5420" fromJunction="J7" toJunction="J3" end="5480" vehsPerHour="32.35367765424621"/>
  <flow id="JF130120" begin="5480" fromJunction="J0" toJunction="J3" end="5540" vehsPerHour="87.92548433536822"/>
  <flow id="JF130121" begin="5480" fromJunction="J0" toJunction="J4" end="5540" vehsPerHour="113.13472138415977"/>
  <flow id="JF130122" begin="5480" fromJunction="J0" toJunction="J6" end="5540" vehsPerHour="26.42426926631926"/>
  <flow id="JF130123" begin="5480" fromJunction="J0" toJunction="J7" end="5540" vehsPerHour="24.018704742461104"/>
  <flow id="JF130124" begin="5480" fromJunction="J3" toJunction="J6" end="5540" vehsPerHour="40.67668038003777"/>
  <flow id="JF130125" begin="5480" fromJunction="J3" toJunction="J7" end="5540" vehsPerHour="116.18822876160105"/>
  <flow id="JF130126" begin="5480" fromJunction="J4" toJunction="J0" end="5540" vehsPerHour="30.907926816329244"/>
  <flow id="JF130127" begin="5480" fromJunction="J4" toJunction="J3" end="5540" vehsPerHour="61.72619870091729"/>
  <flow id="JF130128" begin="5480" fromJunction="J4" toJunction="J5" end="5540" vehsPerHour="37.70232786888282"/>
  <flow id="JF130129" begin="5480" fromJunction="J4" toJunction="J6" end="5540" vehsPerHour="36.86218918095287"/>
  <flow id="JF130130" begin="5480" fromJunction="J4" toJunction="J7" end="5540" vehsPerHour="37.85520186450838"/>
  <flow id="JF130131" begin="5480" fromJunction="J5" toJunction="J0" end="5540" vehsPerHour="15.102984034356123"/>
  <flow id="JF130132" begin="5480" fromJunction="J5" toJunction="J6" end="5540" vehsPerHour="24.38026126524875"/>
  <flow id="JF130133" begin="5480" fromJunction="J5" toJunction="J7" end="5540" vehsPerHour="26.26232282906541"/>
  <flow id="JF130134" begin="5480" fromJunction="J6" toJunction="J3" end="5540" vehsPerHour="17.586679216373987"/>
  <flow id="JF130135" begin="5480" fromJunction="J6" toJunction="J4" end="5540" vehsPerHour="44.3059224141565"/>
  <flow id="JF130136" begin="5480" fromJunction="J6" toJunction="J7" end="5540" vehsPerHour="1.6505219338545232"/>
  <flow id="JF130137" begin="5480" fromJunction="J7" toJunction="J3" end="5540" vehsPerHour="3.371006706224272"/>
  <flow id="JF130138" begin="5480" fromJunction="J7" toJunction="J4" end="5540" vehsPerHour="40.4131587087377"/>
  <flow id="JF130139" begin="5480" fromJunction="J7" toJunction="J5" end="5540" vehsPerHour="58.72593706021532"/>
  <flow id="JF130140" begin="5480" fromJunction="J7" toJunction="J6" end="5540" vehsPerHour="23.26924021326789"/>
  <flow id="JF130141" begin="5540" fromJunction="J0" toJunction="J3" end="5600" vehsPerHour="76.53491527737928"/>
  <flow id="JF130142" begin="5540" fromJunction="J0" toJunction="J5" end="5600" vehsPerHour="18.306524050745004"/>
  <flow id="JF130143" begin="5540" fromJunction="J0" toJunction="J6" end="5600" vehsPerHour="109.03335528969271"/>
  <flow id="JF130144" begin="5540" fromJunction="J3" toJunction="J4" end="5600" vehsPerHour="55.879581681576404"/>
  <flow id="JF130145" begin="5540" fromJunction="J3" toJunction="J7" end="5600" vehsPerHour="52.73462442161741"/>
  <flow id="JF130146" begin="5540" fromJunction="J4" toJunction="J6" end="5600" vehsPerHour="3.3123199415169897"/>
  <flow id="JF130147" begin="5540" fromJunction="J5" toJunction="J0" end="5600" vehsPerHour="43.802063797473586"/>
  <flow id="JF130148" begin="5540" fromJunction="J5" toJunction="J4" end="5600" vehsPerHour="24.22866132233797"/>
  <flow id="JF130149" begin="5540" fromJunction="J5" toJunction="J7" end="5600" vehsPerHour="8.862912272419464"/>
  <flow id="JF130150" begin="5540" fromJunction="J6" toJunction="J0" end="5600" vehsPerHour="11.648478659532715"/>
  <flow id="JF130151" begin="5540" fromJunction="J6" toJunction="J3" end="5600" vehsPerHour="13.545473010730182"/>
  <flow id="JF130152" begin="5540" fromJunction="J6" toJunction="J5" end="5600" vehsPerHour="29.557401852948857"/>
  <flow id="JF130153" begin="5540" fromJunction="J6" toJunction="J7" end="5600" vehsPerHour="42.907957224950195"/>
  <flow id="JF130154" begin="5540" fromJunction="J7" toJunction="J4" end="5600" vehsPerHour="52.01591244760769"/>
  <flow id="JF130155" begin="5540" fromJunction="J7" toJunction="J5" end="5600" vehsPerHour="4.736528888337004"/>
  <flow id="JF130156" begin="5540" fromJunction="J7" toJunction="J6" end="5600" vehsPerHour="27.102186022888525"/>
  <flow id="JF130157" begin="5600" fromJunction="J0" toJunction="J3" end="5660" vehsPerHour="55.5638488768461"/>
  <flow id="JF130158" begin="5600" fromJunction="J0" toJunction="J4" end="5660" vehsPerHour="136.03865484976464"/>
  <flow id="JF130159" begin="5600" fromJunction="J0" toJunction="J5" end="5660" vehsPerHour="77.75553501817986"/>
  <flow id="JF130160" begin="5600" fromJunction="J0" toJunction="J6" end="5660" vehsPerHour="80.72184742854465"/>
  <flow id="JF130161" begin="5600" fromJunction="J0" toJunction="J7" end="5660" vehsPerHour="1.8921149000181565"/>
  <flow id="JF130162" begin="5600" fromJunction="J3" toJunction="J4" end="5660" vehsPerHour="31.097451625326737"/>
  <flow id="JF130163" begin="5600" fromJunction="J3" toJunction="J5" end="5660" vehsPerHour="120.82283481190098"/>
  <flow id="JF130164" begin="5600" fromJunction="J3" toJunction="J6" end="5660" vehsPerHour="94.14716563784"/>
  <flow id="JF130165" begin="5600" fromJunction="J3" toJunction="J7" end="5660" vehsPerHour="108.5472009774661"/>
  <flow id="JF130166" begin="5600" fromJunction="J4" toJunction="J3" end="5660" vehsPerHour="2.1998765793720443"/>
  <flow id="JF130167" begin="5600" fromJunction="J4" toJunction="J5" end="5660" vehsPerHour="50.62781475321936"/>
  <flow id="JF130168" begin="5600" fromJunction="J4" toJunction="J7" end="5660" vehsPerHour="60.113135824201535"/>
  <flow id="JF130169" begin="5600" fromJunction="J5" toJunction="J0" end="5660" vehsPerHour="37.01570048814556"/>
  <flow id="JF130170" begin="5600" fromJunction="J5" toJunction="J3" end="5660" vehsPerHour="27.377012056290013"/>
  <flow id="JF130171" begin="5600" fromJunction="J5" toJunction="J4" end="5660" vehsPerHour="8.269679165587407"/>
  <flow id="JF130172" begin="5600" fromJunction="J5" toJunction="J6" end="5660" vehsPerHour="7.98559531297074"/>
  <flow id="JF130173" begin="5600" fromJunction="J5" toJunction="J7" end="5660" vehsPerHour="45.16811555103739"/>
  <flow id="JF130174" begin="5600" fromJunction="J6" toJunction="J0" end="5660" vehsPerHour="45.04931368491659"/>
  <flow id="JF130175" begin="5600" fromJunction="J6" toJunction="J3" end="5660" vehsPerHour="42.80175345681994"/>
  <flow id="JF130176" begin="5600" fromJunction="J6" toJunction="J5" end="5660" vehsPerHour="53.47354332120534"/>
  <flow id="JF130177" begin="5600" fromJunction="J6" toJunction="J7" end="5660" vehsPerHour="64.31588166604912"/>
  <flow id="JF130178" begin="5600" fromJunction="J7" toJunction="J0" end="5660" vehsPerHour="1.231677700340484"/>
  <flow id="JF130179" begin="5600" fromJunction="J7" toJunction="J4" end="5660" vehsPerHour="2.8613909675509492"/>
  <flow id="JF130180" begin="5600" fromJunction="J7" toJunction="J5" end="5660" vehsPerHour="15.070436597056975"/>
  <flow id="JF130181" begin="5660" fromJunction="J0" toJunction="J4" end="5720" vehsPerHour="39.23960986889526"/>
  <flow id="JF130182" begin="5660" fromJunction="J0" toJunction="J6" end="5720" vehsPerHour="60.58397525496899"/>
  <flow id="JF130183" begin="5660" fromJunction="J3" toJunction="J0" end="5720" vehsPerHour="71.89689444433975"/>
  <flow id="JF130184" begin="5660" fromJunction="J3" toJunction="J5" end="5720" vehsPerHour="131.47777159829346"/>
  <flow id="JF130185" begin="5660" fromJunction="J4" toJunction="J0" end="5720" vehsPerHour="61.58386572654002"/>
  <flow id="JF130186" begin="5660" fromJunction="J4" toJunction="J5" end="5720" vehsPerHour="44.894536539238"/>
  <flow id="JF130187" begin="5660" fromJunction="J5" toJunction="J0" end="5720" vehsPerHour="12.48913950921643"/>
  <flow id="JF130188" begin="5660" fromJunction="J5" toJunction="J4" end="5720" vehsPerHour="17.850698108010405"/>
  <flow id="JF130189" begin="5660" fromJunction="J5" toJunction="J6" end="5720" vehsPerHour="1.1463496886820759"/>
  <flow id="JF130190" begin="5660" fromJunction="J6" toJunction="J0" end="5720" vehsPerHour="66.74300729812916"/>