<?xml version="1.0" encoding="UTF-8"?>
<routes xmlns:xsi="http://www.w3.org/2001/XMLSchema-instance" xsi:noNamespaceSchemaLocation="http://sumo.dlr.de/xsd/routes_file.xsd">
  <flow id="JF131684" begin="0" fromJunction="J3" toJunction="J0" end="5000" vehsPerHour="1023.9986224061246"/>
  <flow id="JF131685" begin="0" fromJunction="J0" toJunction="J3" end="5000" vehsPerHour="119.4394950847603"/>
  <flow id="JF131686" begin="0" fromJunction="J3" toJunction="J7" end="5000" vehsPerHour="52.88372895149369"/>
  <flow id="JF131687" begin="0" fromJunction="J3" toJunction="J6" end="5000" vehsPerHour="29.561383249057748"/>
  <flow id="JF131688" begin="0" fromJunction="J3" toJunction="J5" end="5000" vehsPerHour="49.760563600427346"/>
  <flow id="JF131689" begin="0" fromJunction="J3" toJunction="J4" end="5000" vehsPerHour="65.63287069391252"/>
  <flow id="JF131690" begin="0" fromJunction="J0" toJunction="J7" end="5000" vehsPerHour="76.95072060513681"/>
  <flow id="JF131691" begin="0" fromJunction="J0" toJunction="J6" end="5000" vehsPerHour="13.93445143905252"/>
  <flow id="JF131692" begin="0" fromJunction="J0" toJunction="J5" end="5000" vehsPerHour="91.03972235434372"/>
  <flow id="JF131693" begin="0" fromJunction="J0" toJunction="J4" end="5000" vehsPerHour="16.803933251976858"/>
  <flow id="JF131694" begin="0" fromJunction="J7" toJunction="J6" end="5000" vehsPerHour="150.6034951366489"/>
  <flow id="JF131695" begin="0" fromJunction="J7" toJunction="J5" end="5000" vehsPerHour="185.1350556704562"/>
  <flow id="JF131696" begin="0" fromJunction="J7" toJunction="J4" end="5000" vehsPerHour="203.29823353444684"/>
  <flow id="JF131697" begin="0" fromJunction="J6" toJunction="J7" end="5000" vehsPerHour="142.05709853993943"/>
  <flow id="JF131698" begin="0" fromJunction="J6" toJunction="J5" end="5000" vehsPerHour="113.99755878915462"/>
  <flow id="JF131699" begin="0" fromJunction="J6" toJunction="J4" end="5000" vehsPerHour="95.00325635739257"/>
  <flow id="JF131700" begin="0" fromJunction="J5" toJunction="J7" end="5000" vehsPerHour="115.23029941235414"/>
  <flow id="JF131701" begin="0" fromJunction="J5" toJunction="J6" end="5000" vehsPerHour="35.655271995702684"/>
  <flow id="JF131702" begin="0" fromJunction="J5" toJunction="J4" end="5000" vehsPerHour="78.50061701224524"/>
  <flow id="JF131703" begin="0" fromJunction="J4" toJunction="J7" end="5000" vehsPerHour="226.60483439326012"/>
  <flow id="JF131704" begin="0" fromJunction="J4" toJunction="J6" end="5000" vehsPerHour="109.10741443421314"/>
  <flow id="JF131705" begin="0" fromJunction="J4" toJunction="J5" end="5000" vehsPerHour="168.40169426121793"/>
  <flow id="JF131706" begin="0" fromJunction="J7" toJunction="J3" end="5000" vehsPerHour="45.43465914935227"/>
  <flow id="JF131707" begin="0" fromJunction="J7" toJunction="J0" end="5000" vehsPerHour="4.865991929556339"/>
  <flow id="JF131708" begin="0" fromJunction="J6" toJunction="J3" end="5000" vehsPerHour="67.6368051089844"/>
  <flow id="JF131709" begin="0" fromJunction="J6" toJunction="J0" end="5000" vehsPerHour="15.697936452480521"/>
  <flow id="JF131710" begin="0" fromJunction="J5" toJunction="J3" end="5000" vehsPerHour="23.234741508471302"/>
  <flow id="JF131711" begin="0" fromJunction="J5" toJunction="J0" end="5000" vehsPerHour="23.796292753050572"/>
  <flow id="JF131712" begin="0" fromJunction="J4" toJunction="J3" end="5000" vehsPerHour="9.317087284583335"/>
  <flow id="JF131713" begin="0" fromJunction="J4" toJunction="J0" end="5000" vehsPerHour="27.37862632146673"/>
  <flow id="JF131714" begin="5000" fromJunction="J0" toJunction="J3" end="5060" vehsPerHour="63.36818787803"/>
  <flow id="JF131715" begin="5000" fromJunction="J0" toJunction="J5" end="5060" vehsPerHour="136.521749609106"/>
  <flow id="JF131716" begin="5000" fromJunction="J0" toJunction="J6" end="5060" vehsPerHour="24.616632389463025"/>
  <flow id="JF131717" begin="5000" fromJunction="J3" toJunction="J0" end="5060" vehsPerHour="21.11589293846758"/>
  <flow id="JF131718" begin="5000" fromJunction="J3" toJunction="J4" end="5060" vehsPerHour="107.22925219712845"/>
  <flow id="JF131719" begin="5000" fromJunction="J3" toJunction="J5" end="5060" vehsPerHour="80.67406640643847"/>
  <flow id="JF131720" begin="5000" fromJunction="J3" toJunction="J6" end="5060" vehsPerHour="32.51431302291101"/>
  <flow id="JF131721" begin="5000" fromJunction="J3" toJunction="J7" end="5060" vehsPerHour="84.3880889802493"/>
  <flow id="JF131722" begin="5000" fromJunction="J4" toJunction="J0" end="5060" vehsPerHour="19.449463506467847"/>
  <flow id="JF131723" begin="5000" fromJunction="J4" toJunction="J5" end="5060" vehsPerHour="23.828738410228734"/>
  <flow id="JF131724" begin="5000" fromJunction="J4" toJunction="J6" end="5060" vehsPerHour="1.2539690269453723"/>
  <flow id="JF131725" begin="5000" fromJunction="J4" toJunction="J7" end="5060" vehsPerHour="44.28892825324563"/>
  <flow id="JF131726" begin="5000" fromJunction="J5" toJunction="J4" end="5060" vehsPerHour="56.325488308838445"/>
  <flow id="JF131727" begin="5000" fromJunction="J5" toJunction="J6" end="5060" vehsPerHour="14.117387544066215"/>
  <flow id="JF131728" begin="5000" fromJunction="J5" toJunction="J7" end="5060" vehsPerHour="42.70790130241676"/>
  <flow id="JF131729" begin="5000" fromJunction="J6" toJunction="J3" end="5060" vehsPerHour="32.526181194338115"/>
  <flow id="JF131730" begin="5000" fromJunction="J6" toJunction="J7" end="5060" vehsPerHour="32.25568446400289"/>
  <flow id="JF131731" begin="5000" fromJunction="J7" toJunction="J0" end="5060" vehsPerHour="26.205338798071555"/>
  <flow id="JF131732" begin="5000" fromJunction="J7" toJunction="J3" end="5060" vehsPerHour="37.614431601842156"/>
  <flow id="JF131733" begin="5000" fromJunction="J7" toJunction="J5" end="5060" vehsPerHour="9.064861744695559"/>
  <flow id="JF131734" begin="5000" fromJunction="J7" toJunction="J6" end="5060" vehsPerHour="36.766558013658106"/>
  <flow id="JF131735" begin="5060" fromJunction="J0" toJunction="J3" end="5120" vehsPerHour="38.105383469758515"/>
  <flow id="JF131736" begin="5060" fromJunction="J0" toJunction="J6" end="5120" vehsPerHour="77.86990418688656"/>
  <flow id="JF131737" begin="5060" fromJunction="J0" toJunction="J7" end="5120" vehsPerHour="37.896328545969475"/>
  <flow id="JF131738" begin="5060" fromJunction="J3" toJunction="J0" end="5120" vehsPerHour="15.214025793556866"/>
  <flow id="JF131739" begin="5060" fromJunction="J3" toJunction="J5" end="5120" vehsPerHour="26.60488402948636"/>
  <flow id="JF131740" begin="5060" fromJunction="J3" toJunction="J6" end="5120" vehsPerHour="62.12494418844249"/>
  <flow id="JF131741" begin="5060" fromJunction="J3" toJunction="J7" end="5120" vehsPerHour="56.01558725553081"/>
  <flow id="JF131742" begin="5060" fromJunction="J4" toJunction="J3" end="5120" vehsPerHour="0.8533060184899446"/>
  <flow id="JF131743" begin="5060" fromJunction="J4" toJunction="J6" end="5120" vehsPerHour="14.30885888583451"/>
  <flow id="JF131744" begin="5060" fromJunction="J5" toJunction="J4" end="5120" vehsPerHour="30.31291817596064"/>
  <flow id="JF131745" begin="5060" fromJunction="J5" toJunction="J6" end="5120" vehsPerHour="38.365783002113695"/>
  <flow id="JF131746" begin="5060" fromJunction="J5" toJunction="J7" end="5120" vehsPerHour="50.88064321498745"/>
  <flow id="JF131747" begin="5060" fromJunction="J6" toJunction="J3" end="5120" vehsPerHour="14.585914151566113"/>
  <flow id="JF131748" begin="5060" fromJunction="J6" toJunction="J5" end="5120" vehsPerHour="56.358205426282105"/>
  <flow id="JF131749" begin="5060" fromJunction="J7" toJunction="J0" end="5120" vehsPerHour="36.343222965535276"/>
  <flow id="JF131750" begin="5060" fromJunction="J7" toJunction="J3" end="5120" vehsPerHour="44.47617802283257"/>
  <flow id="JF131751" begin="5060" fromJunction="J7" toJunction="J4" end="5120" vehsPerHour="32.007609687698086"/>
  <flow id="JF131752" begin="5060" fromJunction="J7" toJunction="J6" end="5120" vehsPerHour="28.67674131279833"/>
  <flow id="JF131753" begin="5120" fromJunction="J0" toJunction="J4" end="5180" vehsPerHour="120.53566349747987"/>
  <flow id="JF131754" begin="5120" fromJunction="J0" toJunction="J5" end="5180" vehsPerHour="112.77564690778938"/>
  <flow id="JF131755" begin="5120" fromJunction="J3" toJunction="J0" end="5180" vehsPerHour="116.87364513103621"/>
  <flow id="JF131756" begin="5120" fromJunction="J3" toJunction="J4" end="5180" vehsPerHour="25.198037307757776"/>
  <flow id="JF131757" begin="5120" fromJunction="J3" toJunction="J6" end="5180" vehsPerHour="28.245468759171537"/>
  <flow id="JF131758" begin="5120" fromJunction="J4" toJunction="J5" end="5180" vehsPerHour="27.70876408740467"/>
  <flow id="JF131759" begin="5120" fromJunction="J4" toJunction="J6" end="5180" vehsPerHour="24.09032944576755"/>
  <flow id="JF131760" begin="5120" fromJunction="J5" toJunction="J0" end="5180" vehsPerHour="45.24185961377457"/>
  <flow id="JF131761" begin="5120" fromJunction="J5" toJunction="J3" end="5180" vehsPerHour="37.71292964165955"/>
  <flow id="JF131762" begin="5120" fromJunction="J5" toJunction="J4" end="5180" vehsPerHour="63.36503624539634"/>
  <flow id="JF131763" begin="5120" fromJunction="J5" toJunction="J7" end="5180" vehsPerHour="19.996870958482052"/>
  <flow id="JF131764" begin="5120" fromJunction="J6" toJunction="J3" end="5180" vehsPerHour="37.86353047224266"/>
  <flow id="JF131765" begin="5120" fromJunction="J6" toJunction="J4" end="5180" vehsPerHour="11.317316558800787"/>
  <flow id="JF131766" begin="5120" fromJunction="J6" toJunction="J5" end="5180" vehsPerHour="5.824937286368403"/>
  <flow id="JF131767" begin="5120" fromJunction="J6" toJunction="J7" end="5180" vehsPerHour="0.8469768081006506"/>
  <flow id="JF131768" begin="5120" fromJunction="J7" toJunction="J3" end="5180" vehsPerHour="41.338693124809176"/>
  <flow id="JF131769" begin="5120" fromJunction="J7" toJunction="J5" end="5180" vehsPerHour="61.94158556597092"/>
  <flow id="JF131770" begin="5120" fromJunction="J7" toJunction="J6" end="5180" vehsPerHour="20.34565358693387"/>
  <flow id="JF131771" begin="5180" fromJunction="J0" toJunction="J4" end="5240" vehsPerHour="100.95846081778778"/>
  <flow id="JF131772" begin="5180" fromJunction="J0" toJunction="J5" end="5240" vehsPerHour="36.01098745716417"/>
  <flow id="JF131773" begin="5180" fromJunction="J3" toJunction="J0" end="5240" vehsPerHour="94.87808510064765"/>
  <flow id="JF131774" begin="5180" fromJunction="J3" toJunction="J4" end="5240" vehsPerHour="18.201891863274238"/>
  <flow id="JF131775" begin="5180" fromJunction="J3" toJunction="J6" end="5240" vehsPerHour="31.92789152102496"/>
  <flow id="JF131776" begin="5180" fromJunction="J4" toJunction="J0" end="5240" vehsPerHour="20.394729481915444"/>
  <flow id="JF131777" begin="5180" fromJunction="J4" toJunction="J3" end="5240" vehsPerHour="22.934829951461104"/>
  <flow id="JF131778" begin="5180" fromJunction="J4" toJunction="J7" end="5240" vehsPerHour="13.023734292229532"/>
  <flow id="JF131779" begin="5180" fromJunction="J5" toJunction="J0" end="5240" vehsPerHour="20.720465389527533"/>
  <flow id="JF131780" begin="5180" fromJunction="J5" toJunction="J3" end="5240" vehsPerHour="10.492925739333847"/>
  <flow id="JF131781" begin="5180" fromJunction="J5" toJunction="J4" end="5240" vehsPerHour="11.534795694420596"/>
  <flow id="JF131782" begin="5180" fromJunction="J5" toJunction="J7" end="5240" vehsPerHour="0.46790393609874187"/>
  <flow id="JF131783" begin="5180" fromJunction="J6" toJunction="J0" end="5240" vehsPerHour="53.65092296841586"/>
  <flow id="JF131784" begin="5180" fromJunction="J6" toJunction="J3" end="5240" vehsPerHour="5.592469659606105"/>
  <flow id="JF131785" begin="5180" fromJunction="J6" toJunction="J4" end="5240" vehsPerHour="68.36003361966728"/>
  <flow id="JF131786" begin="5180" fromJunction="J6" toJunction="J5" end="5240" vehsPerHour="7.83243083934684"/>
  <flow id="JF131787" begin="5180" fromJunction="J7" toJunction="J0" end="5240" vehsPerHour="26.050946664179545"/>
  <flow id="JF131788" begin="5180" fromJunction="J7" toJunction="J4" end="5240" vehsPerHour="0.075570735048629"/>
  <flow id="JF131789" begin="5180" fromJunction="J7" toJunction="J5" end="5240" vehsPerHour="12.607496961907541"/>
  <flow id="JF131790" begin="5180" fromJunction="J7" toJunction="J6" end="5240" vehsPerHour="29.39271621014303"/>
  <flow id="JF131791" begin="5240" fromJunction="J0" toJunction="J5" end="5300" vehsPerHour="90.01121836184231"/>
  <flow id="JF131792" begin="5240" fromJunction="J0" toJunction="J7" end="5300" vehsPerHour="114.61698998667842"/>
  <flow id="JF131793" begin="5240" fromJunction="J3" toJunction="J0" end="5300" vehsPerHour="39.23036240611998"/>
  <flow id="JF131794" begin="5240" fromJunction="J3" toJunction="J5" end="5300" vehsPerHour="113.81429390561578"/>
  <flow id="JF131795" begin="5240" fromJunction="J3" toJunction="J6" end="5300" vehsPerHour="44.088309891834506"/>
  <flow id="JF131796" begin="5240" fromJunction="J3" toJunction="J7" end="5300" vehsPerHour="91.57385889790235"/>
  <flow id="JF131797" begin="5240" fromJunction="J4" toJunction="J0" end="5300" vehsPerHour="5.517818199584244"/>
  <flow id="JF131798" begin="5240" fromJunction="J4" toJunction="J3" end="5300" vehsPerHour="28.14312917838212"/>
  <flow id="JF131799" begin="5240" fromJunction="J4" toJunction="J5" end="5300" vehsPerHour="35.3095989293155"/>
  <flow id="JF131800" begin="5240" fromJunction="J4" toJunction="J7" end="5300" vehsPerHour="9.819945503664352"/>
  <flow id="JF131801" begin="5240" fromJunction="J5" toJunction="J0" end="5300" vehsPerHour="16.020281000748778"/>
  <flow id="JF131802" begin="5240" fromJunction="J5" toJunction="J4" end="5300" vehsPerHour="6.93739237087381"/>
  <flow id="JF131803" begin="5240" fromJunction="J5" toJunction="J6" end="5300" vehsPerHour="6.032348827570583"/>
  <flow id="JF131804" begin="5240" fromJunction="J6" toJunction="J0" end="5300" vehsPerHour="22.570274542909825"/>
  <flow id="JF131805" begin="5240" fromJunction="J6" toJunction="J3" end="5300" vehsPerHour="27.426325391452096"/>
  <flow id="JF131806" begin="5240" fromJunction="J6" toJunction="J4" end="5300" vehsPerHour="68.65904757402475"/>
  <flow id="JF131807" begin="5240" fromJunction="J7" toJunction="J4" end="5300" vehsPerHour="50.710473157813674"/>
  <flow id="JF131808" begin="5240" fromJunction="J7" toJunction="J5" end="5300" vehsPerHour="33.97248922697574"/>
  <flow id="JF131809" begin="5240" fromJunction="J7" toJunction="J6" end="5300" vehsPerHour="7.480591594816581"/>
  <flow id="JF131810" begin="5300" fromJunction="J0" toJunction="J4" end="5360" vehsPerHour="39.282894736326874"/>
  <flow id="JF131811" begin="5300" fromJunction="J0" toJunction="J5" end="5360" vehsPerHour="24.70682353363001"/>
  <flow id="JF131812" begin="5300" fromJunction="J0" toJunction="J6" end="5360" vehsPerHour="84.67756004011696"/>
  <flow id="JF131813" begin="5300" fromJunction="J3" toJunction="J0" end="5360" vehsPerHour="78.51808901940325"/>
  <flow id="JF131814" begin="5300" fromJunction="J3" toJunction="J4" end="5360" vehsPerHour="126.0978620662107"/>
  <flow id="JF131815" begin="5300" fromJunction="J3" toJunction="J6" end="5360" vehsPerHour="57.963171139091756"/>
  <flow id="JF131816" begin="5300" fromJunction="J4" toJunction="J0" end="5360" vehsPerHour="68.42307129953653"/>
  <flow id="JF131817" begin="5300" fromJunction="J4" toJunction="J5" end="5360" vehsPerHour="47.125494026369466"/>
  <flow id="JF131818" begin="5300" fromJunction="J4" toJunction="J6" end="5360" vehsPerHour="5.87910269269765"/>
  <flow id="JF131819" begin="5300" fromJunction="J4" toJunction="J7" end="5360" vehsPerHour="46.384427465926365"/>
  <flow id="JF131820" begin="5300" fromJunction="J5" toJunction="J3" end="5360" vehsPerHour="19.061765407885034"/>
  <flow id="JF131821" begin="5300" fromJunction="J5" toJunction="J6" end="5360" vehsPerHour="27.065486498020416"/>
  <flow id="JF131822" begin="5300" fromJunction="J5" toJunction="J7" end="5360" vehsPerHour="17.98616598066052"/>
  <flow id="JF131823" begin="5300" fromJunction="J6" toJunction="J0" end="5360" vehsPerHour="43.21166992196333"/>
  <flow id="JF131824" begin="5300" fromJunction="J6" toJunction="J3" end="5360" vehsPerHour="59.78171971675861"/>
  <flow id="JF131825" begin="5300" fromJunction="J6" toJunction="J4" end="5360" vehsPerHour="65.62961031415915"/>
  <flow id="JF131826" begin="5300" fromJunction="J6" toJunction="J7" end="5360" vehsPerHour="13.438083308555841"/>
  <flow id="JF131827" begin="5300" fromJunction="J7" toJunction="J3" end="5360" vehsPerHour="46.63915842529987"/>
  <flow id="JF131828" begin="5300" fromJunction="J7" toJunction="J4" end="5360" vehsPerHour="16.737416245463667"/>
  <flow id="JF131829" begin="5300" fromJunction="J7" toJunction="J5" end="5360" vehsPerHour="55.473051785026975"/>
  <flow id="JF131830" begin="5360" fromJunction="J0" toJunction="J3" end="5420" vehsPerHour="126.29606546088053"/>
  <flow id="JF131831" begin="5360" fromJunction="J0" toJunction="J5" end="5420" vehsPerHour="46.6741731018017"/>
  <flow id="JF131832" begin="5360" fromJunction="J0" toJunction="J6" end="5420" vehsPerHour="124.35016805211076"/>
  <flow id="JF131833" begin="5360" fromJunction="J0" toJunction="J7" end="5420" vehsPerHour="55.10803178061806"/>
  <flow id="JF131834" begin="5360" fromJunction="J3" toJunction="J5" end="5420" vehsPerHour="73.19855919893074"/>
  <flow id="JF131835" begin="5360" fromJunction="J3" toJunction="J7" end="5420" vehsPerHour="85.59038361422203"/>
  <flow id="JF131836" begin="5360" fromJunction="J4" toJunction="J0" end="5420" vehsPerHour="54.699780130194156"/>
  <flow id="JF131837" begin="5360" fromJunction="J4" toJunction="J5" end="5420" vehsPerHour="0.39398721188053115"/>
  <flow id="JF131838" begin="5360" fromJunction="J5" toJunction="J3" end="5420" vehsPerHour="14.21757384657326"/>
  <flow id="JF131839" begin="5360" fromJunction="J5" toJunction="J6" end="5420" vehsPerHour="29.399046428981592"/>
  <flow id="JF131840" begin="5360" fromJunction="J5" toJunction="J7" end="5420" vehsPerHour="46.276464575801334"/>
  <flow id="JF131841" begin="5360" fromJunction="J6" toJunction="J0" end="5420" vehsPerHour="23.85120289936428"/>
  <flow id="JF131842" begin="5360" fromJunction="J6" toJunction="J4" end="5420" vehsPerHour="0.33113816164112925"/>
  <flow id="JF131843" begin="5360" fromJunction="J6" toJunction="J5" end="5420" vehsPerHour="43.29698142746383"/>
  <flow id="JF131844" begin="5360" fromJunction="J7" toJunction="J0" end="5420" vehsPerHour="3.226593692810705"/>
  <flow id="JF131845" begin="5360" fromJunction="J7" toJunction="J3" end="5420" vehsPerHour="52.12902399809162"/>
  <flow id="JF131846" begin="5360" fromJunction="J7" toJunction="J5" end="5420" vehsPerHour="65.35586276789672"/>
  <flow id="JF131847" begin="5360" fromJunction="J7" toJunction="J6" end="5420" vehsPerHour="5.965830024118742"/>
  <flow id="JF131848" begin="5420" fromJunction="J0" toJunction="J3" end="5480" vehsPerHour="126.50149434899596"/>
  <flow id="JF131849" begin="5420" fromJunction="J0" toJunction="J4" end="5480" vehsPerHour="66.90410459164487"/>
  <flow id="JF131850" begin="5420" fromJunction="J0" toJunction="J7" end="5480" vehsPerHour="29.040830472081552"/>
  <flow id="JF131851" begin="5420" fromJunction="J3" toJunction="J0" end="5480" vehsPerHour="10.79622661322639"/>
  <flow id="JF131852" begin="5420" fromJunction="J4" toJunction="J0" end="5480" vehsPerHour="61.52801699097819"/>
  <flow id="JF131853" begin="5420" fromJunction="J4" toJunction="J7" end="5480" vehsPerHour="43.793587177401626"/>
  <flow id="JF131854" begin="5420" fromJunction="J5" toJunction="J0" end="5480" vehsPerHour="11.188135338813018"/>
  <flow id="JF131855" begin="5420" fromJunction="J5" toJunction="J3" end="5480" vehsPerHour="53.632647524146186"/>
  <flow id="JF131856" begin="5420" fromJunction="J5" toJunction="J4" end="5480" vehsPerHour="4.931138078179903"/>
  <flow id="JF131857" begin="5420" fromJunction="J6" toJunction="J0" end="5480" vehsPerHour="16.7811487714986"/>
  <flow id="JF131858" begin="5420" fromJunction="J6" toJunction="J3" end="5480" vehsPerHour="58.77198464099219"/>
  <flow id="JF131859" begin="5420" fromJunction="J6" toJunction="J4" end="5480" vehsPerHour="29.808034850997927"/>
  <flow id="JF131860" begin="5420" fromJunction="J6" toJunction="J5" end="5480" vehsPerHour="11.160406034414242"/>
  <flow id="JF131861" begin="5420" fromJunction="J6" toJunction="J7" end="5480" vehsPerHour="48.46418247700763"/>
  <flow id="JF131862" begin="5420" fromJunction="J7" toJunction="J0" end="5480" vehsPerHour="16.47422154552284"/>
  <flow id="JF131863" begin="5420" fromJunction="J7" toJunction="J3" end="5480" vehsPerHour="67.79865457904044"/>
  <flow id="JF131864" begin="5420" fromJunction="J7" toJunction="J6" end="5480" vehsPerHour="10.065647092372194"/>
  <flow id="JF131865" begin="5480" fromJunction="J0" toJunction="J3" end="5540" vehsPerHour="102.28411863475323"/>
  <flow id="JF131866" begin="5480" fromJunction="J0" toJunction="J4" end="5540" vehsPerHour="75.70588836283004"/>
  <flow id="JF131867" begin="5480" fromJunction="J0" toJunction="J7" end="5540" vehsPerHour="9.328218690020362"/>
  <flow id="JF131868" begin="5480" fromJunction="J3" toJunction="J0" end="5540" vehsPerHour="113.15975185258374"/>
  <flow id="JF131869" begin="5480" fromJunction="J3" toJunction="J4" end="5540" vehsPerHour="128.4119627389474"/>
  <flow id="JF131870" begin="5480" fromJunction="J3" toJunction="J5" end="5540" vehsPerHour="55.44085939796342"/>
  <flow id="JF131871" begin="5480" fromJunction="J3" toJunction="J6" end="5540" vehsPerHour="94.36139167414298"/>
  <flow id="JF131872" begin="5480" fromJunction="J3" toJunction="J7" end="5540" vehsPerHour="67.91846270991947"/>
  <flow id="JF131873" begin="5480" fromJunction="J4" toJunction="J0" end="5540" vehsPerHour="28.494334669455966"/>
  <flow id="JF131874" begin="5480" fromJunction="J4" toJunction="J3" end="5540" vehsPerHour="62.09602158199436"/>
  <flow id="JF131875" begin="5480" fromJunction="J4" toJunction="J5" end="5540" vehsPerHour="28.18231668950378"/>
  <flow id="JF131876" begin="5480" fromJunction="J4" toJunction="J6" end="5540" vehsPerHour="24.409524088082872"/>
  <flow id="JF131877" begin="5480" fromJunction="J5" toJunction="J0" end="5540" vehsPerHour="49.72260731626548"/>
  <flow id="JF131878" begin="5480" fromJunction="J5" toJunction="J3" end="5540" vehsPerHour="44.34061182470803"/>
  <flow id="JF131879" begin="5480" fromJunction="J5" toJunction="J4" end="5540" vehsPerHour="35.051025902674276"/>
  <flow id="JF131880" begin="5480" fromJunction="J5" toJunction="J6" end="5540" vehsPerHour="63.76751860180166"/>
  <flow id="JF131881" begin="5480" fromJunction="J5" toJunction="J7" end="5540" vehsPerHour="60.20187842425399"/>
  <flow id="JF131882" begin="5480" fromJunction="J6" toJunction="J0" end="5540" vehsPerHour="29.054690439282425"/>
  <flow id="JF131883" begin="5480" fromJunction="J6" toJunction="J3" end="5540" vehsPerHour="6.103808093092722"/>
  <flow id="JF131884" begin="5480" fromJunction="J6" toJunction="J4" end="5540" vehsPerHour="24.470067423912774"/>
  <flow id="JF131885" begin="5480" fromJunction="J6" toJunction="J5" end="5540" vehsPerHour="36.08351239718266"/>
  <flow id="JF131886" begin="5480" fromJunction="J7" toJunction="J0" end="5540" vehsPerHour="0.42376040615579996"/>
  <flow id="JF131887" begin="5480" fromJunction="J7" toJunction="J3" end="5540" vehsPerHour="27.179089081400438"/>
  <flow id="JF131888" begin="5480" fromJunction="J7" toJunction="J5" end="5540" vehsPerHour="6.37021089941025"/>
  <flow id="JF131889" begin="5540" fromJunction="J0" toJunction="J3" end="5600" vehsPerHour="72.06109155960117"/>
  <flow id="JF131890" begin="5540" fromJunction="J0" toJunction="J4" end="5600" vehsPerHour="60.409796352017715"/>
  <flow id="JF131891" begin="5540" fromJunction="J0" toJunction="J6" end="5600" vehsPerHour="31.427269671235678"/>
  <flow id="JF131892" begin="5540" fromJunction="J0" toJunction="J7" end="5600" vehsPerHour="58.60172589620012"/>
  <flow id="JF131893" begin="5540" fromJunction="J3" toJunction="J0" end="5600" vehsPerHour="104.8654296367782"/>
  <flow id="JF131894" begin="5540" fromJunction="J3" toJunction="J4" end="5600" vehsPerHour="38.87277849877034"/>
  <flow id="JF131895" begin="5540" fromJunction="J3" toJunction="J6" end="5600" vehsPerHour="11.410116319756835"/>
  <flow id="JF131896" begin="5540" fromJunction="J3" toJunction="J7" end="5600" vehsPerHour="120.61466666409446"/>
  <flow id="JF131897" begin="5540" fromJunction="J4" toJunction="J0" end="5600" vehsPerHour="49.718561540069686"/>
  <flow id="JF131898" begin="5540" fromJunction="J4" toJunction="J3" end="5600" vehsPerHour="57.61720102015135"/>
  <flow id="JF131899" begin="5540" fromJunction="J4" toJunction="J5" end="5600" vehsPerHour="4.65259429565459"/>
  <flow id="JF131900" begin="5540" fromJunction="J4" toJunction="J6" end="5600" vehsPerHour="46.2121975791838"/>
  <flow id="JF131901" begin="5540" fromJunction="J4" toJunction="J7" end="5600" vehsPerHour="1.3153471902398062"/>
  <flow id="JF131902" begin="5540" fromJunction="J5" toJunction="J0" end="5600" vehsPerHour="60.988031194234495"/>
  <flow id="JF131903" begin="5540" fromJunction="J5" toJunction="J3" end="5600" vehsPerHour="51.21003822678817"/>
  <flow id="JF131904" begin="5540" fromJunction="J5" toJunction="J4" end="5600" vehsPerHour="26.200658509183405"/>
  <flow id="JF131905" begin="5540" fromJunction="J5" toJunction="J7" end="5600" vehsPerHour="54.466652080955285"/>
  <flow id="JF131906" begin="5540" fromJunction="J6" toJunction="J0" end="5600" vehsPerHour="5.463899217263241"/>
  <flow id="JF131907" begin="5540" fromJunction="J6" toJunction="J3" end="5600" vehsPerHour="37.25638447449334"/>
  <flow id="JF131908" begin="5540" fromJunction="J6" toJunction="J4" end="5600" vehsPerHour="35.5081188621112"/>
  <flow id="JF131909" begin="5540" fromJunction="J6" toJunction="J5" end="5600" vehsPerHour="42.67324714726157"/>
  <flow id="JF131910" begin="5540" fromJunction="J7" toJunction="J3" end="5600" vehsPerHour="34.592726214696356"/>
  <flow id="JF131911" begin="5540" fromJunction="J7" toJunction="J4" end="5600" vehsPerHour="55.65820958378561"/>
  <flow id="JF131912" begin="5540" fromJunction="J7" toJunction="J5" end="5600" vehsPerHour="13.519646417357302"/>
  <flow id="JF131913" begin="5600" fromJunction="J0" toJunction="J3" end="5660" vehsPerHour="123.86031178257859"/>
  <flow id="JF131914" begin="5600" fromJunction="J0" toJunction="J4" end="5660" vehsPerHour="61.032323945580686"/>
  <flow id="JF131915" begin="5600" fromJunction="J0" toJunction="J6" end="5660" vehsPerHour="56.85796155428126"/>
  <flow id="JF131916" begin="5600" fromJunction="J3" toJunction="J6" end="5660" vehsPerHour="67.76463411319588"/>
  <flow id="JF131917" begin="5600" fromJunction="J3" toJunction="J7" end="5660" vehsPerHour="133.35317920694294"/>
  <flow id="JF131918" begin="5600" fromJunction="J4" toJunction="J0" end="5660" vehsPerHour="7.190681299979378"/>
  <flow id="JF131919" begin="5600" fromJunction="J4" toJunction="J3" end="5660" vehsPerHour="46.83618085220265"/>
  <flow id="JF131920" begin="5600" fromJunction="J4" toJunction="J5" end="5660" vehsPerHour="49.608535765823035"/>
  <flow id="JF131921" begin="5600" fromJunction="J4" toJunction="J6" end="5660" vehsPerHour="51.65101339446869"/>
  <flow id="JF131922" begin="5600" fromJunction="J4" toJunction="J7" end="5660" vehsPerHour="5.581910362605508"/>
  <flow id="JF131923" begin="5600" fromJunction="J5" toJunction="J3" end="5660" vehsPerHour="48.30669372913648"/>
  <flow id="JF131924" begin="5600" fromJunction="J5" toJunction="J4" end="5660" vehsPerHour="45.436299809946476"/>
  <flow id="JF131925" begin="5600" fromJunction="J5" toJunction="J7" end="5660" vehsPerHour="53.391496098430075"/>
  <flow id="JF131926" begin="5600" fromJunction="J6" toJunction="J3" end="5660" vehsPerHour="66.75339255138077"/>
  <flow id="JF131927" begin="5600" fromJunction="J7" toJunction="J0" end="5660" vehsPerHour="24.79613593975665"/>
  <flow id="JF131928" begin="5600" fromJunction="J7" toJunction="J4" end="5660" vehsPerHour="40.07208869228472"/>
  <flow id="JF131929" begin="5600" fromJunction="J7" toJunction="J5" end="5660" vehsPerHour="17.351462965503323"/>
  <flow id="JF131930" begin="5660" fromJunction="J0" toJunction="J4" end="5720" vehsPerHour="107.66241198682516"/>
  <flow id="JF131931" begin="5660" fromJunction="J0" toJunction="J5" end="5720" vehsPerHour="52.07437702301654"/>
  <flow id="JF131932" begin="5660" fromJunction="J0" toJunction="J6" end="5720" vehsPerHour="120.8825182722085"/>
  <flow id="JF131933" begin="5660" fromJunction="J0" toJunction="J7" end="5720" vehsPerHour="115.49533510891746"/>
  <flow id="JF131934" begin="5660" fromJunction="J3" toJunction="J4" end="5720" vehsPerHour="133.9890119783952"/>
  <flow id="JF131935" begin="5660" fromJunction="J3" toJunction="J5" end="5720" vehsPerHour="75.61067635375697"/>
  <flow id="JF131936" begin="5660" fromJunction="J3" toJunction="J6" end="5720" vehsPerHour="41.340102600074076"/>
  <flow id="JF131937" begin="5660" fromJunction="J3" toJunction="J7" end="5720" vehsPerHour="16.38827401285442"/>
  <flow id="JF131938" begin="5660" fromJunction="J4" toJunction="J0" end="5720" vehsPerHour="47.81974676299733"/>
  <flow id="JF131939" begin="5660" fromJunction="J4" toJunction="J5" end="5720" vehsPerHour="47.03518992483306"/>
  <flow id="JF131940" begin="5660" fromJunction="J4" toJunction="J6" end="5720" vehsPerHour="58.035512144092"/>
  <flow id="JF131941" begin="5660" fromJunction="J4" toJunction="J7" end="5720" vehsPerHour="20.01635563590663"/>
  <flow id="JF131942" begin="5660" fromJunction="J5" toJunction="J0" end="5720" vehsPerHour="56.13122996554672"/>
  <flow id="JF131943" begin="5660" fromJunction="J5" toJunction="J4" end="5720" vehsPerHour="49.238866449712226"/>
  <flow id="JF131944" begin="5660" fromJunction="J5" toJunction="J6" end="5720" vehsPerHour="36.85306899284148"/>