<?xml version="1.0" encoding="UTF-8"?>
<routes xmlns:xsi="http://www.w3.org/2001/XMLSchema-instance" xsi:noNamespaceSchemaLocation="http://sumo.dlr.de/xsd/routes_file.xsd">
  <flow id="JF144138" begin="0" fromJunction="J3" toJunction="J0" end="5000" vehsPerHour="442.7137964927954"/>
  <flow id="JF144139" begin="0" fromJunction="J0" toJunction="J3" end="5000" vehsPerHour="132.79146830923764"/>
  <flow id="JF144140" begin="0" fromJunction="J3" toJunction="J7" end="5000" vehsPerHour="12.491868660555964"/>
  <flow id="JF144141" begin="0" fromJunction="J3" toJunction="J6" end="5000" vehsPerHour="11.197648195243149"/>
  <flow id="JF144142" begin="0" fromJunction="J3" toJunction="J5" end="5000" vehsPerHour="106.03614766066812"/>
  <flow id="JF144143" begin="0" fromJunction="J3" toJunction="J4" end="5000" vehsPerHour="50.73810885054249"/>
  <flow id="JF144144" begin="0" fromJunction="J0" toJunction="J7" end="5000" vehsPerHour="59.382368994280235"/>
  <flow id="JF144145" begin="0" fromJunction="J0" toJunction="J6" end="5000" vehsPerHour="68.78362945979839"/>
  <flow id="JF144146" begin="0" fromJunction="J0" toJunction="J5" end="5000" vehsPerHour="87.69125861006306"/>
  <flow id="JF144147" begin="0" fromJunction="J0" toJunction="J4" end="5000" vehsPerHour="32.06236834860914"/>
  <flow id="JF144148" begin="0" fromJunction="J7" toJunction="J6" end="5000" vehsPerHour="241.66504847002696"/>
  <flow id="JF144149" begin="0" fromJunction="J7" toJunction="J5" end="5000" vehsPerHour="148.67707639186452"/>
  <flow id="JF144150" begin="0" fromJunction="J7" toJunction="J4" end="5000" vehsPerHour="250.01523829401296"/>
  <flow id="JF144151" begin="0" fromJunction="J6" toJunction="J7" end="5000" vehsPerHour="11.446219909340282"/>
  <flow id="JF144152" begin="0" fromJunction="J6" toJunction="J5" end="5000" vehsPerHour="236.20849587048724"/>
  <flow id="JF144153" begin="0" fromJunction="J6" toJunction="J4" end="5000" vehsPerHour="28.11761922918966"/>
  <flow id="JF144154" begin="0" fromJunction="J5" toJunction="J7" end="5000" vehsPerHour="119.67186721396669"/>
  <flow id="JF144155" begin="0" fromJunction="J5" toJunction="J6" end="5000" vehsPerHour="27.770551771616372"/>
  <flow id="JF144156" begin="0" fromJunction="J5" toJunction="J4" end="5000" vehsPerHour="243.96767033372555"/>
  <flow id="JF144157" begin="0" fromJunction="J4" toJunction="J7" end="5000" vehsPerHour="48.98337460239295"/>
  <flow id="JF144158" begin="0" fromJunction="J4" toJunction="J6" end="5000" vehsPerHour="72.76038105227084"/>
  <flow id="JF144159" begin="0" fromJunction="J4" toJunction="J5" end="5000" vehsPerHour="195.41941731363886"/>
  <flow id="JF144160" begin="0" fromJunction="J7" toJunction="J3" end="5000" vehsPerHour="12.867888691032745"/>
  <flow id="JF144161" begin="0" fromJunction="J7" toJunction="J0" end="5000" vehsPerHour="27.53420685800656"/>
  <flow id="JF144162" begin="0" fromJunction="J6" toJunction="J3" end="5000" vehsPerHour="50.76823634110647"/>
  <flow id="JF144163" begin="0" fromJunction="J6" toJunction="J0" end="5000" vehsPerHour="11.255086509533145"/>
  <flow id="JF144164" begin="0" fromJunction="J5" toJunction="J3" end="5000" vehsPerHour="37.62070774365546"/>
  <flow id="JF144165" begin="0" fromJunction="J5" toJunction="J0" end="5000" vehsPerHour="17.009533831570455"/>
  <flow id="JF144166" begin="0" fromJunction="J4" toJunction="J3" end="5000" vehsPerHour="8.103195907120165"/>
  <flow id="JF144167" begin="0" fromJunction="J4" toJunction="J0" end="5000" vehsPerHour="64.93308401600613"/>
  <flow id="JF144168" begin="5000" fromJunction="J0" toJunction="J3" end="5060" vehsPerHour="77.24303176522714"/>
  <flow id="JF144169" begin="5000" fromJunction="J0" toJunction="J4" end="5060" vehsPerHour="83.57584144708322"/>
  <flow id="JF144170" begin="5000" fromJunction="J0" toJunction="J5" end="5060" vehsPerHour="54.9945914389228"/>
  <flow id="JF144171" begin="5000" fromJunction="J0" toJunction="J6" end="5060" vehsPerHour="105.5980399778574"/>
  <flow id="JF144172" begin="5000" fromJunction="J0" toJunction="J7" end="5060" vehsPerHour="41.00599464960662"/>
  <flow id="JF144173" begin="5000" fromJunction="J3" toJunction="J0" end="5060" vehsPerHour="28.631677267534183"/>
  <flow id="JF144174" begin="5000" fromJunction="J3" toJunction="J4" end="5060" vehsPerHour="38.21594996077613"/>
  <flow id="JF144175" begin="5000" fromJunction="J3" toJunction="J6" end="5060" vehsPerHour="42.06271937501635"/>
  <flow id="JF144176" begin="5000" fromJunction="J3" toJunction="J7" end="5060" vehsPerHour="87.22331968715908"/>
  <flow id="JF144177" begin="5000" fromJunction="J4" toJunction="J0" end="5060" vehsPerHour="46.78951921037465"/>
  <flow id="JF144178" begin="5000" fromJunction="J4" toJunction="J3" end="5060" vehsPerHour="1.292578908294241"/>
  <flow id="JF144179" begin="5000" fromJunction="J4" toJunction="J5" end="5060" vehsPerHour="22.402629557410304"/>
  <flow id="JF144180" begin="5000" fromJunction="J4" toJunction="J7" end="5060" vehsPerHour="61.98383851284589"/>
  <flow id="JF144181" begin="5000" fromJunction="J5" toJunction="J0" end="5060" vehsPerHour="12.697329040388473"/>
  <flow id="JF144182" begin="5000" fromJunction="J5" toJunction="J3" end="5060" vehsPerHour="31.17485977041869"/>
  <flow id="JF144183" begin="5000" fromJunction="J5" toJunction="J4" end="5060" vehsPerHour="40.457146230441374"/>
  <flow id="JF144184" begin="5000" fromJunction="J5" toJunction="J6" end="5060" vehsPerHour="1.410892356639067"/>
  <flow id="JF144185" begin="5000" fromJunction="J5" toJunction="J7" end="5060" vehsPerHour="41.07086494090623"/>
  <flow id="JF144186" begin="5000" fromJunction="J6" toJunction="J0" end="5060" vehsPerHour="25.112537002331987"/>
  <flow id="JF144187" begin="5000" fromJunction="J6" toJunction="J3" end="5060" vehsPerHour="31.994477135072206"/>
  <flow id="JF144188" begin="5000" fromJunction="J6" toJunction="J4" end="5060" vehsPerHour="53.054785774125506"/>
  <flow id="JF144189" begin="5000" fromJunction="J6" toJunction="J5" end="5060" vehsPerHour="65.12220706113487"/>
  <flow id="JF144190" begin="5000" fromJunction="J7" toJunction="J0" end="5060" vehsPerHour="53.48615903658225"/>
  <flow id="JF144191" begin="5000" fromJunction="J7" toJunction="J3" end="5060" vehsPerHour="18.630297407638334"/>
  <flow id="JF144192" begin="5000" fromJunction="J7" toJunction="J4" end="5060" vehsPerHour="61.150184459600325"/>
  <flow id="JF144193" begin="5000" fromJunction="J7" toJunction="J6" end="5060" vehsPerHour="54.65672872668351"/>
  <flow id="JF144194" begin="5060" fromJunction="J0" toJunction="J4" end="5120" vehsPerHour="72.09326398660235"/>
  <flow id="JF144195" begin="5060" fromJunction="J0" toJunction="J5" end="5120" vehsPerHour="137.00108307350592"/>
  <flow id="JF144196" begin="5060" fromJunction="J0" toJunction="J7" end="5120" vehsPerHour="17.141427386098485"/>
  <flow id="JF144197" begin="5060" fromJunction="J3" toJunction="J5" end="5120" vehsPerHour="116.89709800985034"/>
  <flow id="JF144198" begin="5060" fromJunction="J4" toJunction="J0" end="5120" vehsPerHour="9.8063406516217"/>
  <flow id="JF144199" begin="5060" fromJunction="J4" toJunction="J3" end="5120" vehsPerHour="48.908307006877614"/>
  <flow id="JF144200" begin="5060" fromJunction="J4" toJunction="J5" end="5120" vehsPerHour="34.6026557597572"/>
  <flow id="JF144201" begin="5060" fromJunction="J4" toJunction="J6" end="5120" vehsPerHour="44.0670065833479"/>
  <flow id="JF144202" begin="5060" fromJunction="J4" toJunction="J7" end="5120" vehsPerHour="27.946167881156644"/>
  <flow id="JF144203" begin="5060" fromJunction="J5" toJunction="J0" end="5120" vehsPerHour="58.71622033977325"/>
  <flow id="JF144204" begin="5060" fromJunction="J5" toJunction="J3" end="5120" vehsPerHour="56.17884729470778"/>
  <flow id="JF144205" begin="5060" fromJunction="J5" toJunction="J4" end="5120" vehsPerHour="64.5609644996312"/>
  <flow id="JF144206" begin="5060" fromJunction="J5" toJunction="J6" end="5120" vehsPerHour="44.02537751505693"/>
  <flow id="JF144207" begin="5060" fromJunction="J5" toJunction="J7" end="5120" vehsPerHour="9.13049171930593"/>
  <flow id="JF144208" begin="5060" fromJunction="J6" toJunction="J0" end="5120" vehsPerHour="17.84530763284363"/>
  <flow id="JF144209" begin="5060" fromJunction="J6" toJunction="J3" end="5120" vehsPerHour="57.77596571409145"/>
  <flow id="JF144210" begin="5060" fromJunction="J6" toJunction="J5" end="5120" vehsPerHour="49.748705032572225"/>
  <flow id="JF144211" begin="5060" fromJunction="J6" toJunction="J7" end="5120" vehsPerHour="39.845230389535175"/>
  <flow id="JF144212" begin="5060" fromJunction="J7" toJunction="J0" end="5120" vehsPerHour="60.80857348271581"/>
  <flow id="JF144213" begin="5060" fromJunction="J7" toJunction="J3" end="5120" vehsPerHour="17.78808160639689"/>
  <flow id="JF144214" begin="5060" fromJunction="J7" toJunction="J4" end="5120" vehsPerHour="53.35273472385408"/>
  <flow id="JF144215" begin="5060" fromJunction="J7" toJunction="J5" end="5120" vehsPerHour="28.097126573329408"/>
  <flow id="JF144216" begin="5060" fromJunction="J7" toJunction="J6" end="5120" vehsPerHour="45.25072627262221"/>
  <flow id="JF144217" begin="5120" fromJunction="J0" toJunction="J3" end="5180" vehsPerHour="5.570391500325381"/>
  <flow id="JF144218" begin="5120" fromJunction="J0" toJunction="J4" end="5180" vehsPerHour="84.3788018701544"/>
  <flow id="JF144219" begin="5120" fromJunction="J0" toJunction="J5" end="5180" vehsPerHour="15.04032511978648"/>
  <flow id="JF144220" begin="5120" fromJunction="J0" toJunction="J7" end="5180" vehsPerHour="45.53614098040586"/>
  <flow id="JF144221" begin="5120" fromJunction="J3" toJunction="J0" end="5180" vehsPerHour="0.19324835408088203"/>
  <flow id="JF144222" begin="5120" fromJunction="J3" toJunction="J4" end="5180" vehsPerHour="91.27520571897338"/>
  <flow id="JF144223" begin="5120" fromJunction="J3" toJunction="J5" end="5180" vehsPerHour="117.78796764226324"/>
  <flow id="JF144224" begin="5120" fromJunction="J3" toJunction="J6" end="5180" vehsPerHour="51.185774456712494"/>
  <flow id="JF144225" begin="5120" fromJunction="J3" toJunction="J7" end="5180" vehsPerHour="5.0859095800615055"/>
  <flow id="JF144226" begin="5120" fromJunction="J4" toJunction="J0" end="5180" vehsPerHour="25.605622378301863"/>
  <flow id="JF144227" begin="5120" fromJunction="J4" toJunction="J3" end="5180" vehsPerHour="1.0497284781470995"/>
  <flow id="JF144228" begin="5120" fromJunction="J4" toJunction="J5" end="5180" vehsPerHour="36.98110071942142"/>
  <flow id="JF144229" begin="5120" fromJunction="J4" toJunction="J6" end="5180" vehsPerHour="68.37721942078683"/>
  <flow id="JF144230" begin="5120" fromJunction="J4" toJunction="J7" end="5180" vehsPerHour="32.05431660429573"/>
  <flow id="JF144231" begin="5120" fromJunction="J5" toJunction="J0" end="5180" vehsPerHour="18.55806254770756"/>
  <flow id="JF144232" begin="5120" fromJunction="J5" toJunction="J3" end="5180" vehsPerHour="25.085848077601096"/>
  <flow id="JF144233" begin="5120" fromJunction="J5" toJunction="J4" end="5180" vehsPerHour="31.523577390970583"/>
  <flow id="JF144234" begin="5120" fromJunction="J5" toJunction="J6" end="5180" vehsPerHour="66.35824390566195"/>
  <flow id="JF144235" begin="5120" fromJunction="J5" toJunction="J7" end="5180" vehsPerHour="48.023318759490614"/>
  <flow id="JF144236" begin="5120" fromJunction="J6" toJunction="J0" end="5180" vehsPerHour="39.69932204834836"/>
  <flow id="JF144237" begin="5120" fromJunction="J6" toJunction="J7" end="5180" vehsPerHour="16.408980962150046"/>
  <flow id="JF144238" begin="5120" fromJunction="J7" toJunction="J0" end="5180" vehsPerHour="55.62294390687335"/>
  <flow id="JF144239" begin="5120" fromJunction="J7" toJunction="J3" end="5180" vehsPerHour="12.25094730179029"/>
  <flow id="JF144240" begin="5120" fromJunction="J7" toJunction="J4" end="5180" vehsPerHour="34.478045156782656"/>
  <flow id="JF144241" begin="5120" fromJunction="J7" toJunction="J6" end="5180" vehsPerHour="35.31459467449722"/>
  <flow id="JF144242" begin="5180" fromJunction="J0" toJunction="J4" end="5240" vehsPerHour="43.449201254557686"/>
  <flow id="JF144243" begin="5180" fromJunction="J0" toJunction="J6" end="5240" vehsPerHour="46.705569178150824"/>
  <flow id="JF144244" begin="5180" fromJunction="J0" toJunction="J7" end="5240" vehsPerHour="109.49163065480792"/>
  <flow id="JF144245" begin="5180" fromJunction="J3" toJunction="J4" end="5240" vehsPerHour="119.43991082167229"/>
  <flow id="JF144246" begin="5180" fromJunction="J3" toJunction="J5" end="5240" vehsPerHour="70.90412548415155"/>
  <flow id="JF144247" begin="5180" fromJunction="J3" toJunction="J6" end="5240" vehsPerHour="35.0240352153046"/>
  <flow id="JF144248" begin="5180" fromJunction="J4" toJunction="J0" end="5240" vehsPerHour="61.742666826076686"/>
  <flow id="JF144249" begin="5180" fromJunction="J4" toJunction="J3" end="5240" vehsPerHour="31.26309651296832"/>
  <flow id="JF144250" begin="5180" fromJunction="J4" toJunction="J5" end="5240" vehsPerHour="20.901385556394477"/>
  <flow id="JF144251" begin="5180" fromJunction="J5" toJunction="J3" end="5240" vehsPerHour="17.04636371638945"/>
  <flow id="JF144252" begin="5180" fromJunction="J5" toJunction="J4" end="5240" vehsPerHour="55.39930203905703"/>
  <flow id="JF144253" begin="5180" fromJunction="J5" toJunction="J7" end="5240" vehsPerHour="68.47610172560712"/>
  <flow id="JF144254" begin="5180" fromJunction="J6" toJunction="J3" end="5240" vehsPerHour="50.62620284425509"/>
  <flow id="JF144255" begin="5180" fromJunction="J6" toJunction="J4" end="5240" vehsPerHour="50.272319783492925"/>
  <flow id="JF144256" begin="5180" fromJunction="J6" toJunction="J5" end="5240" vehsPerHour="55.50561171225047"/>
  <flow id="JF144257" begin="5180" fromJunction="J6" toJunction="J7" end="5240" vehsPerHour="23.656880770826966"/>
  <flow id="JF144258" begin="5180" fromJunction="J7" toJunction="J0" end="5240" vehsPerHour="17.787296142957473"/>
  <flow id="JF144259" begin="5180" fromJunction="J7" toJunction="J3" end="5240" vehsPerHour="50.084109141988996"/>
  <flow id="JF144260" begin="5180" fromJunction="J7" toJunction="J5" end="5240" vehsPerHour="29.322751075672972"/>
  <flow id="JF144261" begin="5240" fromJunction="J0" toJunction="J4" end="5300" vehsPerHour="94.95911311213281"/>
  <flow id="JF144262" begin="5240" fromJunction="J0" toJunction="J6" end="5300" vehsPerHour="117.61770891641964"/>
  <flow id="JF144263" begin="5240" fromJunction="J0" toJunction="J7" end="5300" vehsPerHour="27.868922191944"/>
  <flow id="JF144264" begin="5240" fromJunction="J3" toJunction="J0" end="5300" vehsPerHour="13.242772452287891"/>
  <flow id="JF144265" begin="5240" fromJunction="J3" toJunction="J4" end="5300" vehsPerHour="33.67724051101497"/>
  <flow id="JF144266" begin="5240" fromJunction="J3" toJunction="J5" end="5300" vehsPerHour="111.76008071538006"/>
  <flow id="JF144267" begin="5240" fromJunction="J3" toJunction="J7" end="5300" vehsPerHour="46.16471092569921"/>
  <flow id="JF144268" begin="5240" fromJunction="J4" toJunction="J0" end="5300" vehsPerHour="66.52693860137798"/>
  <flow id="JF144269" begin="5240" fromJunction="J4" toJunction="J5" end="5300" vehsPerHour="61.89733801527567"/>
  <flow id="JF144270" begin="5240" fromJunction="J4" toJunction="J6" end="5300" vehsPerHour="9.874891038395589"/>
  <flow id="JF144271" begin="5240" fromJunction="J5" toJunction="J0" end="5300" vehsPerHour="27.02503518823286"/>
  <flow id="JF144272" begin="5240" fromJunction="J5" toJunction="J4" end="5300" vehsPerHour="54.88878819209342"/>
  <flow id="JF144273" begin="5240" fromJunction="J5" toJunction="J7" end="5300" vehsPerHour="15.405737447023228"/>
  <flow id="JF144274" begin="5240" fromJunction="J6" toJunction="J3" end="5300" vehsPerHour="0.472388526908943"/>
  <flow id="JF144275" begin="5240" fromJunction="J6" toJunction="J4" end="5300" vehsPerHour="48.504875519913824"/>
  <flow id="JF144276" begin="5240" fromJunction="J6" toJunction="J5" end="5300" vehsPerHour="2.57006238693224"/>
  <flow id="JF144277" begin="5240" fromJunction="J6" toJunction="J7" end="5300" vehsPerHour="52.076652260861025"/>
  <flow id="JF144278" begin="5240" fromJunction="J7" toJunction="J0" end="5300" vehsPerHour="25.936028414298704"/>
  <flow id="JF144279" begin="5240" fromJunction="J7" toJunction="J4" end="5300" vehsPerHour="16.934395149706205"/>
  <flow id="JF144280" begin="5240" fromJunction="J7" toJunction="J6" end="5300" vehsPerHour="61.01265145790002"/>
  <flow id="JF144281" begin="5300" fromJunction="J0" toJunction="J3" end="5360" vehsPerHour="36.42233131155637"/>
  <flow id="JF144282" begin="5300" fromJunction="J0" toJunction="J4" end="5360" vehsPerHour="26.74513975785381"/>
  <flow id="JF144283" begin="5300" fromJunction="J0" toJunction="J5" end="5360" vehsPerHour="75.77070378008915"/>
  <flow id="JF144284" begin="5300" fromJunction="J0" toJunction="J7" end="5360" vehsPerHour="85.02398340817668"/>
  <flow id="JF144285" begin="5300" fromJunction="J3" toJunction="J0" end="5360" vehsPerHour="4.736919434857429"/>
  <flow id="JF144286" begin="5300" fromJunction="J3" toJunction="J4" end="5360" vehsPerHour="87.28991065504778"/>
  <flow id="JF144287" begin="5300" fromJunction="J3" toJunction="J6" end="5360" vehsPerHour="8.8773710900363"/>
  <flow id="JF144288" begin="5300" fromJunction="J4" toJunction="J0" end="5360" vehsPerHour="26.345035501183766"/>
  <flow id="JF144289" begin="5300" fromJunction="J4" toJunction="J3" end="5360" vehsPerHour="45.29021550098611"/>
  <flow id="JF144290" begin="5300" fromJunction="J4" toJunction="J5" end="5360" vehsPerHour="39.50177813523871"/>
  <flow id="JF144291" begin="5300" fromJunction="J4" toJunction="J6" end="5360" vehsPerHour="47.00093630006876"/>
  <flow id="JF144292" begin="5300" fromJunction="J4" toJunction="J7" end="5360" vehsPerHour="51.90383724014723"/>
  <flow id="JF144293" begin="5300" fromJunction="J5" toJunction="J3" end="5360" vehsPerHour="68.26468323526133"/>
  <flow id="JF144294" begin="5300" fromJunction="J5" toJunction="J4" end="5360" vehsPerHour="16.76789666746095"/>
  <flow id="JF144295" begin="5300" fromJunction="J5" toJunction="J7" end="5360" vehsPerHour="24.695162464776928"/>
  <flow id="JF144296" begin="5300" fromJunction="J6" toJunction="J4" end="5360" vehsPerHour="37.65265788779085"/>
  <flow id="JF144297" begin="5300" fromJunction="J6" toJunction="J5" end="5360" vehsPerHour="3.397642210352287"/>
  <flow id="JF144298" begin="5300" fromJunction="J6" toJunction="J7" end="5360" vehsPerHour="53.48225776431725"/>
  <flow id="JF144299" begin="5300" fromJunction="J7" toJunction="J0" end="5360" vehsPerHour="41.3841681454651"/>
  <flow id="JF144300" begin="5300" fromJunction="J7" toJunction="J3" end="5360" vehsPerHour="62.46364091763641"/>
  <flow id="JF144301" begin="5300" fromJunction="J7" toJunction="J4" end="5360" vehsPerHour="7.695317300066291"/>
  <flow id="JF144302" begin="5300" fromJunction="J7" toJunction="J5" end="5360" vehsPerHour="40.356875135569304"/>
  <flow id="JF144303" begin="5300" fromJunction="J7" toJunction="J6" end="5360" vehsPerHour="14.350015881982287"/>
  <flow id="JF144304" begin="5360" fromJunction="J0" toJunction="J3" end="5420" vehsPerHour="122.19502758850336"/>
  <flow id="JF144305" begin="5360" fromJunction="J0" toJunction="J4" end="5420" vehsPerHour="50.55696184615399"/>
  <flow id="JF144306" begin="5360" fromJunction="J0" toJunction="J5" end="5420" vehsPerHour="102.64552804838372"/>
  <flow id="JF144307" begin="5360" fromJunction="J3" toJunction="J0" end="5420" vehsPerHour="89.7252358297086"/>
  <flow id="JF144308" begin="5360" fromJunction="J3" toJunction="J4" end="5420" vehsPerHour="127.5352774377427"/>
  <flow id="JF144309" begin="5360" fromJunction="J3" toJunction="J5" end="5420" vehsPerHour="27.983133458220255"/>
  <flow id="JF144310" begin="5360" fromJunction="J3" toJunction="J7" end="5420" vehsPerHour="92.00532669773288"/>
  <flow id="JF144311" begin="5360" fromJunction="J4" toJunction="J3" end="5420" vehsPerHour="4.199081660141955"/>
  <flow id="JF144312" begin="5360" fromJunction="J4" toJunction="J5" end="5420" vehsPerHour="20.840803263865798"/>
  <flow id="JF144313" begin="5360" fromJunction="J4" toJunction="J6" end="5420" vehsPerHour="61.38199809900237"/>
  <flow id="JF144314" begin="5360" fromJunction="J5" toJunction="J3" end="5420" vehsPerHour="14.18178982272484"/>
  <flow id="JF144315" begin="5360" fromJunction="J5" toJunction="J4" end="5420" vehsPerHour="54.56789033432502"/>
  <flow id="JF144316" begin="5360" fromJunction="J5" toJunction="J6" end="5420" vehsPerHour="32.55527962140977"/>
  <flow id="JF144317" begin="5360" fromJunction="J6" toJunction="J3" end="5420" vehsPerHour="24.088488311970593"/>
  <flow id="JF144318" begin="5360" fromJunction="J6" toJunction="J4" end="5420" vehsPerHour="27.020938893209372"/>
  <flow id="JF144319" begin="5360" fromJunction="J6" toJunction="J5" end="5420" vehsPerHour="58.09083245324396"/>
  <flow id="JF144320" begin="5360" fromJunction="J6" toJunction="J7" end="5420" vehsPerHour="39.63434820843844"/>
  <flow id="JF144321" begin="5360" fromJunction="J7" toJunction="J0" end="5420" vehsPerHour="3.4931646088036308"/>
  <flow id="JF144322" begin="5360" fromJunction="J7" toJunction="J3" end="5420" vehsPerHour="41.131440613492806"/>
  <flow id="JF144323" begin="5360" fromJunction="J7" toJunction="J4" end="5420" vehsPerHour="3.8129672722737267"/>
  <flow id="JF144324" begin="5360" fromJunction="J7" toJunction="J5" end="5420" vehsPerHour="17.043604899187837"/>
  <flow id="JF144325" begin="5360" fromJunction="J7" toJunction="J6" end="5420" vehsPerHour="60.237897173476604"/>
  <flow id="JF144326" begin="5420" fromJunction="J0" toJunction="J4" end="5480" vehsPerHour="7.385632392798999"/>
  <flow id="JF144327" begin="5420" fromJunction="J0" toJunction="J5" end="5480" vehsPerHour="17.216798676745785"/>
  <flow id="JF144328" begin="5420" fromJunction="J0" toJunction="J7" end="5480" vehsPerHour="126.08130876407125"/>
  <flow id="JF144329" begin="5420" fromJunction="J3" toJunction="J0" end="5480" vehsPerHour="75.94162467483153"/>
  <flow id="JF144330" begin="5420" fromJunction="J3" toJunction="J5" end="5480" vehsPerHour="88.99775277667172"/>
  <flow id="JF144331" begin="5420" fromJunction="J4" toJunction="J0" end="5480" vehsPerHour="54.0134018994428"/>
  <flow id="JF144332" begin="5420" fromJunction="J4" toJunction="J3" end="5480" vehsPerHour="60.94654491118112"/>
  <flow id="JF144333" begin="5420" fromJunction="J5" toJunction="J3" end="5480" vehsPerHour="17.280477434317113"/>
  <flow id="JF144334" begin="5420" fromJunction="J5" toJunction="J6" end="5480" vehsPerHour="66.67825446972101"/>
  <flow id="JF144335" begin="5420" fromJunction="J5" toJunction="J7" end="5480" vehsPerHour="59.41267699672503"/>
  <flow id="JF144336" begin="5420" fromJunction="J6" toJunction="J3" end="5480" vehsPerHour="36.575534060046984"/>
  <flow id="JF144337" begin="5420" fromJunction="J6" toJunction="J4" end="5480" vehsPerHour="32.804723175487084"/>
  <flow id="JF144338" begin="5420" fromJunction="J6" toJunction="J5" end="5480" vehsPerHour="28.156319071034424"/>
  <flow id="JF144339" begin="5420" fromJunction="J6" toJunction="J7" end="5480" vehsPerHour="19.46750679610182"/>
  <flow id="JF144340" begin="5420" fromJunction="J7" toJunction="J4" end="5480" vehsPerHour="29.953715092523122"/>
  <flow id="JF144341" begin="5480" fromJunction="J0" toJunction="J5" end="5540" vehsPerHour="70.76297139749327"/>
  <flow id="JF144342" begin="5480" fromJunction="J0" toJunction="J6" end="5540" vehsPerHour="98.38022319546361"/>
  <flow id="JF144343" begin="5480" fromJunction="J0" toJunction="J7" end="5540" vehsPerHour="88.57107727427677"/>
  <flow id="JF144344" begin="5480" fromJunction="J3" toJunction="J0" end="5540" vehsPerHour="53.90097964057188"/>
  <flow id="JF144345" begin="5480" fromJunction="J3" toJunction="J4" end="5540" vehsPerHour="102.93822006569033"/>
  <flow id="JF144346" begin="5480" fromJunction="J3" toJunction="J5" end="5540" vehsPerHour="127.92325657166154"/>
  <flow id="JF144347" begin="5480" fromJunction="J3" toJunction="J6" end="5540" vehsPerHour="13.755575246685517"/>
  <flow id="JF144348" begin="5480" fromJunction="J3" toJunction="J7" end="5540" vehsPerHour="92.01405614369268"/>
  <flow id="JF144349" begin="5480" fromJunction="J4" toJunction="J0" end="5540" vehsPerHour="28.19539174171198"/>
  <flow id="JF144350" begin="5480" fromJunction="J4" toJunction="J6" end="5540" vehsPerHour="10.765585830047863"/>
  <flow id="JF144351" begin="5480" fromJunction="J5" toJunction="J3" end="5540" vehsPerHour="48.62137370513792"/>
  <flow id="JF144352" begin="5480" fromJunction="J5" toJunction="J6" end="5540" vehsPerHour="39.25056206650523"/>
  <flow id="JF144353" begin="5480" fromJunction="J5" toJunction="J7" end="5540" vehsPerHour="20.308542508834705"/>
  <flow id="JF144354" begin="5480" fromJunction="J6" toJunction="J0" end="5540" vehsPerHour="43.91424889000988"/>
  <flow id="JF144355" begin="5480" fromJunction="J6" toJunction="J3" end="5540" vehsPerHour="21.21082394480336"/>
  <flow id="JF144356" begin="5480" fromJunction="J6" toJunction="J4" end="5540" vehsPerHour="8.788261595670614"/>
  <flow id="JF144357" begin="5480" fromJunction="J6" toJunction="J7" end="5540" vehsPerHour="16.789852466974082"/>
  <flow id="JF144358" begin="5480" fromJunction="J7" toJunction="J0" end="5540" vehsPerHour="42.84427116680175"/>
  <flow id="JF144359" begin="5480" fromJunction="J7" toJunction="J3" end="5540" vehsPerHour="55.051416069928194"/>
  <flow id="JF144360" begin="5480" fromJunction="J7" toJunction="J4" end="5540" vehsPerHour="41.37527053544554"/>
  <flow id="JF144361" begin="5480" fromJunction="J7" toJunction="J5" end="5540" vehsPerHour="23.45268469514705"/>
  <flow id="JF144362" begin="5480" fromJunction="J7" toJunction="J6" end="5540" vehsPerHour="16.60715827141613"/>
  <flow id="JF144363" begin="5540" fromJunction="J0" toJunction="J3" end="5600" vehsPerHour="131.88517256121807"/>
  <flow id="JF144364" begin="5540" fromJunction="J0" toJunction="J4" end="5600" vehsPerHour="0.6402054105101225"/>
  <flow id="JF144365" begin="5540" fromJunction="J0" toJunction="J5" end="5600" vehsPerHour="29.620570787370617"/>
  <flow id="JF144366" begin="5540" fromJunction="J0" toJunction="J6" end="5600" vehsPerHour="97.62311563029827"/>
  <flow id="JF144367" begin="5540" fromJunction="J0" toJunction="J7" end="5600" vehsPerHour="76.53547815681323"/>
  <flow id="JF144368" begin="5540" fromJunction="J3" toJunction="J4" end="5600" vehsPerHour="29.133820476341047"/>
  <flow id="JF144369" begin="5540" fromJunction="J3" toJunction="J5" end="5600" vehsPerHour="22.55375056490153"/>
  <flow id="JF144370" begin="5540" fromJunction="J3" toJunction="J6" end="5600" vehsPerHour="98.64005441367685"/>
  <flow id="JF144371" begin="5540" fromJunction="J3" toJunction="J7" end="5600" vehsPerHour="118.18982465864295"/>
  <flow id="JF144372" begin="5540" fromJunction="J4" toJunction="J3" end="5600" vehsPerHour="57.37497792523717"/>
  <flow id="JF144373" begin="5540" fromJunction="J4" toJunction="J5" end="5600" vehsPerHour="13.615602865888254"/>
  <flow id="JF144374" begin="5540" fromJunction="J4" toJunction="J6" end="5600" vehsPerHour="65.97980751958954"/>
  <flow id="JF144375" begin="5540" fromJunction="J4" toJunction="J7" end="5600" vehsPerHour="48.48651310997268"/>
  <flow id="JF144376" begin="5540" fromJunction="J5" toJunction="J3" end="5600" vehsPerHour="51.65165952465981"/>
  <flow id="JF144377" begin="5540" fromJunction="J5" toJunction="J4" end="5600" vehsPerHour="12.130582837126456"/>
  <flow id="JF144378" begin="5540" fromJunction="J5" toJunction="J7" end="5600" vehsPerHour="36.22998267721476"/>
  <flow id="JF144379" begin="5540" fromJunction="J6" toJunction="J0" end="5600" vehsPerHour="34.367152322026264"/>
  <flow id="JF144380" begin="5540" fromJunction="J6" toJunction="J3" end="5600" vehsPerHour="64.50246693047825"/>
  <flow id="JF144381" begin="5540" fromJunction="J6" toJunction="J4" end="5600" vehsPerHour="58.21514812585339"/>
  <flow id="JF144382" begin="5540" fromJunction="J7" toJunction="J0" end="5600" vehsPerHour="58.48287090208501"/>
  <flow id="JF144383" begin="5540" fromJunction="J7" toJunction="J4" end="5600" vehsPerHour="48.363035764484536"/>
  <flow id="JF144384" begin="5540" fromJunction="J7" toJunction="J5" end="5600" vehsPerHour="17.019262081662195"/>
  <flow id="JF144385" begin="5600" fromJunction="J0" toJunction="J3" end="5660" vehsPerHour="7.319683109857386"/>
  <flow id="JF144386" begin="5600" fromJunction="J0" toJunction="J4" end="5660" vehsPerHour="87.21554099667114"/>
  <flow id="JF144387" begin="5600" fromJunction="J0" toJunction="J5" end="5660" vehsPerHour="24.564853946529354"/>
  <flow id="JF144388" begin="5600" fromJunction="J0" toJunction="J7" end="5660" vehsPerHour="81.32587987805276"/>
  <flow id="JF144389" begin="5600" fromJunction="J3" toJunction="J0" end="5660" vehsPerHour="101.24546811007494"/>
  <flow id="JF144390" begin="5600" fromJunction="J3" toJunction="J4" end="5660" vehsPerHour="11.060028350404503"/>
  <flow id="JF144391" begin="5600" fromJunction="J3" toJunction="J5" end="5660" vehsPerHour="106.01036011093078"/>
  <flow id="JF144392" begin="5600" fromJunction="J3" toJunction="J6" end="5660" vehsPerHour="8.596997466341321"/>
  <flow id="JF144393" begin="5600" fromJunction="J3" toJunction="J7" end="5660" vehsPerHour="73.89613678248529"/>
  <flow id="JF144394" begin="5600" fromJunction="J4" toJunction="J0" end="5660" vehsPerHour="32.52284059504974"/>
  <flow id="JF144395" begin="5600" fromJunction="J4" toJunction="J5" end="5660" vehsPerHour="1.0303877643602344"/>
  <flow id="JF144396" begin="5600" fromJunction="J4" toJunction="J6" end="5660" vehsPerHour="25.59792235145775"/>
  <flow id="JF144397" begin="5600" fromJunction="J5" toJunction="J0" end="5660" vehsPerHour="40.8459288452735"/>
  <flow id="JF144398" begin="5600" fromJunction="J5" toJunction="J3" end="5660" vehsPerHour="63.60513986317626"/>