<?xml version="1.0" encoding="UTF-8"?>
<routes xmlns:xsi="http://www.w3.org/2001/XMLSchema-instance" xsi:noNamespaceSchemaLocation="http://sumo.dlr.de/xsd/routes_file.xsd">
  <flow id="JF140584" begin="0" fromJunction="J3" toJunction="J0" end="5000" vehsPerHour="764.365394585393"/>
  <flow id="JF140585" begin="0" fromJunction="J0" toJunction="J3" end="5000" vehsPerHour="374.6993818584836"/>
  <flow id="JF140586" begin="0" fromJunction="J3" toJunction="J7" end="5000" vehsPerHour="11.749100443769528"/>
  <flow id="JF140587" begin="0" fromJunction="J3" toJunction="J6" end="5000" vehsPerHour="81.2383373757519"/>
  <flow id="JF140588" begin="0" fromJunction="J3" toJunction="J5" end="5000" vehsPerHour="48.72387117076163"/>
  <flow id="JF140589" begin="0" fromJunction="J3" toJunction="J4" end="5000" vehsPerHour="6.419275340003072"/>
  <flow id="JF140590" begin="0" fromJunction="J0" toJunction="J7" end="5000" vehsPerHour="21.871812569053347"/>
  <flow id="JF140591" begin="0" fromJunction="J0" toJunction="J6" end="5000" vehsPerHour="132.87889866695411"/>
  <flow id="JF140592" begin="0" fromJunction="J0" toJunction="J5" end="5000" vehsPerHour="42.53506798988171"/>
  <flow id="JF140593" begin="0" fromJunction="J0" toJunction="J4" end="5000" vehsPerHour="73.81451401808953"/>
  <flow id="JF140594" begin="0" fromJunction="J7" toJunction="J6" end="5000" vehsPerHour="84.89147907561915"/>
  <flow id="JF140595" begin="0" fromJunction="J7" toJunction="J5" end="5000" vehsPerHour="138.43928544020747"/>
  <flow id="JF140596" begin="0" fromJunction="J7" toJunction="J4" end="5000" vehsPerHour="194.4352454917442"/>
  <flow id="JF140597" begin="0" fromJunction="J6" toJunction="J7" end="5000" vehsPerHour="54.27550881678267"/>
  <flow id="JF140598" begin="0" fromJunction="J6" toJunction="J5" end="5000" vehsPerHour="167.83238886792668"/>
  <flow id="JF140599" begin="0" fromJunction="J6" toJunction="J4" end="5000" vehsPerHour="99.1503021531763"/>
  <flow id="JF140600" begin="0" fromJunction="J5" toJunction="J7" end="5000" vehsPerHour="65.04716547823426"/>
  <flow id="JF140601" begin="0" fromJunction="J5" toJunction="J6" end="5000" vehsPerHour="42.309882022477204"/>
  <flow id="JF140602" begin="0" fromJunction="J5" toJunction="J4" end="5000" vehsPerHour="93.19219891625416"/>
  <flow id="JF140603" begin="0" fromJunction="J4" toJunction="J7" end="5000" vehsPerHour="141.3015220190179"/>
  <flow id="JF140604" begin="0" fromJunction="J4" toJunction="J6" end="5000" vehsPerHour="265.7346033565071"/>
  <flow id="JF140605" begin="0" fromJunction="J4" toJunction="J5" end="5000" vehsPerHour="161.77416269684437"/>
  <flow id="JF140606" begin="0" fromJunction="J7" toJunction="J3" end="5000" vehsPerHour="27.87385896587848"/>
  <flow id="JF140607" begin="0" fromJunction="J7" toJunction="J0" end="5000" vehsPerHour="48.52868808970076"/>
  <flow id="JF140608" begin="0" fromJunction="J6" toJunction="J3" end="5000" vehsPerHour="53.322735866158965"/>
  <flow id="JF140609" begin="0" fromJunction="J6" toJunction="J0" end="5000" vehsPerHour="22.325431390083118"/>
  <flow id="JF140610" begin="0" fromJunction="J5" toJunction="J3" end="5000" vehsPerHour="63.107114148300504"/>
  <flow id="JF140611" begin="0" fromJunction="J5" toJunction="J0" end="5000" vehsPerHour="68.11567586973024"/>
  <flow id="JF140612" begin="0" fromJunction="J4" toJunction="J3" end="5000" vehsPerHour="5.259272994274933"/>
  <flow id="JF140613" begin="0" fromJunction="J4" toJunction="J0" end="5000" vehsPerHour="43.71504485243132"/>
  <flow id="JF140614" begin="5000" fromJunction="J0" toJunction="J3" end="5060" vehsPerHour="118.9308501407569"/>
  <flow id="JF140615" begin="5000" fromJunction="J0" toJunction="J5" end="5060" vehsPerHour="13.076350113140602"/>
  <flow id="JF140616" begin="5000" fromJunction="J0" toJunction="J6" end="5060" vehsPerHour="4.13843059845922"/>
  <flow id="JF140617" begin="5000" fromJunction="J3" toJunction="J4" end="5060" vehsPerHour="66.32972731963773"/>
  <flow id="JF140618" begin="5000" fromJunction="J3" toJunction="J6" end="5060" vehsPerHour="40.011370354581054"/>
  <flow id="JF140619" begin="5000" fromJunction="J3" toJunction="J7" end="5060" vehsPerHour="22.0382789112706"/>
  <flow id="JF140620" begin="5000" fromJunction="J4" toJunction="J0" end="5060" vehsPerHour="33.747367304088954"/>
  <flow id="JF140621" begin="5000" fromJunction="J4" toJunction="J6" end="5060" vehsPerHour="55.917365516577384"/>
  <flow id="JF140622" begin="5000" fromJunction="J4" toJunction="J7" end="5060" vehsPerHour="47.67817314760718"/>
  <flow id="JF140623" begin="5000" fromJunction="J5" toJunction="J0" end="5060" vehsPerHour="4.07964385809729"/>
  <flow id="JF140624" begin="5000" fromJunction="J5" toJunction="J3" end="5060" vehsPerHour="32.20987758620484"/>
  <flow id="JF140625" begin="5000" fromJunction="J5" toJunction="J4" end="5060" vehsPerHour="18.8336866613171"/>
  <flow id="JF140626" begin="5000" fromJunction="J5" toJunction="J7" end="5060" vehsPerHour="25.16874405289932"/>
  <flow id="JF140627" begin="5000" fromJunction="J6" toJunction="J3" end="5060" vehsPerHour="45.570741993060594"/>
  <flow id="JF140628" begin="5000" fromJunction="J6" toJunction="J4" end="5060" vehsPerHour="17.9388212726977"/>
  <flow id="JF140629" begin="5000" fromJunction="J6" toJunction="J5" end="5060" vehsPerHour="22.791593877665512"/>
  <flow id="JF140630" begin="5000" fromJunction="J6" toJunction="J7" end="5060" vehsPerHour="54.84106489975439"/>
  <flow id="JF140631" begin="5000" fromJunction="J7" toJunction="J0" end="5060" vehsPerHour="7.102722192665602"/>
  <flow id="JF140632" begin="5000" fromJunction="J7" toJunction="J3" end="5060" vehsPerHour="16.799427501354547"/>
  <flow id="JF140633" begin="5000" fromJunction="J7" toJunction="J5" end="5060" vehsPerHour="55.851529109885995"/>
  <flow id="JF140634" begin="5000" fromJunction="J7" toJunction="J6" end="5060" vehsPerHour="8.387264598529711"/>
  <flow id="JF140635" begin="5060" fromJunction="J0" toJunction="J5" end="5120" vehsPerHour="58.230427148664184"/>
  <flow id="JF140636" begin="5060" fromJunction="J0" toJunction="J6" end="5120" vehsPerHour="10.373609918433306"/>
  <flow id="JF140637" begin="5060" fromJunction="J0" toJunction="J7" end="5120" vehsPerHour="118.2688979549955"/>
  <flow id="JF140638" begin="5060" fromJunction="J3" toJunction="J0" end="5120" vehsPerHour="95.16687744242681"/>
  <flow id="JF140639" begin="5060" fromJunction="J3" toJunction="J6" end="5120" vehsPerHour="58.39246440954305"/>
  <flow id="JF140640" begin="5060" fromJunction="J3" toJunction="J7" end="5120" vehsPerHour="36.16702937418829"/>
  <flow id="JF140641" begin="5060" fromJunction="J4" toJunction="J0" end="5120" vehsPerHour="49.38410567664284"/>
  <flow id="JF140642" begin="5060" fromJunction="J4" toJunction="J3" end="5120" vehsPerHour="29.42920419257488"/>
  <flow id="JF140643" begin="5060" fromJunction="J4" toJunction="J5" end="5120" vehsPerHour="0.506919030749738"/>
  <flow id="JF140644" begin="5060" fromJunction="J4" toJunction="J6" end="5120" vehsPerHour="37.503886976046964"/>
  <flow id="JF140645" begin="5060" fromJunction="J5" toJunction="J0" end="5120" vehsPerHour="51.92368976421897"/>
  <flow id="JF140646" begin="5060" fromJunction="J5" toJunction="J3" end="5120" vehsPerHour="28.169904999246118"/>
  <flow id="JF140647" begin="5060" fromJunction="J5" toJunction="J7" end="5120" vehsPerHour="45.57175305199554"/>
  <flow id="JF140648" begin="5060" fromJunction="J6" toJunction="J0" end="5120" vehsPerHour="26.338238753468318"/>
  <flow id="JF140649" begin="5060" fromJunction="J6" toJunction="J4" end="5120" vehsPerHour="16.58332747750932"/>
  <flow id="JF140650" begin="5060" fromJunction="J6" toJunction="J5" end="5120" vehsPerHour="1.2711678562973923"/>
  <flow id="JF140651" begin="5060" fromJunction="J6" toJunction="J7" end="5120" vehsPerHour="39.04762456534681"/>
  <flow id="JF140652" begin="5060" fromJunction="J7" toJunction="J0" end="5120" vehsPerHour="29.5182226664013"/>
  <flow id="JF140653" begin="5120" fromJunction="J0" toJunction="J3" end="5180" vehsPerHour="51.6574560073474"/>
  <flow id="JF140654" begin="5120" fromJunction="J0" toJunction="J4" end="5180" vehsPerHour="60.52155184837512"/>
  <flow id="JF140655" begin="5120" fromJunction="J0" toJunction="J6" end="5180" vehsPerHour="130.4128720174694"/>
  <flow id="JF140656" begin="5120" fromJunction="J3" toJunction="J4" end="5180" vehsPerHour="22.611448621811288"/>
  <flow id="JF140657" begin="5120" fromJunction="J3" toJunction="J5" end="5180" vehsPerHour="4.161750003676163"/>
  <flow id="JF140658" begin="5120" fromJunction="J3" toJunction="J7" end="5180" vehsPerHour="88.42870436032668"/>
  <flow id="JF140659" begin="5120" fromJunction="J4" toJunction="J0" end="5180" vehsPerHour="66.39115720751485"/>
  <flow id="JF140660" begin="5120" fromJunction="J4" toJunction="J3" end="5180" vehsPerHour="42.23676128926548"/>
  <flow id="JF140661" begin="5120" fromJunction="J4" toJunction="J6" end="5180" vehsPerHour="25.17464348515308"/>
  <flow id="JF140662" begin="5120" fromJunction="J4" toJunction="J7" end="5180" vehsPerHour="4.567288050630083"/>
  <flow id="JF140663" begin="5120" fromJunction="J5" toJunction="J0" end="5180" vehsPerHour="59.48968194218287"/>
  <flow id="JF140664" begin="5120" fromJunction="J5" toJunction="J3" end="5180" vehsPerHour="62.12215450854825"/>
  <flow id="JF140665" begin="5120" fromJunction="J5" toJunction="J4" end="5180" vehsPerHour="15.140262274832345"/>
  <flow id="JF140666" begin="5120" fromJunction="J5" toJunction="J7" end="5180" vehsPerHour="49.03999045503143"/>
  <flow id="JF140667" begin="5120" fromJunction="J6" toJunction="J0" end="5180" vehsPerHour="25.68680104896695"/>
  <flow id="JF140668" begin="5120" fromJunction="J6" toJunction="J3" end="5180" vehsPerHour="54.75250651053233"/>
  <flow id="JF140669" begin="5120" fromJunction="J6" toJunction="J7" end="5180" vehsPerHour="32.34816755642654"/>
  <flow id="JF140670" begin="5120" fromJunction="J7" toJunction="J3" end="5180" vehsPerHour="17.659562593775146"/>
  <flow id="JF140671" begin="5120" fromJunction="J7" toJunction="J4" end="5180" vehsPerHour="0.9663850610405619"/>
  <flow id="JF140672" begin="5120" fromJunction="J7" toJunction="J5" end="5180" vehsPerHour="7.716996179506549"/>
  <flow id="JF140673" begin="5180" fromJunction="J0" toJunction="J3" end="5240" vehsPerHour="35.78530309201053"/>
  <flow id="JF140674" begin="5180" fromJunction="J0" toJunction="J5" end="5240" vehsPerHour="102.3066373459335"/>
  <flow id="JF140675" begin="5180" fromJunction="J0" toJunction="J6" end="5240" vehsPerHour="83.68186412840942"/>
  <flow id="JF140676" begin="5180" fromJunction="J0" toJunction="J7" end="5240" vehsPerHour="135.7498594593889"/>
  <flow id="JF140677" begin="5180" fromJunction="J3" toJunction="J0" end="5240" vehsPerHour="34.46701800045611"/>
  <flow id="JF140678" begin="5180" fromJunction="J3" toJunction="J4" end="5240" vehsPerHour="8.066163638889766"/>
  <flow id="JF140679" begin="5180" fromJunction="J3" toJunction="J6" end="5240" vehsPerHour="97.91067737508276"/>
  <flow id="JF140680" begin="5180" fromJunction="J4" toJunction="J3" end="5240" vehsPerHour="64.61595294683526"/>
  <flow id="JF140681" begin="5180" fromJunction="J4" toJunction="J5" end="5240" vehsPerHour="67.9501355507351"/>
  <flow id="JF140682" begin="5180" fromJunction="J4" toJunction="J6" end="5240" vehsPerHour="16.646903185276233"/>
  <flow id="JF140683" begin="5180" fromJunction="J4" toJunction="J7" end="5240" vehsPerHour="12.79285144818268"/>
  <flow id="JF140684" begin="5180" fromJunction="J5" toJunction="J3" end="5240" vehsPerHour="23.835210772926402"/>
  <flow id="JF140685" begin="5180" fromJunction="J5" toJunction="J6" end="5240" vehsPerHour="25.8992040721949"/>
  <flow id="JF140686" begin="5180" fromJunction="J6" toJunction="J4" end="5240" vehsPerHour="48.511936813138725"/>
  <flow id="JF140687" begin="5180" fromJunction="J6" toJunction="J7" end="5240" vehsPerHour="55.17821589761192"/>
  <flow id="JF140688" begin="5180" fromJunction="J7" toJunction="J0" end="5240" vehsPerHour="62.68070371359636"/>
  <flow id="JF140689" begin="5180" fromJunction="J7" toJunction="J3" end="5240" vehsPerHour="16.07916577978407"/>
  <flow id="JF140690" begin="5180" fromJunction="J7" toJunction="J4" end="5240" vehsPerHour="44.429384789987836"/>
  <flow id="JF140691" begin="5180" fromJunction="J7" toJunction="J5" end="5240" vehsPerHour="12.144178475570632"/>
  <flow id="JF140692" begin="5240" fromJunction="J0" toJunction="J3" end="5300" vehsPerHour="21.56708124380391"/>
  <flow id="JF140693" begin="5240" fromJunction="J0" toJunction="J4" end="5300" vehsPerHour="133.23059598464602"/>
  <flow id="JF140694" begin="5240" fromJunction="J0" toJunction="J5" end="5300" vehsPerHour="64.60728646839713"/>
  <flow id="JF140695" begin="5240" fromJunction="J0" toJunction="J7" end="5300" vehsPerHour="104.26116487250027"/>
  <flow id="JF140696" begin="5240" fromJunction="J3" toJunction="J0" end="5300" vehsPerHour="121.46115005118314"/>
  <flow id="JF140697" begin="5240" fromJunction="J3" toJunction="J4" end="5300" vehsPerHour="32.105461435043786"/>
  <flow id="JF140698" begin="5240" fromJunction="J3" toJunction="J6" end="5300" vehsPerHour="83.89659956574619"/>
  <flow id="JF140699" begin="5240" fromJunction="J4" toJunction="J5" end="5300" vehsPerHour="63.699159837105945"/>
  <flow id="JF140700" begin="5240" fromJunction="J4" toJunction="J6" end="5300" vehsPerHour="32.299531273659134"/>
  <flow id="JF140701" begin="5240" fromJunction="J4" toJunction="J7" end="5300" vehsPerHour="44.240219645338385"/>
  <flow id="JF140702" begin="5240" fromJunction="J5" toJunction="J0" end="5300" vehsPerHour="52.0294584590222"/>
  <flow id="JF140703" begin="5240" fromJunction="J5" toJunction="J4" end="5300" vehsPerHour="41.71864282258134"/>
  <flow id="JF140704" begin="5240" fromJunction="J5" toJunction="J6" end="5300" vehsPerHour="54.31141471873392"/>
  <flow id="JF140705" begin="5240" fromJunction="J5" toJunction="J7" end="5300" vehsPerHour="20.91696411906167"/>
  <flow id="JF140706" begin="5240" fromJunction="J6" toJunction="J0" end="5300" vehsPerHour="2.418395985413526"/>
  <flow id="JF140707" begin="5240" fromJunction="J6" toJunction="J3" end="5300" vehsPerHour="23.686017658164992"/>
  <flow id="JF140708" begin="5240" fromJunction="J6" toJunction="J4" end="5300" vehsPerHour="26.12581937527784"/>
  <flow id="JF140709" begin="5240" fromJunction="J6" toJunction="J5" end="5300" vehsPerHour="60.57956660796699"/>
  <flow id="JF140710" begin="5240" fromJunction="J6" toJunction="J7" end="5300" vehsPerHour="11.752695817554555"/>
  <flow id="JF140711" begin="5240" fromJunction="J7" toJunction="J0" end="5300" vehsPerHour="30.69735734104128"/>
  <flow id="JF140712" begin="5240" fromJunction="J7" toJunction="J3" end="5300" vehsPerHour="52.695554552535796"/>
  <flow id="JF140713" begin="5240" fromJunction="J7" toJunction="J4" end="5300" vehsPerHour="23.054509613009593"/>
  <flow id="JF140714" begin="5300" fromJunction="J0" toJunction="J4" end="5360" vehsPerHour="7.380998132790992"/>
  <flow id="JF140715" begin="5300" fromJunction="J0" toJunction="J7" end="5360" vehsPerHour="124.20007624548228"/>
  <flow id="JF140716" begin="5300" fromJunction="J3" toJunction="J0" end="5360" vehsPerHour="18.958602638645793"/>
  <flow id="JF140717" begin="5300" fromJunction="J3" toJunction="J4" end="5360" vehsPerHour="91.24812953940051"/>
  <flow id="JF140718" begin="5300" fromJunction="J3" toJunction="J5" end="5360" vehsPerHour="21.883392934964277"/>
  <flow id="JF140719" begin="5300" fromJunction="J3" toJunction="J6" end="5360" vehsPerHour="109.31329751101173"/>
  <flow id="JF140720" begin="5300" fromJunction="J3" toJunction="J7" end="5360" vehsPerHour="69.98458541851002"/>
  <flow id="JF140721" begin="5300" fromJunction="J4" toJunction="J0" end="5360" vehsPerHour="49.658635743166094"/>
  <flow id="JF140722" begin="5300" fromJunction="J4" toJunction="J3" end="5360" vehsPerHour="44.4681595591349"/>
  <flow id="JF140723" begin="5300" fromJunction="J4" toJunction="J5" end="5360" vehsPerHour="63.71647709670704"/>
  <flow id="JF140724" begin="5300" fromJunction="J4" toJunction="J7" end="5360" vehsPerHour="40.45294992338448"/>
  <flow id="JF140725" begin="5300" fromJunction="J5" toJunction="J0" end="5360" vehsPerHour="55.14475757809138"/>
  <flow id="JF140726" begin="5300" fromJunction="J5" toJunction="J4" end="5360" vehsPerHour="34.263533512933286"/>
  <flow id="JF140727" begin="5300" fromJunction="J5" toJunction="J6" end="5360" vehsPerHour="62.419084361694715"/>
  <flow id="JF140728" begin="5300" fromJunction="J6" toJunction="J4" end="5360" vehsPerHour="58.32200273483419"/>
  <flow id="JF140729" begin="5300" fromJunction="J6" toJunction="J5" end="5360" vehsPerHour="9.330874636962312"/>
  <flow id="JF140730" begin="5300" fromJunction="J6" toJunction="J7" end="5360" vehsPerHour="55.058027870203006"/>
  <flow id="JF140731" begin="5300" fromJunction="J7" toJunction="J3" end="5360" vehsPerHour="2.0699804034999136"/>
  <flow id="JF140732" begin="5300" fromJunction="J7" toJunction="J4" end="5360" vehsPerHour="30.08276701961883"/>
  <flow id="JF140733" begin="5300" fromJunction="J7" toJunction="J5" end="5360" vehsPerHour="25.48178773319841"/>
  <flow id="JF140734" begin="5360" fromJunction="J0" toJunction="J4" end="5420" vehsPerHour="58.967823371828025"/>
  <flow id="JF140735" begin="5360" fromJunction="J0" toJunction="J5" end="5420" vehsPerHour="126.37075757585116"/>
  <flow id="JF140736" begin="5360" fromJunction="J0" toJunction="J6" end="5420" vehsPerHour="2.315631661072164"/>
  <flow id="JF140737" begin="5360" fromJunction="J3" toJunction="J0" end="5420" vehsPerHour="70.80005131153288"/>
  <flow id="JF140738" begin="5360" fromJunction="J3" toJunction="J4" end="5420" vehsPerHour="111.72338426840498"/>
  <flow id="JF140739" begin="5360" fromJunction="J3" toJunction="J5" end="5420" vehsPerHour="74.18602452807046"/>
  <flow id="JF140740" begin="5360" fromJunction="J3" toJunction="J6" end="5420" vehsPerHour="98.73565913168842"/>
  <flow id="JF140741" begin="5360" fromJunction="J4" toJunction="J3" end="5420" vehsPerHour="5.6029543837048355"/>
  <flow id="JF140742" begin="5360" fromJunction="J4" toJunction="J5" end="5420" vehsPerHour="24.995052623391476"/>
  <flow id="JF140743" begin="5360" fromJunction="J4" toJunction="J6" end="5420" vehsPerHour="55.66586576478227"/>
  <flow id="JF140744" begin="5360" fromJunction="J4" toJunction="J7" end="5420" vehsPerHour="64.62201884985659"/>
  <flow id="JF140745" begin="5360" fromJunction="J5" toJunction="J3" end="5420" vehsPerHour="55.5638883833436"/>
  <flow id="JF140746" begin="5360" fromJunction="J5" toJunction="J4" end="5420" vehsPerHour="58.08438051937743"/>
  <flow id="JF140747" begin="5360" fromJunction="J5" toJunction="J6" end="5420" vehsPerHour="41.98270523076313"/>
  <flow id="JF140748" begin="5360" fromJunction="J5" toJunction="J7" end="5420" vehsPerHour="28.39376496430695"/>
  <flow id="JF140749" begin="5360" fromJunction="J6" toJunction="J0" end="5420" vehsPerHour="41.28037592023016"/>
  <flow id="JF140750" begin="5360" fromJunction="J6" toJunction="J3" end="5420" vehsPerHour="4.21304728758229"/>
  <flow id="JF140751" begin="5360" fromJunction="J6" toJunction="J5" end="5420" vehsPerHour="33.198220602770284"/>
  <flow id="JF140752" begin="5360" fromJunction="J7" toJunction="J0" end="5420" vehsPerHour="56.827121227765446"/>
  <flow id="JF140753" begin="5360" fromJunction="J7" toJunction="J3" end="5420" vehsPerHour="5.810022925272308"/>
  <flow id="JF140754" begin="5360" fromJunction="J7" toJunction="J4" end="5420" vehsPerHour="62.57625227212526"/>
  <flow id="JF140755" begin="5360" fromJunction="J7" toJunction="J5" end="5420" vehsPerHour="28.8574064908497"/>
  <flow id="JF140756" begin="5360" fromJunction="J7" toJunction="J6" end="5420" vehsPerHour="56.084857804796954"/>
  <flow id="JF140757" begin="5420" fromJunction="J0" toJunction="J3" end="5480" vehsPerHour="131.05563208712977"/>
  <flow id="JF140758" begin="5420" fromJunction="J0" toJunction="J6" end="5480" vehsPerHour="55.42492488037835"/>
  <flow id="JF140759" begin="5420" fromJunction="J3" toJunction="J4" end="5480" vehsPerHour="93.7974632899893"/>
  <flow id="JF140760" begin="5420" fromJunction="J4" toJunction="J0" end="5480" vehsPerHour="7.875211297266635"/>
  <flow id="JF140761" begin="5420" fromJunction="J4" toJunction="J3" end="5480" vehsPerHour="42.91680153907478"/>
  <flow id="JF140762" begin="5420" fromJunction="J4" toJunction="J5" end="5480" vehsPerHour="53.713407647079414"/>
  <flow id="JF140763" begin="5420" fromJunction="J4" toJunction="J6" end="5480" vehsPerHour="11.999410594664546"/>
  <flow id="JF140764" begin="5420" fromJunction="J4" toJunction="J7" end="5480" vehsPerHour="0.15255082975249765"/>
  <flow id="JF140765" begin="5420" fromJunction="J5" toJunction="J0" end="5480" vehsPerHour="30.733672192136687"/>
  <flow id="JF140766" begin="5420" fromJunction="J5" toJunction="J3" end="5480" vehsPerHour="31.872909265944248"/>
  <flow id="JF140767" begin="5420" fromJunction="J5" toJunction="J4" end="5480" vehsPerHour="4.134961190184644"/>
  <flow id="JF140768" begin="5420" fromJunction="J5" toJunction="J6" end="5480" vehsPerHour="39.397064333453436"/>
  <flow id="JF140769" begin="5420" fromJunction="J6" toJunction="J0" end="5480" vehsPerHour="16.796945919183997"/>
  <flow id="JF140770" begin="5420" fromJunction="J6" toJunction="J5" end="5480" vehsPerHour="30.955689040857177"/>
  <flow id="JF140771" begin="5420" fromJunction="J7" toJunction="J4" end="5480" vehsPerHour="7.628875669657797"/>
  <flow id="JF140772" begin="5420" fromJunction="J7" toJunction="J6" end="5480" vehsPerHour="54.28265159157654"/>
  <flow id="JF140773" begin="5480" fromJunction="J0" toJunction="J3" end="5540" vehsPerHour="135.87320527572382"/>
  <flow id="JF140774" begin="5480" fromJunction="J0" toJunction="J6" end="5540" vehsPerHour="50.598744508332594"/>
  <flow id="JF140775" begin="5480" fromJunction="J3" toJunction="J0" end="5540" vehsPerHour="76.52802338628727"/>
  <flow id="JF140776" begin="5480" fromJunction="J3" toJunction="J7" end="5540" vehsPerHour="128.6555989414592"/>
  <flow id="JF140777" begin="5480" fromJunction="J4" toJunction="J0" end="5540" vehsPerHour="10.82136580009512"/>
  <flow id="JF140778" begin="5480" fromJunction="J4" toJunction="J3" end="5540" vehsPerHour="35.71018671302128"/>
  <flow id="JF140779" begin="5480" fromJunction="J4" toJunction="J6" end="5540" vehsPerHour="37.10581569159037"/>
  <flow id="JF140780" begin="5480" fromJunction="J5" toJunction="J3" end="5540" vehsPerHour="63.467787021611336"/>
  <flow id="JF140781" begin="5480" fromJunction="J5" toJunction="J4" end="5540" vehsPerHour="21.226317348986022"/>
  <flow id="JF140782" begin="5480" fromJunction="J5" toJunction="J7" end="5540" vehsPerHour="45.396149497168146"/>
  <flow id="JF140783" begin="5480" fromJunction="J6" toJunction="J3" end="5540" vehsPerHour="1.2449803875080674"/>
  <flow id="JF140784" begin="5480" fromJunction="J6" toJunction="J4" end="5540" vehsPerHour="50.38613194736121"/>
  <flow id="JF140785" begin="5480" fromJunction="J6" toJunction="J7" end="5540" vehsPerHour="16.80087750972171"/>
  <flow id="JF140786" begin="5480" fromJunction="J7" toJunction="J4" end="5540" vehsPerHour="24.17552841897976"/>
  <flow id="JF140787" begin="5480" fromJunction="J7" toJunction="J5" end="5540" vehsPerHour="29.360149371533936"/>
  <flow id="JF140788" begin="5540" fromJunction="J0" toJunction="J3" end="5600" vehsPerHour="57.480174323505736"/>
  <flow id="JF140789" begin="5540" fromJunction="J0" toJunction="J4" end="5600" vehsPerHour="95.17024899230789"/>
  <flow id="JF140790" begin="5540" fromJunction="J0" toJunction="J6" end="5600" vehsPerHour="66.10359871582865"/>
  <flow id="JF140791" begin="5540" fromJunction="J0" toJunction="J7" end="5600" vehsPerHour="71.13462746792572"/>
  <flow id="JF140792" begin="5540" fromJunction="J3" toJunction="J0" end="5600" vehsPerHour="20.94977896025632"/>
  <flow id="JF140793" begin="5540" fromJunction="J3" toJunction="J4" end="5600" vehsPerHour="97.72230648040718"/>
  <flow id="JF140794" begin="5540" fromJunction="J3" toJunction="J5" end="5600" vehsPerHour="82.71990862969243"/>
  <flow id="JF140795" begin="5540" fromJunction="J3" toJunction="J6" end="5600" vehsPerHour="91.00765366955673"/>
  <flow id="JF140796" begin="5540" fromJunction="J3" toJunction="J7" end="5600" vehsPerHour="113.18205993904164"/>
  <flow id="JF140797" begin="5540" fromJunction="J4" toJunction="J5" end="5600" vehsPerHour="47.06343106737948"/>
  <flow id="JF140798" begin="5540" fromJunction="J4" toJunction="J6" end="5600" vehsPerHour="35.65785074579103"/>
  <flow id="JF140799" begin="5540" fromJunction="J4" toJunction="J7" end="5600" vehsPerHour="6.476440872538597"/>
  <flow id="JF140800" begin="5540" fromJunction="J5" toJunction="J0" end="5600" vehsPerHour="58.35803150447822"/>
  <flow id="JF140801" begin="5540" fromJunction="J5" toJunction="J3" end="5600" vehsPerHour="24.19984753604613"/>
  <flow id="JF140802" begin="5540" fromJunction="J5" toJunction="J6" end="5600" vehsPerHour="21.591370673833648"/>
  <flow id="JF140803" begin="5540" fromJunction="J5" toJunction="J7" end="5600" vehsPerHour="45.078724096263116"/>
  <flow id="JF140804" begin="5540" fromJunction="J6" toJunction="J0" end="5600" vehsPerHour="38.027014880512205"/>
  <flow id="JF140805" begin="5540" fromJunction="J6" toJunction="J3" end="5600" vehsPerHour="23.660562027385733"/>
  <flow id="JF140806" begin="5540" fromJunction="J6" toJunction="J4" end="5600" vehsPerHour="19.512943874763266"/>
  <flow id="JF140807" begin="5540" fromJunction="J6" toJunction="J5" end="5600" vehsPerHour="19.660889279080337"/>
  <flow id="JF140808" begin="5540" fromJunction="J7" toJunction="J0" end="5600" vehsPerHour="68.55993987248772"/>
  <flow id="JF140809" begin="5540" fromJunction="J7" toJunction="J3" end="5600" vehsPerHour="19.774345715805826"/>
  <flow id="JF140810" begin="5600" fromJunction="J0" toJunction="J3" end="5660" vehsPerHour="74.48133257602369"/>
  <flow id="JF140811" begin="5600" fromJunction="J0" toJunction="J6" end="5660" vehsPerHour="7.558004455502039"/>
  <flow id="JF140812" begin="5600" fromJunction="J0" toJunction="J7" end="5660" vehsPerHour="96.48341342874805"/>
  <flow id="JF140813" begin="5600" fromJunction="J3" toJunction="J0" end="5660" vehsPerHour="76.59479592925169"/>
  <flow id="JF140814" begin="5600" fromJunction="J3" toJunction="J6" end="5660" vehsPerHour="61.39881128849457"/>
  <flow id="JF140815" begin="5600" fromJunction="J3" toJunction="J7" end="5660" vehsPerHour="93.57091120288113"/>
  <flow id="JF140816" begin="5600" fromJunction="J4" toJunction="J3" end="5660" vehsPerHour="60.10557780105243"/>
  <flow id="JF140817" begin="5600" fromJunction="J4" toJunction="J5" end="5660" vehsPerHour="20.546700772042325"/>
  <flow id="JF140818" begin="5600" fromJunction="J4" toJunction="J6" end="5660" vehsPerHour="23.121586945515176"/>
  <flow id="JF140819" begin="5600" fromJunction="J4" toJunction="J7" end="5660" vehsPerHour="44.82709184020868"/>
  <flow id="JF140820" begin="5600" fromJunction="J5" toJunction="J0" end="5660" vehsPerHour="8.728630604900705"/>
  <flow id="JF140821" begin="5600" fromJunction="J5" toJunction="J3" end="5660" vehsPerHour="65.20660319510979"/>
  <flow id="JF140822" begin="5600" fromJunction="J5" toJunction="J4" end="5660" vehsPerHour="59.36946976899108"/>
  <flow id="JF140823" begin="5600" fromJunction="J5" toJunction="J6" end="5660" vehsPerHour="21.997325209458115"/>
  <flow id="JF140824" begin="5600" fromJunction="J6" toJunction="J0" end="5660" vehsPerHour="35.43942056850071"/>
  <flow id="JF140825" begin="5600" fromJunction="J6" toJunction="J3" end="5660" vehsPerHour="50.01294945614955"/>
  <flow id="JF140826" begin="5600" fromJunction="J6" toJunction="J4" end="5660" vehsPerHour="68.08324602055951"/>
  <flow id="JF140827" begin="5600" fromJunction="J6" toJunction="J5" end="5660" vehsPerHour="6.450139018793995"/>
  <flow id="JF140828" begin="5600" fromJunction="J6" toJunction="J7" end="5660" vehsPerHour="45.182917263497515"/>
  <flow id="JF140829" begin="5600" fromJunction="J7" toJunction="J0" end="5660" vehsPerHour="56.03640697278817"/>
  <flow id="JF140830" begin="5600" fromJunction="J7" toJunction="J3" end="5660" vehsPerHour="60.03301513835743"/>
  <flow id="JF140831" begin="5600" fromJunction="J7" toJunction="J5" end="5660" vehsPerHour="14.643353628973626"/>
  <flow id="JF140832" begin="5600" fromJunction="J7" toJunction="J6" end="5660" vehsPerHour="16.249558326066637"/>
  <flow id="JF140833" begin="5660" fromJunction="J0" toJunction="J3" end="5720" vehsPerHour="103.53596210556633"/>
  <flow id="JF140834" begin="5660" fromJunction="J0" toJunction="J4" end="5720" vehsPerHour="105.42459693443335"/>
  <flow id="JF140835" begin="5660" fromJunction="J0" toJunction="J6" end="5720" vehsPerHour="128.2661049611782"/>
  <flow id="JF140836" begin="5660" fromJunction="J0" toJunction="J7" end="5720" vehsPerHour="127.5219808362426"/>
  <flow id="JF140837" begin="5660" fromJunction="J3" toJunction="J0" end="5720" vehsPerHour="80.29563495879555"/>
  <flow id="JF140838" begin="5660" fromJunction="J3" toJunction="J4" end="5720" vehsPerHour="102.76734850960023"/>
  <flow id="JF140839" begin="5660" fromJunction="J3" toJunction="J5" end="5720" vehsPerHour="24.630719222067277"/>
  <flow id="JF140840" begin="5660" fromJunction="J3" toJunction="J6" end="5720" vehsPerHour="54.089342575075115"/>
  <flow id="JF140841" begin="5660" fromJunction="J3" toJunction="J7" end="5720" vehsPerHour="14.943426353822481"/>
  <flow id="JF140842" begin="5660" fromJunction="J4" toJunction="J3" end="5720" vehsPerHour="16.982880068814367"/>
  <flow id="JF140843" begin="5660" fromJunction="J4" toJunction="J5" end="5720" vehsPerHour="9.644399218999753"/>
  <flow id="JF140844" begin="5660" fromJunction="J4" toJunction="J6" end="5720" vehsPerHour="31.80042653975161"/>