<?xml version="1.0" encoding="UTF-8"?>
<routes xmlns:xsi="http://www.w3.org/2001/XMLSchema-instance" xsi:noNamespaceSchemaLocation="http://sumo.dlr.de/xsd/routes_file.xsd">
  <flow id="JF142372" begin="0" fromJunction="J3" toJunction="J0" end="5000" vehsPerHour="583.3064882977301"/>
  <flow id="JF142373" begin="0" fromJunction="J0" toJunction="J3" end="5000" vehsPerHour="1310.1054819415447"/>
  <flow id="JF142374" begin="0" fromJunction="J3" toJunction="J7" end="5000" vehsPerHour="107.56041799828297"/>
  <flow id="JF142375" begin="0" fromJunction="J3" toJunction="J6" end="5000" vehsPerHour="34.337893790508524"/>
  <flow id="JF142376" begin="0" fromJunction="J3" toJunction="J5" end="5000" vehsPerHour="8.00612473824092"/>
  <flow id="JF142377" begin="0" fromJunction="J3" toJunction="J4" end="5000" vehsPerHour="104.13401937533372"/>
  <flow id="JF142378" begin="0" fromJunction="J0" toJunction="J7" end="5000" vehsPerHour="136.74511543043113"/>
  <flow id="JF142379" begin="0" fromJunction="J0" toJunction="J6" end="5000" vehsPerHour="118.44933412622596"/>
  <flow id="JF142380" begin="0" fromJunction="J0" toJunction="J5" end="5000" vehsPerHour="130.57877749535916"/>
  <flow id="JF142381" begin="0" fromJunction="J0" toJunction="J4" end="5000" vehsPerHour="63.7010258129546"/>
  <flow id="JF142382" begin="0" fromJunction="J7" toJunction="J6" end="5000" vehsPerHour="122.63970502496775"/>
  <flow id="JF142383" begin="0" fromJunction="J7" toJunction="J5" end="5000" vehsPerHour="8.214727783283223"/>
  <flow id="JF142384" begin="0" fromJunction="J7" toJunction="J4" end="5000" vehsPerHour="125.8861412594124"/>
  <flow id="JF142385" begin="0" fromJunction="J6" toJunction="J7" end="5000" vehsPerHour="180.07782901842612"/>
  <flow id="JF142386" begin="0" fromJunction="J6" toJunction="J5" end="5000" vehsPerHour="211.23457367602194"/>
  <flow id="JF142387" begin="0" fromJunction="J6" toJunction="J4" end="5000" vehsPerHour="52.19682792201751"/>
  <flow id="JF142388" begin="0" fromJunction="J5" toJunction="J7" end="5000" vehsPerHour="253.31204006386682"/>
  <flow id="JF142389" begin="0" fromJunction="J5" toJunction="J6" end="5000" vehsPerHour="46.002689876589116"/>
  <flow id="JF142390" begin="0" fromJunction="J5" toJunction="J4" end="5000" vehsPerHour="135.46423030118314"/>
  <flow id="JF142391" begin="0" fromJunction="J4" toJunction="J7" end="5000" vehsPerHour="182.01667158059414"/>
  <flow id="JF142392" begin="0" fromJunction="J4" toJunction="J6" end="5000" vehsPerHour="261.5739864660958"/>
  <flow id="JF142393" begin="0" fromJunction="J4" toJunction="J5" end="5000" vehsPerHour="206.26515820819398"/>
  <flow id="JF142394" begin="0" fromJunction="J7" toJunction="J3" end="5000" vehsPerHour="48.179241208506966"/>
  <flow id="JF142395" begin="0" fromJunction="J7" toJunction="J0" end="5000" vehsPerHour="37.46669029728393"/>
  <flow id="JF142396" begin="0" fromJunction="J6" toJunction="J3" end="5000" vehsPerHour="47.712673745735756"/>
  <flow id="JF142397" begin="0" fromJunction="J6" toJunction="J0" end="5000" vehsPerHour="35.850780077777706"/>
  <flow id="JF142398" begin="0" fromJunction="J5" toJunction="J3" end="5000" vehsPerHour="33.42714141351617"/>
  <flow id="JF142399" begin="0" fromJunction="J5" toJunction="J0" end="5000" vehsPerHour="16.02145979227156"/>
  <flow id="JF142400" begin="0" fromJunction="J4" toJunction="J3" end="5000" vehsPerHour="56.00030993202463"/>
  <flow id="JF142401" begin="0" fromJunction="J4" toJunction="J0" end="5000" vehsPerHour="4.512439549609729"/>
  <flow id="JF142402" begin="5000" fromJunction="J0" toJunction="J3" end="5060" vehsPerHour="127.915829880439"/>
  <flow id="JF142403" begin="5000" fromJunction="J0" toJunction="J6" end="5060" vehsPerHour="59.923288631007004"/>
  <flow id="JF142404" begin="5000" fromJunction="J0" toJunction="J7" end="5060" vehsPerHour="73.04553133108205"/>
  <flow id="JF142405" begin="5000" fromJunction="J3" toJunction="J0" end="5060" vehsPerHour="95.82471078523326"/>
  <flow id="JF142406" begin="5000" fromJunction="J3" toJunction="J4" end="5060" vehsPerHour="109.34416647933534"/>
  <flow id="JF142407" begin="5000" fromJunction="J3" toJunction="J6" end="5060" vehsPerHour="65.62062786322903"/>
  <flow id="JF142408" begin="5000" fromJunction="J3" toJunction="J7" end="5060" vehsPerHour="102.97491427265263"/>
  <flow id="JF142409" begin="5000" fromJunction="J4" toJunction="J0" end="5060" vehsPerHour="23.711018244808226"/>
  <flow id="JF142410" begin="5000" fromJunction="J4" toJunction="J3" end="5060" vehsPerHour="24.62621783265276"/>
  <flow id="JF142411" begin="5000" fromJunction="J4" toJunction="J6" end="5060" vehsPerHour="56.319839110198465"/>
  <flow id="JF142412" begin="5000" fromJunction="J4" toJunction="J7" end="5060" vehsPerHour="4.111572863047848"/>
  <flow id="JF142413" begin="5000" fromJunction="J5" toJunction="J0" end="5060" vehsPerHour="43.811706330906155"/>
  <flow id="JF142414" begin="5000" fromJunction="J5" toJunction="J3" end="5060" vehsPerHour="20.65392153026852"/>
  <flow id="JF142415" begin="5000" fromJunction="J5" toJunction="J4" end="5060" vehsPerHour="4.0320951340989915"/>
  <flow id="JF142416" begin="5000" fromJunction="J5" toJunction="J6" end="5060" vehsPerHour="56.10966776446357"/>
  <flow id="JF142417" begin="5000" fromJunction="J5" toJunction="J7" end="5060" vehsPerHour="18.735090226632526"/>
  <flow id="JF142418" begin="5000" fromJunction="J6" toJunction="J0" end="5060" vehsPerHour="54.11583637313831"/>
  <flow id="JF142419" begin="5000" fromJunction="J6" toJunction="J3" end="5060" vehsPerHour="16.83983858331163"/>
  <flow id="JF142420" begin="5000" fromJunction="J6" toJunction="J5" end="5060" vehsPerHour="34.2484906780159"/>
  <flow id="JF142421" begin="5000" fromJunction="J7" toJunction="J0" end="5060" vehsPerHour="0.8288463062331002"/>
  <flow id="JF142422" begin="5000" fromJunction="J7" toJunction="J3" end="5060" vehsPerHour="39.21344091190218"/>
  <flow id="JF142423" begin="5000" fromJunction="J7" toJunction="J4" end="5060" vehsPerHour="4.288583816349836"/>
  <flow id="JF142424" begin="5000" fromJunction="J7" toJunction="J5" end="5060" vehsPerHour="42.742050683094284"/>
  <flow id="JF142425" begin="5000" fromJunction="J7" toJunction="J6" end="5060" vehsPerHour="56.427738548193624"/>
  <flow id="JF142426" begin="5060" fromJunction="J0" toJunction="J3" end="5120" vehsPerHour="28.175279192226903"/>
  <flow id="JF142427" begin="5060" fromJunction="J0" toJunction="J4" end="5120" vehsPerHour="16.11218959345623"/>
  <flow id="JF142428" begin="5060" fromJunction="J0" toJunction="J7" end="5120" vehsPerHour="18.85539932150686"/>
  <flow id="JF142429" begin="5060" fromJunction="J3" toJunction="J4" end="5120" vehsPerHour="65.44276468654925"/>
  <flow id="JF142430" begin="5060" fromJunction="J4" toJunction="J3" end="5120" vehsPerHour="24.832942402057473"/>
  <flow id="JF142431" begin="5060" fromJunction="J4" toJunction="J5" end="5120" vehsPerHour="4.707551903702585"/>
  <flow id="JF142432" begin="5060" fromJunction="J4" toJunction="J6" end="5120" vehsPerHour="43.236609032474995"/>
  <flow id="JF142433" begin="5060" fromJunction="J4" toJunction="J7" end="5120" vehsPerHour="11.026956922980828"/>
  <flow id="JF142434" begin="5060" fromJunction="J5" toJunction="J0" end="5120" vehsPerHour="20.408665032098426"/>
  <flow id="JF142435" begin="5060" fromJunction="J5" toJunction="J4" end="5120" vehsPerHour="0.8873491627251305"/>
  <flow id="JF142436" begin="5060" fromJunction="J6" toJunction="J0" end="5120" vehsPerHour="26.02606380257015"/>
  <flow id="JF142437" begin="5060" fromJunction="J6" toJunction="J3" end="5120" vehsPerHour="23.67686693815222"/>
  <flow id="JF142438" begin="5060" fromJunction="J6" toJunction="J4" end="5120" vehsPerHour="24.116732862753434"/>
  <flow id="JF142439" begin="5060" fromJunction="J7" toJunction="J3" end="5120" vehsPerHour="10.676530920946666"/>
  <flow id="JF142440" begin="5060" fromJunction="J7" toJunction="J6" end="5120" vehsPerHour="33.384963683467014"/>
  <flow id="JF142441" begin="5120" fromJunction="J0" toJunction="J4" end="5180" vehsPerHour="70.38420596052718"/>
  <flow id="JF142442" begin="5120" fromJunction="J0" toJunction="J5" end="5180" vehsPerHour="46.40858549738122"/>
  <flow id="JF142443" begin="5120" fromJunction="J0" toJunction="J6" end="5180" vehsPerHour="51.9303749413326"/>
  <flow id="JF142444" begin="5120" fromJunction="J0" toJunction="J7" end="5180" vehsPerHour="104.24820266550336"/>
  <flow id="JF142445" begin="5120" fromJunction="J3" toJunction="J0" end="5180" vehsPerHour="63.734235821109614"/>
  <flow id="JF142446" begin="5120" fromJunction="J3" toJunction="J5" end="5180" vehsPerHour="50.398632992612995"/>
  <flow id="JF142447" begin="5120" fromJunction="J3" toJunction="J6" end="5180" vehsPerHour="45.751689132637075"/>
  <flow id="JF142448" begin="5120" fromJunction="J3" toJunction="J7" end="5180" vehsPerHour="27.98743820521978"/>
  <flow id="JF142449" begin="5120" fromJunction="J4" toJunction="J0" end="5180" vehsPerHour="59.779246539639594"/>
  <flow id="JF142450" begin="5120" fromJunction="J4" toJunction="J3" end="5180" vehsPerHour="24.768756589801495"/>
  <flow id="JF142451" begin="5120" fromJunction="J4" toJunction="J5" end="5180" vehsPerHour="51.302074686583616"/>
  <flow id="JF142452" begin="5120" fromJunction="J4" toJunction="J7" end="5180" vehsPerHour="64.7784026785359"/>
  <flow id="JF142453" begin="5120" fromJunction="J5" toJunction="J3" end="5180" vehsPerHour="14.864535941169523"/>
  <flow id="JF142454" begin="5120" fromJunction="J5" toJunction="J4" end="5180" vehsPerHour="48.81944707045156"/>
  <flow id="JF142455" begin="5120" fromJunction="J5" toJunction="J6" end="5180" vehsPerHour="55.29456334217319"/>
  <flow id="JF142456" begin="5120" fromJunction="J5" toJunction="J7" end="5180" vehsPerHour="62.53713348496865"/>
  <flow id="JF142457" begin="5120" fromJunction="J6" toJunction="J0" end="5180" vehsPerHour="65.42641326209959"/>
  <flow id="JF142458" begin="5120" fromJunction="J6" toJunction="J5" end="5180" vehsPerHour="39.59393861279427"/>
  <flow id="JF142459" begin="5120" fromJunction="J7" toJunction="J0" end="5180" vehsPerHour="63.3428015644768"/>
  <flow id="JF142460" begin="5120" fromJunction="J7" toJunction="J3" end="5180" vehsPerHour="27.827839011905397"/>
  <flow id="JF142461" begin="5120" fromJunction="J7" toJunction="J4" end="5180" vehsPerHour="37.15740526847533"/>
  <flow id="JF142462" begin="5120" fromJunction="J7" toJunction="J5" end="5180" vehsPerHour="3.1052019478792063"/>
  <flow id="JF142463" begin="5120" fromJunction="J7" toJunction="J6" end="5180" vehsPerHour="47.413359151110804"/>
  <flow id="JF142464" begin="5180" fromJunction="J0" toJunction="J3" end="5240" vehsPerHour="1.9191608301133092"/>
  <flow id="JF142465" begin="5180" fromJunction="J0" toJunction="J4" end="5240" vehsPerHour="39.9106422014982"/>
  <flow id="JF142466" begin="5180" fromJunction="J0" toJunction="J5" end="5240" vehsPerHour="25.432654233189673"/>
  <flow id="JF142467" begin="5180" fromJunction="J0" toJunction="J6" end="5240" vehsPerHour="107.30329694843036"/>
  <flow id="JF142468" begin="5180" fromJunction="J0" toJunction="J7" end="5240" vehsPerHour="95.87416039777209"/>
  <flow id="JF142469" begin="5180" fromJunction="J3" toJunction="J0" end="5240" vehsPerHour="112.0704379635675"/>
  <flow id="JF142470" begin="5180" fromJunction="J3" toJunction="J4" end="5240" vehsPerHour="75.94253852614226"/>
  <flow id="JF142471" begin="5180" fromJunction="J3" toJunction="J7" end="5240" vehsPerHour="121.64530970576698"/>
  <flow id="JF142472" begin="5180" fromJunction="J4" toJunction="J3" end="5240" vehsPerHour="13.299697475080242"/>
  <flow id="JF142473" begin="5180" fromJunction="J4" toJunction="J5" end="5240" vehsPerHour="29.061017352481496"/>
  <flow id="JF142474" begin="5180" fromJunction="J4" toJunction="J6" end="5240" vehsPerHour="27.050924588204396"/>
  <flow id="JF142475" begin="5180" fromJunction="J5" toJunction="J0" end="5240" vehsPerHour="38.98266668301451"/>
  <flow id="JF142476" begin="5180" fromJunction="J5" toJunction="J6" end="5240" vehsPerHour="10.646849949035426"/>
  <flow id="JF142477" begin="5180" fromJunction="J6" toJunction="J0" end="5240" vehsPerHour="5.420055693337252"/>
  <flow id="JF142478" begin="5180" fromJunction="J6" toJunction="J4" end="5240" vehsPerHour="18.1642720656249"/>
  <flow id="JF142479" begin="5180" fromJunction="J6" toJunction="J5" end="5240" vehsPerHour="58.68539848072637"/>
  <flow id="JF142480" begin="5180" fromJunction="J6" toJunction="J7" end="5240" vehsPerHour="17.356767780416394"/>
  <flow id="JF142481" begin="5180" fromJunction="J7" toJunction="J0" end="5240" vehsPerHour="21.88989839778744"/>
  <flow id="JF142482" begin="5180" fromJunction="J7" toJunction="J5" end="5240" vehsPerHour="60.56661284931899"/>
  <flow id="JF142483" begin="5240" fromJunction="J0" toJunction="J3" end="5300" vehsPerHour="2.6908124361061807"/>
  <flow id="JF142484" begin="5240" fromJunction="J0" toJunction="J5" end="5300" vehsPerHour="9.72351211987029"/>
  <flow id="JF142485" begin="5240" fromJunction="J0" toJunction="J6" end="5300" vehsPerHour="3.813605161205064"/>
  <flow id="JF142486" begin="5240" fromJunction="J0" toJunction="J7" end="5300" vehsPerHour="126.46645140732079"/>
  <flow id="JF142487" begin="5240" fromJunction="J3" toJunction="J0" end="5300" vehsPerHour="109.83252857448186"/>
  <flow id="JF142488" begin="5240" fromJunction="J3" toJunction="J5" end="5300" vehsPerHour="90.78263674034059"/>
  <flow id="JF142489" begin="5240" fromJunction="J3" toJunction="J6" end="5300" vehsPerHour="99.89998918654952"/>
  <flow id="JF142490" begin="5240" fromJunction="J3" toJunction="J7" end="5300" vehsPerHour="134.51918926839886"/>
  <flow id="JF142491" begin="5240" fromJunction="J4" toJunction="J0" end="5300" vehsPerHour="27.26183277315764"/>
  <flow id="JF142492" begin="5240" fromJunction="J4" toJunction="J3" end="5300" vehsPerHour="62.02374860007241"/>
  <flow id="JF142493" begin="5240" fromJunction="J4" toJunction="J6" end="5300" vehsPerHour="61.80704006610873"/>
  <flow id="JF142494" begin="5240" fromJunction="J4" toJunction="J7" end="5300" vehsPerHour="34.827020858173974"/>
  <flow id="JF142495" begin="5240" fromJunction="J5" toJunction="J0" end="5300" vehsPerHour="25.18284134532514"/>
  <flow id="JF142496" begin="5240" fromJunction="J6" toJunction="J3" end="5300" vehsPerHour="62.57279926519197"/>
  <flow id="JF142497" begin="5240" fromJunction="J6" toJunction="J4" end="5300" vehsPerHour="9.371227717606297"/>
  <flow id="JF142498" begin="5240" fromJunction="J6" toJunction="J5" end="5300" vehsPerHour="3.266396641235597"/>
  <flow id="JF142499" begin="5240" fromJunction="J6" toJunction="J7" end="5300" vehsPerHour="32.457913539526295"/>
  <flow id="JF142500" begin="5240" fromJunction="J7" toJunction="J0" end="5300" vehsPerHour="42.70903325038108"/>
  <flow id="JF142501" begin="5240" fromJunction="J7" toJunction="J3" end="5300" vehsPerHour="59.416550882931055"/>
  <flow id="JF142502" begin="5240" fromJunction="J7" toJunction="J4" end="5300" vehsPerHour="16.773210056556398"/>
  <flow id="JF142503" begin="5240" fromJunction="J7" toJunction="J5" end="5300" vehsPerHour="65.85718943517746"/>
  <flow id="JF142504" begin="5240" fromJunction="J7" toJunction="J6" end="5300" vehsPerHour="50.356119061627254"/>
  <flow id="JF142505" begin="5300" fromJunction="J0" toJunction="J3" end="5360" vehsPerHour="40.63633591711487"/>
  <flow id="JF142506" begin="5300" fromJunction="J0" toJunction="J4" end="5360" vehsPerHour="106.00939478375356"/>
  <flow id="JF142507" begin="5300" fromJunction="J0" toJunction="J5" end="5360" vehsPerHour="21.584333712475637"/>
  <flow id="JF142508" begin="5300" fromJunction="J0" toJunction="J6" end="5360" vehsPerHour="122.5925752740798"/>
  <flow id="JF142509" begin="5300" fromJunction="J0" toJunction="J7" end="5360" vehsPerHour="87.06842663108344"/>
  <flow id="JF142510" begin="5300" fromJunction="J3" toJunction="J4" end="5360" vehsPerHour="98.6824178473909"/>
  <flow id="JF142511" begin="5300" fromJunction="J3" toJunction="J6" end="5360" vehsPerHour="106.52263493796845"/>
  <flow id="JF142512" begin="5300" fromJunction="J4" toJunction="J3" end="5360" vehsPerHour="7.49291614171808"/>
  <flow id="JF142513" begin="5300" fromJunction="J4" toJunction="J5" end="5360" vehsPerHour="51.033697092431105"/>
  <flow id="JF142514" begin="5300" fromJunction="J4" toJunction="J6" end="5360" vehsPerHour="51.63001662328953"/>
  <flow id="JF142515" begin="5300" fromJunction="J4" toJunction="J7" end="5360" vehsPerHour="22.999687017725147"/>
  <flow id="JF142516" begin="5300" fromJunction="J5" toJunction="J0" end="5360" vehsPerHour="53.39176008618949"/>
  <flow id="JF142517" begin="5300" fromJunction="J5" toJunction="J3" end="5360" vehsPerHour="40.70905265509141"/>
  <flow id="JF142518" begin="5300" fromJunction="J5" toJunction="J4" end="5360" vehsPerHour="68.03038908338362"/>
  <flow id="JF142519" begin="5300" fromJunction="J5" toJunction="J7" end="5360" vehsPerHour="17.51502796294392"/>
  <flow id="JF142520" begin="5300" fromJunction="J6" toJunction="J0" end="5360" vehsPerHour="56.17570677543764"/>
  <flow id="JF142521" begin="5300" fromJunction="J6" toJunction="J3" end="5360" vehsPerHour="53.10751913448802"/>
  <flow id="JF142522" begin="5300" fromJunction="J6" toJunction="J4" end="5360" vehsPerHour="12.84315151626819"/>
  <flow id="JF142523" begin="5300" fromJunction="J6" toJunction="J5" end="5360" vehsPerHour="3.573738100245987"/>
  <flow id="JF142524" begin="5300" fromJunction="J6" toJunction="J7" end="5360" vehsPerHour="11.21634506941201"/>
  <flow id="JF142525" begin="5300" fromJunction="J7" toJunction="J0" end="5360" vehsPerHour="10.460478522026257"/>
  <flow id="JF142526" begin="5300" fromJunction="J7" toJunction="J4" end="5360" vehsPerHour="25.97611475217595"/>
  <flow id="JF142527" begin="5300" fromJunction="J7" toJunction="J5" end="5360" vehsPerHour="66.22223996483878"/>
  <flow id="JF142528" begin="5300" fromJunction="J7" toJunction="J6" end="5360" vehsPerHour="5.891835928669635"/>
  <flow id="JF142529" begin="5360" fromJunction="J0" toJunction="J3" end="5420" vehsPerHour="9.100486506639392"/>
  <flow id="JF142530" begin="5360" fromJunction="J0" toJunction="J5" end="5420" vehsPerHour="112.55405239533609"/>
  <flow id="JF142531" begin="5360" fromJunction="J0" toJunction="J6" end="5420" vehsPerHour="131.61469856814458"/>
  <flow id="JF142532" begin="5360" fromJunction="J0" toJunction="J7" end="5420" vehsPerHour="78.32209720570108"/>
  <flow id="JF142533" begin="5360" fromJunction="J3" toJunction="J0" end="5420" vehsPerHour="66.79742028779383"/>
  <flow id="JF142534" begin="5360" fromJunction="J3" toJunction="J4" end="5420" vehsPerHour="0.8609811312813662"/>
  <flow id="JF142535" begin="5360" fromJunction="J3" toJunction="J5" end="5420" vehsPerHour="90.30766161606248"/>
  <flow id="JF142536" begin="5360" fromJunction="J4" toJunction="J3" end="5420" vehsPerHour="31.03565276270047"/>
  <flow id="JF142537" begin="5360" fromJunction="J4" toJunction="J5" end="5420" vehsPerHour="67.33050761257425"/>
  <flow id="JF142538" begin="5360" fromJunction="J4" toJunction="J7" end="5420" vehsPerHour="66.74931165528263"/>
  <flow id="JF142539" begin="5360" fromJunction="J5" toJunction="J0" end="5420" vehsPerHour="26.223322169939888"/>
  <flow id="JF142540" begin="5360" fromJunction="J5" toJunction="J4" end="5420" vehsPerHour="35.26728517151315"/>
  <flow id="JF142541" begin="5360" fromJunction="J5" toJunction="J6" end="5420" vehsPerHour="11.893984462913208"/>
  <flow id="JF142542" begin="5360" fromJunction="J5" toJunction="J7" end="5420" vehsPerHour="37.956979205138204"/>
  <flow id="JF142543" begin="5360" fromJunction="J6" toJunction="J0" end="5420" vehsPerHour="26.258922751396263"/>
  <flow id="JF142544" begin="5360" fromJunction="J6" toJunction="J3" end="5420" vehsPerHour="36.07661669086608"/>
  <flow id="JF142545" begin="5360" fromJunction="J6" toJunction="J4" end="5420" vehsPerHour="44.12111355733034"/>
  <flow id="JF142546" begin="5360" fromJunction="J7" toJunction="J0" end="5420" vehsPerHour="52.46229121354149"/>
  <flow id="JF142547" begin="5360" fromJunction="J7" toJunction="J3" end="5420" vehsPerHour="48.85939318160781"/>
  <flow id="JF142548" begin="5360" fromJunction="J7" toJunction="J4" end="5420" vehsPerHour="53.19596172022514"/>
  <flow id="JF142549" begin="5360" fromJunction="J7" toJunction="J6" end="5420" vehsPerHour="65.58628593264095"/>
  <flow id="JF142550" begin="5420" fromJunction="J0" toJunction="J3" end="5480" vehsPerHour="115.27960550281166"/>
  <flow id="JF142551" begin="5420" fromJunction="J0" toJunction="J5" end="5480" vehsPerHour="61.01809879032837"/>
  <flow id="JF142552" begin="5420" fromJunction="J0" toJunction="J6" end="5480" vehsPerHour="133.01753461352808"/>
  <flow id="JF142553" begin="5420" fromJunction="J3" toJunction="J0" end="5480" vehsPerHour="78.16302412301711"/>
  <flow id="JF142554" begin="5420" fromJunction="J3" toJunction="J4" end="5480" vehsPerHour="77.51453014593639"/>
  <flow id="JF142555" begin="5420" fromJunction="J3" toJunction="J6" end="5480" vehsPerHour="49.749998305165846"/>
  <flow id="JF142556" begin="5420" fromJunction="J3" toJunction="J7" end="5480" vehsPerHour="77.30963598272852"/>
  <flow id="JF142557" begin="5420" fromJunction="J4" toJunction="J3" end="5480" vehsPerHour="1.1380839170494692"/>
  <flow id="JF142558" begin="5420" fromJunction="J4" toJunction="J5" end="5480" vehsPerHour="46.83648343935816"/>
  <flow id="JF142559" begin="5420" fromJunction="J4" toJunction="J6" end="5480" vehsPerHour="1.4551396023690544"/>
  <flow id="JF142560" begin="5420" fromJunction="J4" toJunction="J7" end="5480" vehsPerHour="17.985567374916215"/>
  <flow id="JF142561" begin="5420" fromJunction="J5" toJunction="J3" end="5480" vehsPerHour="43.56793257987468"/>
  <flow id="JF142562" begin="5420" fromJunction="J5" toJunction="J4" end="5480" vehsPerHour="50.24848426182629"/>
  <flow id="JF142563" begin="5420" fromJunction="J5" toJunction="J6" end="5480" vehsPerHour="54.4039910141388"/>
  <flow id="JF142564" begin="5420" fromJunction="J6" toJunction="J0" end="5480" vehsPerHour="45.25089096597331"/>
  <flow id="JF142565" begin="5420" fromJunction="J6" toJunction="J3" end="5480" vehsPerHour="14.315197885016978"/>
  <flow id="JF142566" begin="5420" fromJunction="J6" toJunction="J5" end="5480" vehsPerHour="39.633594050501905"/>
  <flow id="JF142567" begin="5420" fromJunction="J6" toJunction="J7" end="5480" vehsPerHour="36.22856585270454"/>
  <flow id="JF142568" begin="5420" fromJunction="J7" toJunction="J0" end="5480" vehsPerHour="0.22780541305218352"/>
  <flow id="JF142569" begin="5420" fromJunction="J7" toJunction="J3" end="5480" vehsPerHour="24.82501597111199"/>
  <flow id="JF142570" begin="5420" fromJunction="J7" toJunction="J5" end="5480" vehsPerHour="53.26042417350868"/>
  <flow id="JF142571" begin="5420" fromJunction="J7" toJunction="J6" end="5480" vehsPerHour="3.741281141490877"/>
  <flow id="JF142572" begin="5480" fromJunction="J0" toJunction="J3" end="5540" vehsPerHour="103.52478265377893"/>
  <flow id="JF142573" begin="5480" fromJunction="J0" toJunction="J4" end="5540" vehsPerHour="112.64935472385656"/>
  <flow id="JF142574" begin="5480" fromJunction="J0" toJunction="J5" end="5540" vehsPerHour="13.716096844548924"/>
  <flow id="JF142575" begin="5480" fromJunction="J0" toJunction="J6" end="5540" vehsPerHour="82.58461846527743"/>
  <flow id="JF142576" begin="5480" fromJunction="J0" toJunction="J7" end="5540" vehsPerHour="10.055848103404989"/>
  <flow id="JF142577" begin="5480" fromJunction="J3" toJunction="J4" end="5540" vehsPerHour="104.17167369521103"/>
  <flow id="JF142578" begin="5480" fromJunction="J3" toJunction="J5" end="5540" vehsPerHour="118.74151098711737"/>
  <flow id="JF142579" begin="5480" fromJunction="J3" toJunction="J6" end="5540" vehsPerHour="99.9801680078151"/>
  <flow id="JF142580" begin="5480" fromJunction="J3" toJunction="J7" end="5540" vehsPerHour="48.056425512188035"/>
  <flow id="JF142581" begin="5480" fromJunction="J4" toJunction="J0" end="5540" vehsPerHour="58.887244780050935"/>
  <flow id="JF142582" begin="5480" fromJunction="J4" toJunction="J3" end="5540" vehsPerHour="50.61589035562761"/>
  <flow id="JF142583" begin="5480" fromJunction="J4" toJunction="J6" end="5540" vehsPerHour="15.352247880917062"/>
  <flow id="JF142584" begin="5480" fromJunction="J5" toJunction="J0" end="5540" vehsPerHour="21.645057913582093"/>
  <flow id="JF142585" begin="5480" fromJunction="J5" toJunction="J3" end="5540" vehsPerHour="31.749909707440782"/>
  <flow id="JF142586" begin="5480" fromJunction="J5" toJunction="J4" end="5540" vehsPerHour="36.24896929502637"/>
  <flow id="JF142587" begin="5480" fromJunction="J5" toJunction="J6" end="5540" vehsPerHour="48.508994923861046"/>
  <flow id="JF142588" begin="5480" fromJunction="J5" toJunction="J7" end="5540" vehsPerHour="23.115742175221456"/>
  <flow id="JF142589" begin="5480" fromJunction="J6" toJunction="J0" end="5540" vehsPerHour="61.11934648047409"/>
  <flow id="JF142590" begin="5480" fromJunction="J6" toJunction="J3" end="5540" vehsPerHour="18.46533908984454"/>
  <flow id="JF142591" begin="5480" fromJunction="J6" toJunction="J4" end="5540" vehsPerHour="25.6965217442192"/>
  <flow id="JF142592" begin="5480" fromJunction="J6" toJunction="J5" end="5540" vehsPerHour="47.37246355309181"/>
  <flow id="JF142593" begin="5480" fromJunction="J6" toJunction="J7" end="5540" vehsPerHour="13.257843958780725"/>
  <flow id="JF142594" begin="5480" fromJunction="J7" toJunction="J0" end="5540" vehsPerHour="14.925573001128576"/>
  <flow id="JF142595" begin="5480" fromJunction="J7" toJunction="J3" end="5540" vehsPerHour="18.13564023908522"/>
  <flow id="JF142596" begin="5480" fromJunction="J7" toJunction="J6" end="5540" vehsPerHour="52.35349573101388"/>
  <flow id="JF142597" begin="5540" fromJunction="J0" toJunction="J3" end="5600" vehsPerHour="8.858695037204518"/>
  <flow id="JF142598" begin="5540" fromJunction="J0" toJunction="J4" end="5600" vehsPerHour="104.43266663451585"/>
  <flow id="JF142599" begin="5540" fromJunction="J0" toJunction="J5" end="5600" vehsPerHour="132.0546943294159"/>
  <flow id="JF142600" begin="5540" fromJunction="J0" toJunction="J7" end="5600" vehsPerHour="15.887096933380414"/>
  <flow id="JF142601" begin="5540" fromJunction="J3" toJunction="J0" end="5600" vehsPerHour="30.40547879643465"/>
  <flow id="JF142602" begin="5540" fromJunction="J3" toJunction="J6" end="5600" vehsPerHour="11.564384062135522"/>
  <flow id="JF142603" begin="5540" fromJunction="J4" toJunction="J3" end="5600" vehsPerHour="0.47889719241345796"/>
  <flow id="JF142604" begin="5540" fromJunction="J4" toJunction="J5" end="5600" vehsPerHour="58.60230111592312"/>
  <flow id="JF142605" begin="5540" fromJunction="J4" toJunction="J6" end="5600" vehsPerHour="56.42683458360648"/>
  <flow id="JF142606" begin="5540" fromJunction="J5" toJunction="J0" end="5600" vehsPerHour="67.57197525657877"/>
  <flow id="JF142607" begin="5540" fromJunction="J5" toJunction="J3" end="5600" vehsPerHour="43.01893875536516"/>
  <flow id="JF142608" begin="5540" fromJunction="J5" toJunction="J4" end="5600" vehsPerHour="48.976950860040894"/>
  <flow id="JF142609" begin="5540" fromJunction="J5" toJunction="J6" end="5600" vehsPerHour="63.097709017485485"/>
  <flow id="JF142610" begin="5540" fromJunction="J5" toJunction="J7" end="5600" vehsPerHour="14.32267959834763"/>
  <flow id="JF142611" begin="5540" fromJunction="J6" toJunction="J0" end="5600" vehsPerHour="21.124983645719848"/>
  <flow id="JF142612" begin="5540" fromJunction="J6" toJunction="J3" end="5600" vehsPerHour="64.21909521638645"/>
  <flow id="JF142613" begin="5540" fromJunction="J6" toJunction="J4" end="5600" vehsPerHour="29.532118567735143"/>
  <flow id="JF142614" begin="5540" fromJunction="J6" toJunction="J5" end="5600" vehsPerHour="54.53962435645208"/>
  <flow id="JF142615" begin="5540" fromJunction="J7" toJunction="J0" end="5600" vehsPerHour="60.87566293934495"/>
  <flow id="JF142616" begin="5540" fromJunction="J7" toJunction="J4" end="5600" vehsPerHour="66.49510711363439"/>
  <flow id="JF142617" begin="5540" fromJunction="J7" toJunction="J5" end="5600" vehsPerHour="31.30104649923932"/>
  <flow id="JF142618" begin="5540" fromJunction="J7" toJunction="J6" end="5600" vehsPerHour="55.5673360276346"/>
  <flow id="JF142619" begin="5600" fromJunction="J0" toJunction="J4" end="5660" vehsPerHour="15.626451644322126"/>
  <flow id="JF142620" begin="5600" fromJunction="J0" toJunction="J6" end="5660" vehsPerHour="136.38016960285103"/>
  <flow id="JF142621" begin="5600" fromJunction="J3" toJunction="J0" end="5660" vehsPerHour="41.68482460137917"/>
  <flow id="JF142622" begin="5600" fromJunction="J3" toJunction="J4" end="5660" vehsPerHour="122.7895009571009"/>
  <flow id="JF142623" begin="5600" fromJunction="J3" toJunction="J5" end="5660" vehsPerHour="16.055671919185645"/>
  <flow id="JF142624" begin="5600" fromJunction="J3" toJunction="J6" end="5660" vehsPerHour="88.68183341149467"/>
  <flow id="JF142625" begin="5600" fromJunction="J3" toJunction="J7" end="5660" vehsPerHour="0.46535654287835543"/>
  <flow id="JF142626" begin="5600" fromJunction="J4" toJunction="J0" end="5660" vehsPerHour="9.601644807803261"/>
  <flow id="JF142627" begin="5600" fromJunction="J4" toJunction="J3" end="5660" vehsPerHour="1.8263140201933015"/>
  <flow id="JF142628" begin="5600" fromJunction="J4" toJunction="J7" end="5660" vehsPerHour="40.41379875908355"/>
  <flow id="JF142629" begin="5600" fromJunction="J5" toJunction="J0" end="5660" vehsPerHour="7.18255072706093"/>
  <flow id="JF142630" begin="5600" fromJunction="J5" toJunction="J3" end="5660" vehsPerHour="4.4598466384153665"/>
  <flow id="JF142631" begin="5600" fromJunction="J5" toJunction="J4" end="5660" vehsPerHour="63.14855773060333"/>
  <flow id="JF142632" begin="5600" fromJunction="J5" toJunction="J6" end="5660" vehsPerHour="21.96465776440838"/>