<?xml version="1.0" encoding="UTF-8"?>
<routes xmlns:xsi="http://www.w3.org/2001/XMLSchema-instance" xsi:noNamespaceSchemaLocation="http://sumo.dlr.de/xsd/routes_file.xsd">
  <flow id="JF138768" begin="0" fromJunction="J3" toJunction="J0" end="5000" vehsPerHour="1064.4058090098986"/>
  <flow id="JF138769" begin="0" fromJunction="J0" toJunction="J3" end="5000" vehsPerHour="433.3154204223963"/>
  <flow id="JF138770" begin="0" fromJunction="J3" toJunction="J7" end="5000" vehsPerHour="65.92327330530318"/>
  <flow id="JF138771" begin="0" fromJunction="J3" toJunction="J6" end="5000" vehsPerHour="117.47248990833387"/>
  <flow id="JF138772" begin="0" fromJunction="J3" toJunction="J5" end="5000" vehsPerHour="74.4547989598443"/>
  <flow id="JF138773" begin="0" fromJunction="J3" toJunction="J4" end="5000" vehsPerHour="69.7640987175402"/>
  <flow id="JF138774" begin="0" fromJunction="J0" toJunction="J7" end="5000" vehsPerHour="83.7284397557017"/>
  <flow id="JF138775" begin="0" fromJunction="J0" toJunction="J6" end="5000" vehsPerHour="124.96475677656059"/>
  <flow id="JF138776" begin="0" fromJunction="J0" toJunction="J5" end="5000" vehsPerHour="75.30295130190125"/>
  <flow id="JF138777" begin="0" fromJunction="J0" toJunction="J4" end="5000" vehsPerHour="19.435876558516295"/>
  <flow id="JF138778" begin="0" fromJunction="J7" toJunction="J6" end="5000" vehsPerHour="180.84552267853144"/>
  <flow id="JF138779" begin="0" fromJunction="J7" toJunction="J5" end="5000" vehsPerHour="142.45015936315298"/>
  <flow id="JF138780" begin="0" fromJunction="J7" toJunction="J4" end="5000" vehsPerHour="28.957759189486232"/>
  <flow id="JF138781" begin="0" fromJunction="J6" toJunction="J7" end="5000" vehsPerHour="104.46888057507572"/>
  <flow id="JF138782" begin="0" fromJunction="J6" toJunction="J5" end="5000" vehsPerHour="69.90194647448017"/>
  <flow id="JF138783" begin="0" fromJunction="J6" toJunction="J4" end="5000" vehsPerHour="141.6215023190026"/>
  <flow id="JF138784" begin="0" fromJunction="J5" toJunction="J7" end="5000" vehsPerHour="180.2423599162264"/>
  <flow id="JF138785" begin="0" fromJunction="J5" toJunction="J6" end="5000" vehsPerHour="238.9958624655121"/>
  <flow id="JF138786" begin="0" fromJunction="J5" toJunction="J4" end="5000" vehsPerHour="164.98359084967828"/>
  <flow id="JF138787" begin="0" fromJunction="J4" toJunction="J7" end="5000" vehsPerHour="169.5506026759515"/>
  <flow id="JF138788" begin="0" fromJunction="J4" toJunction="J6" end="5000" vehsPerHour="50.836232529696446"/>
  <flow id="JF138789" begin="0" fromJunction="J4" toJunction="J5" end="5000" vehsPerHour="244.20148623738905"/>
  <flow id="JF138790" begin="0" fromJunction="J7" toJunction="J3" end="5000" vehsPerHour="19.598019099038925"/>
  <flow id="JF138791" begin="0" fromJunction="J7" toJunction="J0" end="5000" vehsPerHour="27.77827458184523"/>
  <flow id="JF138792" begin="0" fromJunction="J6" toJunction="J3" end="5000" vehsPerHour="8.815069281423844"/>
  <flow id="JF138793" begin="0" fromJunction="J6" toJunction="J0" end="5000" vehsPerHour="65.58027725770575"/>
  <flow id="JF138794" begin="0" fromJunction="J5" toJunction="J3" end="5000" vehsPerHour="29.383797216128254"/>
  <flow id="JF138795" begin="0" fromJunction="J5" toJunction="J0" end="5000" vehsPerHour="6.654534032230976"/>
  <flow id="JF138796" begin="0" fromJunction="J4" toJunction="J3" end="5000" vehsPerHour="0.6944782949817075"/>
  <flow id="JF138797" begin="0" fromJunction="J4" toJunction="J0" end="5000" vehsPerHour="30.78525033755417"/>
  <flow id="JF138798" begin="5000" fromJunction="J0" toJunction="J3" end="5060" vehsPerHour="1.5007290121036154"/>
  <flow id="JF138799" begin="5000" fromJunction="J0" toJunction="J4" end="5060" vehsPerHour="34.798828923139325"/>
  <flow id="JF138800" begin="5000" fromJunction="J0" toJunction="J5" end="5060" vehsPerHour="17.23101511660323"/>
  <flow id="JF138801" begin="5000" fromJunction="J0" toJunction="J7" end="5060" vehsPerHour="125.38413575940412"/>
  <flow id="JF138802" begin="5000" fromJunction="J3" toJunction="J5" end="5060" vehsPerHour="35.70730975050647"/>
  <flow id="JF138803" begin="5000" fromJunction="J3" toJunction="J6" end="5060" vehsPerHour="34.13892973066629"/>
  <flow id="JF138804" begin="5000" fromJunction="J3" toJunction="J7" end="5060" vehsPerHour="52.03370325800277"/>
  <flow id="JF138805" begin="5000" fromJunction="J4" toJunction="J0" end="5060" vehsPerHour="40.93907132441311"/>
  <flow id="JF138806" begin="5000" fromJunction="J4" toJunction="J3" end="5060" vehsPerHour="8.2248757774814"/>
  <flow id="JF138807" begin="5000" fromJunction="J4" toJunction="J5" end="5060" vehsPerHour="41.40265274435267"/>
  <flow id="JF138808" begin="5000" fromJunction="J4" toJunction="J6" end="5060" vehsPerHour="43.53982061018078"/>
  <flow id="JF138809" begin="5000" fromJunction="J4" toJunction="J7" end="5060" vehsPerHour="15.457081873275126"/>
  <flow id="JF138810" begin="5000" fromJunction="J5" toJunction="J0" end="5060" vehsPerHour="14.049855816789544"/>
  <flow id="JF138811" begin="5000" fromJunction="J5" toJunction="J3" end="5060" vehsPerHour="63.0713335585597"/>
  <flow id="JF138812" begin="5000" fromJunction="J5" toJunction="J4" end="5060" vehsPerHour="42.26485512226916"/>
  <flow id="JF138813" begin="5000" fromJunction="J5" toJunction="J6" end="5060" vehsPerHour="67.88133873851052"/>
  <flow id="JF138814" begin="5000" fromJunction="J6" toJunction="J0" end="5060" vehsPerHour="11.886267576728642"/>
  <flow id="JF138815" begin="5000" fromJunction="J6" toJunction="J4" end="5060" vehsPerHour="22.253717200013327"/>
  <flow id="JF138816" begin="5000" fromJunction="J6" toJunction="J7" end="5060" vehsPerHour="43.64367902922085"/>
  <flow id="JF138817" begin="5000" fromJunction="J7" toJunction="J0" end="5060" vehsPerHour="54.55189981167361"/>
  <flow id="JF138818" begin="5000" fromJunction="J7" toJunction="J3" end="5060" vehsPerHour="32.42881035697672"/>
  <flow id="JF138819" begin="5000" fromJunction="J7" toJunction="J4" end="5060" vehsPerHour="41.556044309664316"/>
  <flow id="JF138820" begin="5060" fromJunction="J0" toJunction="J4" end="5120" vehsPerHour="94.8099917702301"/>
  <flow id="JF138821" begin="5060" fromJunction="J0" toJunction="J5" end="5120" vehsPerHour="58.97910616048942"/>
  <flow id="JF138822" begin="5060" fromJunction="J0" toJunction="J7" end="5120" vehsPerHour="76.4449501225393"/>
  <flow id="JF138823" begin="5060" fromJunction="J3" toJunction="J4" end="5120" vehsPerHour="110.41440055967456"/>
  <flow id="JF138824" begin="5060" fromJunction="J3" toJunction="J6" end="5120" vehsPerHour="88.08017682151389"/>
  <flow id="JF138825" begin="5060" fromJunction="J3" toJunction="J7" end="5120" vehsPerHour="12.979674370115955"/>
  <flow id="JF138826" begin="5060" fromJunction="J4" toJunction="J3" end="5120" vehsPerHour="56.56613780818902"/>
  <flow id="JF138827" begin="5060" fromJunction="J4" toJunction="J5" end="5120" vehsPerHour="64.73602821741589"/>
  <flow id="JF138828" begin="5060" fromJunction="J4" toJunction="J7" end="5120" vehsPerHour="49.782889697763046"/>
  <flow id="JF138829" begin="5060" fromJunction="J5" toJunction="J4" end="5120" vehsPerHour="44.1965199951545"/>
  <flow id="JF138830" begin="5060" fromJunction="J5" toJunction="J6" end="5120" vehsPerHour="15.005254487241718"/>
  <flow id="JF138831" begin="5060" fromJunction="J6" toJunction="J0" end="5120" vehsPerHour="35.95072141225608"/>
  <flow id="JF138832" begin="5060" fromJunction="J6" toJunction="J3" end="5120" vehsPerHour="8.488271310068992"/>
  <flow id="JF138833" begin="5060" fromJunction="J6" toJunction="J4" end="5120" vehsPerHour="3.012329895456778"/>
  <flow id="JF138834" begin="5060" fromJunction="J6" toJunction="J5" end="5120" vehsPerHour="28.16490545866374"/>
  <flow id="JF138835" begin="5060" fromJunction="J6" toJunction="J7" end="5120" vehsPerHour="10.755998161266652"/>
  <flow id="JF138836" begin="5060" fromJunction="J7" toJunction="J0" end="5120" vehsPerHour="4.707853163197394"/>
  <flow id="JF138837" begin="5060" fromJunction="J7" toJunction="J5" end="5120" vehsPerHour="60.07471443751089"/>
  <flow id="JF138838" begin="5060" fromJunction="J7" toJunction="J6" end="5120" vehsPerHour="68.18679815236821"/>
  <flow id="JF138839" begin="5120" fromJunction="J0" toJunction="J3" end="5180" vehsPerHour="69.63407857513688"/>
  <flow id="JF138840" begin="5120" fromJunction="J0" toJunction="J4" end="5180" vehsPerHour="12.292816011928858"/>
  <flow id="JF138841" begin="5120" fromJunction="J0" toJunction="J5" end="5180" vehsPerHour="39.79845515102825"/>
  <flow id="JF138842" begin="5120" fromJunction="J0" toJunction="J6" end="5180" vehsPerHour="115.06414210438673"/>
  <flow id="JF138843" begin="5120" fromJunction="J3" toJunction="J0" end="5180" vehsPerHour="5.533506936494112"/>
  <flow id="JF138844" begin="5120" fromJunction="J3" toJunction="J4" end="5180" vehsPerHour="92.2276161534532"/>
  <flow id="JF138845" begin="5120" fromJunction="J3" toJunction="J6" end="5180" vehsPerHour="79.97385827657993"/>
  <flow id="JF138846" begin="5120" fromJunction="J3" toJunction="J7" end="5180" vehsPerHour="86.11630192000223"/>
  <flow id="JF138847" begin="5120" fromJunction="J4" toJunction="J3" end="5180" vehsPerHour="30.872808873594465"/>
  <flow id="JF138848" begin="5120" fromJunction="J4" toJunction="J5" end="5180" vehsPerHour="63.43917813537075"/>
  <flow id="JF138849" begin="5120" fromJunction="J4" toJunction="J6" end="5180" vehsPerHour="10.435283978524032"/>
  <flow id="JF138850" begin="5120" fromJunction="J5" toJunction="J0" end="5180" vehsPerHour="64.32094963302477"/>
  <flow id="JF138851" begin="5120" fromJunction="J5" toJunction="J3" end="5180" vehsPerHour="16.78367115401734"/>
  <flow id="JF138852" begin="5120" fromJunction="J5" toJunction="J4" end="5180" vehsPerHour="32.298739340975125"/>
  <flow id="JF138853" begin="5120" fromJunction="J5" toJunction="J6" end="5180" vehsPerHour="48.9563871890682"/>
  <flow id="JF138854" begin="5120" fromJunction="J5" toJunction="J7" end="5180" vehsPerHour="29.409070947763823"/>
  <flow id="JF138855" begin="5120" fromJunction="J6" toJunction="J0" end="5180" vehsPerHour="13.029497344595901"/>
  <flow id="JF138856" begin="5120" fromJunction="J6" toJunction="J3" end="5180" vehsPerHour="18.510984834959206"/>
  <flow id="JF138857" begin="5120" fromJunction="J6" toJunction="J4" end="5180" vehsPerHour="51.65352289841069"/>
  <flow id="JF138858" begin="5120" fromJunction="J6" toJunction="J7" end="5180" vehsPerHour="33.298091102696254"/>
  <flow id="JF138859" begin="5120" fromJunction="J7" toJunction="J0" end="5180" vehsPerHour="44.16703169235621"/>
  <flow id="JF138860" begin="5120" fromJunction="J7" toJunction="J3" end="5180" vehsPerHour="20.307242352088572"/>
  <flow id="JF138861" begin="5120" fromJunction="J7" toJunction="J4" end="5180" vehsPerHour="49.37840592703848"/>
  <flow id="JF138862" begin="5120" fromJunction="J7" toJunction="J5" end="5180" vehsPerHour="65.86857578919356"/>
  <flow id="JF138863" begin="5120" fromJunction="J7" toJunction="J6" end="5180" vehsPerHour="11.589184857411158"/>
  <flow id="JF138864" begin="5180" fromJunction="J0" toJunction="J3" end="5240" vehsPerHour="61.12388816272976"/>
  <flow id="JF138865" begin="5180" fromJunction="J0" toJunction="J4" end="5240" vehsPerHour="122.04620673531163"/>
  <flow id="JF138866" begin="5180" fromJunction="J0" toJunction="J5" end="5240" vehsPerHour="11.123253045417602"/>
  <flow id="JF138867" begin="5180" fromJunction="J0" toJunction="J7" end="5240" vehsPerHour="96.44680292823321"/>
  <flow id="JF138868" begin="5180" fromJunction="J3" toJunction="J4" end="5240" vehsPerHour="107.7982141358493"/>
  <flow id="JF138869" begin="5180" fromJunction="J3" toJunction="J5" end="5240" vehsPerHour="23.132196753492906"/>
  <flow id="JF138870" begin="5180" fromJunction="J3" toJunction="J6" end="5240" vehsPerHour="52.00987582015426"/>
  <flow id="JF138871" begin="5180" fromJunction="J3" toJunction="J7" end="5240" vehsPerHour="28.55628119066588"/>
  <flow id="JF138872" begin="5180" fromJunction="J4" toJunction="J0" end="5240" vehsPerHour="52.27470935936016"/>
  <flow id="JF138873" begin="5180" fromJunction="J4" toJunction="J3" end="5240" vehsPerHour="39.01057979095454"/>
  <flow id="JF138874" begin="5180" fromJunction="J4" toJunction="J5" end="5240" vehsPerHour="14.76873213986244"/>
  <flow id="JF138875" begin="5180" fromJunction="J4" toJunction="J6" end="5240" vehsPerHour="51.97444843552561"/>
  <flow id="JF138876" begin="5180" fromJunction="J5" toJunction="J0" end="5240" vehsPerHour="8.529977919771802"/>
  <flow id="JF138877" begin="5180" fromJunction="J5" toJunction="J3" end="5240" vehsPerHour="26.443998175132243"/>
  <flow id="JF138878" begin="5180" fromJunction="J5" toJunction="J7" end="5240" vehsPerHour="41.8738586836668"/>
  <flow id="JF138879" begin="5180" fromJunction="J6" toJunction="J0" end="5240" vehsPerHour="22.9233569286694"/>
  <flow id="JF138880" begin="5180" fromJunction="J6" toJunction="J4" end="5240" vehsPerHour="54.86569958809053"/>
  <flow id="JF138881" begin="5180" fromJunction="J6" toJunction="J5" end="5240" vehsPerHour="30.28896692740485"/>
  <flow id="JF138882" begin="5180" fromJunction="J6" toJunction="J7" end="5240" vehsPerHour="3.69535106716016"/>
  <flow id="JF138883" begin="5180" fromJunction="J7" toJunction="J0" end="5240" vehsPerHour="14.96409049906367"/>
  <flow id="JF138884" begin="5180" fromJunction="J7" toJunction="J3" end="5240" vehsPerHour="31.672568865243864"/>
  <flow id="JF138885" begin="5180" fromJunction="J7" toJunction="J4" end="5240" vehsPerHour="0.995954582339065"/>
  <flow id="JF138886" begin="5180" fromJunction="J7" toJunction="J5" end="5240" vehsPerHour="44.404662093404916"/>
  <flow id="JF138887" begin="5240" fromJunction="J0" toJunction="J3" end="5300" vehsPerHour="65.5402250094412"/>
  <flow id="JF138888" begin="5240" fromJunction="J0" toJunction="J4" end="5300" vehsPerHour="95.01715702266301"/>
  <flow id="JF138889" begin="5240" fromJunction="J0" toJunction="J5" end="5300" vehsPerHour="61.41769359281603"/>
  <flow id="JF138890" begin="5240" fromJunction="J0" toJunction="J6" end="5300" vehsPerHour="111.31760284889761"/>
  <flow id="JF138891" begin="5240" fromJunction="J3" toJunction="J4" end="5300" vehsPerHour="9.058666940434676"/>
  <flow id="JF138892" begin="5240" fromJunction="J3" toJunction="J5" end="5300" vehsPerHour="59.408669145954775"/>
  <flow id="JF138893" begin="5240" fromJunction="J3" toJunction="J7" end="5300" vehsPerHour="127.74244013978527"/>
  <flow id="JF138894" begin="5240" fromJunction="J4" toJunction="J3" end="5300" vehsPerHour="4.151602084625292"/>
  <flow id="JF138895" begin="5240" fromJunction="J4" toJunction="J5" end="5300" vehsPerHour="30.838792247866458"/>
  <flow id="JF138896" begin="5240" fromJunction="J4" toJunction="J6" end="5300" vehsPerHour="37.37536280964512"/>
  <flow id="JF138897" begin="5240" fromJunction="J5" toJunction="J0" end="5300" vehsPerHour="45.66868409464519"/>
  <flow id="JF138898" begin="5240" fromJunction="J5" toJunction="J3" end="5300" vehsPerHour="38.496489187002275"/>
  <flow id="JF138899" begin="5240" fromJunction="J5" toJunction="J6" end="5300" vehsPerHour="17.176569429249994"/>
  <flow id="JF138900" begin="5240" fromJunction="J5" toJunction="J7" end="5300" vehsPerHour="22.21089497749489"/>
  <flow id="JF138901" begin="5240" fromJunction="J6" toJunction="J0" end="5300" vehsPerHour="8.06237394350359"/>
  <flow id="JF138902" begin="5240" fromJunction="J6" toJunction="J4" end="5300" vehsPerHour="2.180371717868277"/>
  <flow id="JF138903" begin="5240" fromJunction="J6" toJunction="J7" end="5300" vehsPerHour="25.500609199636123"/>
  <flow id="JF138904" begin="5240" fromJunction="J7" toJunction="J3" end="5300" vehsPerHour="2.809262998970613"/>
  <flow id="JF138905" begin="5240" fromJunction="J7" toJunction="J5" end="5300" vehsPerHour="28.42036449756821"/>
  <flow id="JF138906" begin="5240" fromJunction="J7" toJunction="J6" end="5300" vehsPerHour="28.801930184523254"/>
  <flow id="JF138907" begin="5300" fromJunction="J0" toJunction="J3" end="5360" vehsPerHour="3.111429360869019"/>
  <flow id="JF138908" begin="5300" fromJunction="J0" toJunction="J4" end="5360" vehsPerHour="83.14070098958767"/>
  <flow id="JF138909" begin="5300" fromJunction="J0" toJunction="J6" end="5360" vehsPerHour="31.63078611144901"/>
  <flow id="JF138910" begin="5300" fromJunction="J0" toJunction="J7" end="5360" vehsPerHour="87.23387295435143"/>
  <flow id="JF138911" begin="5300" fromJunction="J3" toJunction="J0" end="5360" vehsPerHour="76.61442013497101"/>
  <flow id="JF138912" begin="5300" fromJunction="J3" toJunction="J6" end="5360" vehsPerHour="107.86750544272718"/>
  <flow id="JF138913" begin="5300" fromJunction="J3" toJunction="J7" end="5360" vehsPerHour="111.24828220764991"/>
  <flow id="JF138914" begin="5300" fromJunction="J4" toJunction="J0" end="5360" vehsPerHour="64.03176535180714"/>
  <flow id="JF138915" begin="5300" fromJunction="J4" toJunction="J3" end="5360" vehsPerHour="41.56949237899087"/>
  <flow id="JF138916" begin="5300" fromJunction="J4" toJunction="J5" end="5360" vehsPerHour="7.834310504703421"/>
  <flow id="JF138917" begin="5300" fromJunction="J4" toJunction="J6" end="5360" vehsPerHour="65.50909786425878"/>
  <flow id="JF138918" begin="5300" fromJunction="J4" toJunction="J7" end="5360" vehsPerHour="40.46299539115386"/>
  <flow id="JF138919" begin="5300" fromJunction="J5" toJunction="J0" end="5360" vehsPerHour="20.09137636602249"/>
  <flow id="JF138920" begin="5300" fromJunction="J5" toJunction="J4" end="5360" vehsPerHour="59.87651825740434"/>
  <flow id="JF138921" begin="5300" fromJunction="J5" toJunction="J6" end="5360" vehsPerHour="28.466645703186952"/>
  <flow id="JF138922" begin="5300" fromJunction="J5" toJunction="J7" end="5360" vehsPerHour="8.171193042494512"/>
  <flow id="JF138923" begin="5300" fromJunction="J6" toJunction="J3" end="5360" vehsPerHour="54.59978047214898"/>
  <flow id="JF138924" begin="5300" fromJunction="J6" toJunction="J7" end="5360" vehsPerHour="65.83432408390466"/>
  <flow id="JF138925" begin="5300" fromJunction="J7" toJunction="J0" end="5360" vehsPerHour="14.543718221873545"/>
  <flow id="JF138926" begin="5300" fromJunction="J7" toJunction="J3" end="5360" vehsPerHour="8.989200889398406"/>
  <flow id="JF138927" begin="5300" fromJunction="J7" toJunction="J4" end="5360" vehsPerHour="33.86635312232791"/>
  <flow id="JF138928" begin="5300" fromJunction="J7" toJunction="J5" end="5360" vehsPerHour="11.457781049375983"/>
  <flow id="JF138929" begin="5360" fromJunction="J0" toJunction="J3" end="5420" vehsPerHour="57.964774485017564"/>
  <flow id="JF138930" begin="5360" fromJunction="J0" toJunction="J4" end="5420" vehsPerHour="108.89763291057069"/>
  <flow id="JF138931" begin="5360" fromJunction="J0" toJunction="J5" end="5420" vehsPerHour="31.009061848293236"/>
  <flow id="JF138932" begin="5360" fromJunction="J0" toJunction="J7" end="5420" vehsPerHour="127.9139789180088"/>
  <flow id="JF138933" begin="5360" fromJunction="J3" toJunction="J0" end="5420" vehsPerHour="6.837770099706391"/>
  <flow id="JF138934" begin="5360" fromJunction="J3" toJunction="J5" end="5420" vehsPerHour="83.73489073410121"/>
  <flow id="JF138935" begin="5360" fromJunction="J3" toJunction="J6" end="5420" vehsPerHour="94.6002320941294"/>
  <flow id="JF138936" begin="5360" fromJunction="J3" toJunction="J7" end="5420" vehsPerHour="81.02137200683755"/>
  <flow id="JF138937" begin="5360" fromJunction="J4" toJunction="J0" end="5420" vehsPerHour="41.84176806327138"/>
  <flow id="JF138938" begin="5360" fromJunction="J4" toJunction="J3" end="5420" vehsPerHour="38.828231227836916"/>
  <flow id="JF138939" begin="5360" fromJunction="J4" toJunction="J5" end="5420" vehsPerHour="0.7365982255300573"/>
  <flow id="JF138940" begin="5360" fromJunction="J4" toJunction="J6" end="5420" vehsPerHour="55.76616595231135"/>
  <flow id="JF138941" begin="5360" fromJunction="J5" toJunction="J0" end="5420" vehsPerHour="12.092331264575702"/>
  <flow id="JF138942" begin="5360" fromJunction="J5" toJunction="J3" end="5420" vehsPerHour="51.04888456102963"/>
  <flow id="JF138943" begin="5360" fromJunction="J5" toJunction="J6" end="5420" vehsPerHour="33.50530993132477"/>
  <flow id="JF138944" begin="5360" fromJunction="J5" toJunction="J7" end="5420" vehsPerHour="14.474814147293335"/>
  <flow id="JF138945" begin="5360" fromJunction="J6" toJunction="J0" end="5420" vehsPerHour="58.22244175106351"/>
  <flow id="JF138946" begin="5360" fromJunction="J6" toJunction="J3" end="5420" vehsPerHour="21.041312590910476"/>
  <flow id="JF138947" begin="5360" fromJunction="J6" toJunction="J4" end="5420" vehsPerHour="26.849951188001796"/>
  <flow id="JF138948" begin="5360" fromJunction="J6" toJunction="J5" end="5420" vehsPerHour="40.89260239714438"/>
  <flow id="JF138949" begin="5360" fromJunction="J6" toJunction="J7" end="5420" vehsPerHour="63.103220190063254"/>
  <flow id="JF138950" begin="5360" fromJunction="J7" toJunction="J0" end="5420" vehsPerHour="54.36144615690047"/>
  <flow id="JF138951" begin="5360" fromJunction="J7" toJunction="J3" end="5420" vehsPerHour="66.12179212565857"/>
  <flow id="JF138952" begin="5360" fromJunction="J7" toJunction="J5" end="5420" vehsPerHour="38.640348988628816"/>
  <flow id="JF138953" begin="5420" fromJunction="J0" toJunction="J3" end="5480" vehsPerHour="63.41213428085235"/>
  <flow id="JF138954" begin="5420" fromJunction="J0" toJunction="J5" end="5480" vehsPerHour="85.19946228374415"/>
  <flow id="JF138955" begin="5420" fromJunction="J0" toJunction="J7" end="5480" vehsPerHour="47.60788810432928"/>
  <flow id="JF138956" begin="5420" fromJunction="J3" toJunction="J0" end="5480" vehsPerHour="119.72971067117942"/>
  <flow id="JF138957" begin="5420" fromJunction="J3" toJunction="J4" end="5480" vehsPerHour="69.32125881918371"/>
  <flow id="JF138958" begin="5420" fromJunction="J3" toJunction="J5" end="5480" vehsPerHour="72.85486849571166"/>
  <flow id="JF138959" begin="5420" fromJunction="J3" toJunction="J6" end="5480" vehsPerHour="39.10736346965681"/>
  <flow id="JF138960" begin="5420" fromJunction="J3" toJunction="J7" end="5480" vehsPerHour="3.2947798460910045"/>
  <flow id="JF138961" begin="5420" fromJunction="J4" toJunction="J3" end="5480" vehsPerHour="66.30090282808463"/>
  <flow id="JF138962" begin="5420" fromJunction="J4" toJunction="J6" end="5480" vehsPerHour="42.84734725739698"/>
  <flow id="JF138963" begin="5420" fromJunction="J4" toJunction="J7" end="5480" vehsPerHour="3.498877258243664"/>
  <flow id="JF138964" begin="5420" fromJunction="J5" toJunction="J3" end="5480" vehsPerHour="10.369701855809547"/>
  <flow id="JF138965" begin="5420" fromJunction="J5" toJunction="J4" end="5480" vehsPerHour="3.692236960015122"/>
  <flow id="JF138966" begin="5420" fromJunction="J5" toJunction="J6" end="5480" vehsPerHour="51.39841344108064"/>
  <flow id="JF138967" begin="5420" fromJunction="J5" toJunction="J7" end="5480" vehsPerHour="49.81280913372095"/>
  <flow id="JF138968" begin="5420" fromJunction="J6" toJunction="J0" end="5480" vehsPerHour="44.61385745507974"/>
  <flow id="JF138969" begin="5420" fromJunction="J6" toJunction="J4" end="5480" vehsPerHour="12.959345233091216"/>
  <flow id="JF138970" begin="5420" fromJunction="J6" toJunction="J7" end="5480" vehsPerHour="43.17997528139832"/>
  <flow id="JF138971" begin="5420" fromJunction="J7" toJunction="J0" end="5480" vehsPerHour="20.30391252603436"/>
  <flow id="JF138972" begin="5420" fromJunction="J7" toJunction="J3" end="5480" vehsPerHour="67.45348768333915"/>
  <flow id="JF138973" begin="5420" fromJunction="J7" toJunction="J5" end="5480" vehsPerHour="19.959932680650113"/>
  <flow id="JF138974" begin="5420" fromJunction="J7" toJunction="J6" end="5480" vehsPerHour="65.93785815548355"/>
  <flow id="JF138975" begin="5480" fromJunction="J0" toJunction="J3" end="5540" vehsPerHour="51.35005701719028"/>
  <flow id="JF138976" begin="5480" fromJunction="J0" toJunction="J4" end="5540" vehsPerHour="19.49775666921828"/>
  <flow id="JF138977" begin="5480" fromJunction="J0" toJunction="J5" end="5540" vehsPerHour="106.30160624899366"/>
  <flow id="JF138978" begin="5480" fromJunction="J3" toJunction="J0" end="5540" vehsPerHour="53.81588671236668"/>
  <flow id="JF138979" begin="5480" fromJunction="J3" toJunction="J5" end="5540" vehsPerHour="11.918298232476413"/>
  <flow id="JF138980" begin="5480" fromJunction="J3" toJunction="J6" end="5540" vehsPerHour="47.22075689951091"/>
  <flow id="JF138981" begin="5480" fromJunction="J3" toJunction="J7" end="5540" vehsPerHour="5.812177427056977"/>
  <flow id="JF138982" begin="5480" fromJunction="J4" toJunction="J6" end="5540" vehsPerHour="57.271467965525225"/>
  <flow id="JF138983" begin="5480" fromJunction="J5" toJunction="J0" end="5540" vehsPerHour="11.922216157152377"/>
  <flow id="JF138984" begin="5480" fromJunction="J5" toJunction="J3" end="5540" vehsPerHour="41.967566866372294"/>
  <flow id="JF138985" begin="5480" fromJunction="J5" toJunction="J4" end="5540" vehsPerHour="38.68055466775321"/>
  <flow id="JF138986" begin="5480" fromJunction="J5" toJunction="J6" end="5540" vehsPerHour="11.231153978401341"/>
  <flow id="JF138987" begin="5480" fromJunction="J5" toJunction="J7" end="5540" vehsPerHour="65.23731519077053"/>
  <flow id="JF138988" begin="5480" fromJunction="J6" toJunction="J0" end="5540" vehsPerHour="0.3301519469238672"/>
  <flow id="JF138989" begin="5480" fromJunction="J6" toJunction="J3" end="5540" vehsPerHour="42.155425157558525"/>
  <flow id="JF138990" begin="5480" fromJunction="J6" toJunction="J4" end="5540" vehsPerHour="35.00758711026244"/>
  <flow id="JF138991" begin="5480" fromJunction="J7" toJunction="J0" end="5540" vehsPerHour="51.783394027756216"/>
  <flow id="JF138992" begin="5480" fromJunction="J7" toJunction="J4" end="5540" vehsPerHour="61.78063628951488"/>
  <flow id="JF138993" begin="5480" fromJunction="J7" toJunction="J5" end="5540" vehsPerHour="60.22926428352837"/>
  <flow id="JF138994" begin="5540" fromJunction="J0" toJunction="J3" end="5600" vehsPerHour="109.39509662403147"/>
  <flow id="JF138995" begin="5540" fromJunction="J0" toJunction="J4" end="5600" vehsPerHour="81.71447900331333"/>
  <flow id="JF138996" begin="5540" fromJunction="J0" toJunction="J5" end="5600" vehsPerHour="137.10431534781847"/>
  <flow id="JF138997" begin="5540" fromJunction="J0" toJunction="J6" end="5600" vehsPerHour="42.6419849919707"/>
  <flow id="JF138998" begin="5540" fromJunction="J0" toJunction="J7" end="5600" vehsPerHour="98.96582155778762"/>
  <flow id="JF138999" begin="5540" fromJunction="J3" toJunction="J4" end="5600" vehsPerHour="57.91057999867911"/>
  <flow id="JF139000" begin="5540" fromJunction="J3" toJunction="J7" end="5600" vehsPerHour="10.471359801714932"/>
  <flow id="JF139001" begin="5540" fromJunction="J4" toJunction="J0" end="5600" vehsPerHour="54.44463380939146"/>
  <flow id="JF139002" begin="5540" fromJunction="J4" toJunction="J5" end="5600" vehsPerHour="67.52593142308588"/>
  <flow id="JF139003" begin="5540" fromJunction="J4" toJunction="J7" end="5600" vehsPerHour="34.87089974790368"/>
  <flow id="JF139004" begin="5540" fromJunction="J5" toJunction="J3" end="5600" vehsPerHour="54.958705355376374"/>
  <flow id="JF139005" begin="5540" fromJunction="J5" toJunction="J4" end="5600" vehsPerHour="2.3257182469089916"/>
  <flow id="JF139006" begin="5540" fromJunction="J5" toJunction="J6" end="5600" vehsPerHour="8.067638880107207"/>
  <flow id="JF139007" begin="5540" fromJunction="J5" toJunction="J7" end="5600" vehsPerHour="10.344509123119588"/>
  <flow id="JF139008" begin="5540" fromJunction="J6" toJunction="J3" end="5600" vehsPerHour="3.516603696149374"/>
  <flow id="JF139009" begin="5540" fromJunction="J6" toJunction="J4" end="5600" vehsPerHour="57.074595571025824"/>
  <flow id="JF139010" begin="5540" fromJunction="J6" toJunction="J5" end="5600" vehsPerHour="4.97293352235981"/>
  <flow id="JF139011" begin="5540" fromJunction="J7" toJunction="J0" end="5600" vehsPerHour="9.544680511194892"/>
  <flow id="JF139012" begin="5540" fromJunction="J7" toJunction="J4" end="5600" vehsPerHour="67.07661699482054"/>
  <flow id="JF139013" begin="5600" fromJunction="J0" toJunction="J3" end="5660" vehsPerHour="136.3836193635134"/>
  <flow id="JF139014" begin="5600" fromJunction="J0" toJunction="J5" end="5660" vehsPerHour="62.32576606177362"/>
  <flow id="JF139015" begin="5600" fromJunction="J0" toJunction="J6" end="5660" vehsPerHour="35.51144446890375"/>
  <flow id="JF139016" begin="5600" fromJunction="J0" toJunction="J7" end="5660" vehsPerHour="45.63399156398974"/>
  <flow id="JF139017" begin="5600" fromJunction="J3" toJunction="J4" end="5660" vehsPerHour="120.52725753270848"/>
  <flow id="JF139018" begin="5600" fromJunction="J3" toJunction="J5" end="5660" vehsPerHour="27.465271111887965"/>
  <flow id="JF139019" begin="5600" fromJunction="J3" toJunction="J6" end="5660" vehsPerHour="122.95886606242601"/>
  <flow id="JF139020" begin="5600" fromJunction="J4" toJunction="J0" end="5660" vehsPerHour="60.45726847636855"/>
  <flow id="JF139021" begin="5600" fromJunction="J4" toJunction="J3" end="5660" vehsPerHour="16.864929641247024"/>
  <flow id="JF139022" begin="5600" fromJunction="J4" toJunction="J5" end="5660" vehsPerHour="34.4350295862299"/>
  <flow id="JF139023" begin="5600" fromJunction="J4" toJunction="J6" end="5660" vehsPerHour="7.876270169352408"/>
  <flow id="JF139024" begin="5600" fromJunction="J5" toJunction="J0" end="5660" vehsPerHour="60.23948105871411"/>
  <flow id="JF139025" begin="5600" fromJunction="J5" toJunction="J3" end="5660" vehsPerHour="45.229649269143"/>
  <flow id="JF139026" begin="5600" fromJunction="J5" toJunction="J6" end="5660" vehsPerHour="40.05494223712685"/>
  <flow id="JF139027" begin="5600" fromJunction="J6" toJunction="J0" end="5660" vehsPerHour="3.9985697001489893"/>
  <flow id="JF139028" begin="5600" fromJunction="J6" toJunction="J3" end="5660" vehsPerHour="1.5975837987537058"/>