<?xml version="1.0" encoding="UTF-8"?>
<routes xmlns:xsi="http://www.w3.org/2001/XMLSchema-instance" xsi:noNamespaceSchemaLocation="http://sumo.dlr.de/xsd/routes_file.xsd">
  <flow id="JF135225" begin="0" fromJunction="J3" toJunction="J0" end="5000" vehsPerHour="1289.3363664687001"/>
  <flow id="JF135226" begin="0" fromJunction="J0" toJunction="J3" end="5000" vehsPerHour="83.63980067791597"/>
  <flow id="JF135227" begin="0" fromJunction="J3" toJunction="J7" end="5000" vehsPerHour="88.8316141855545"/>
  <flow id="JF135228" begin="0" fromJunction="J3" toJunction="J6" end="5000" vehsPerHour="80.9492066270392"/>
  <flow id="JF135229" begin="0" fromJunction="J3" toJunction="J5" end="5000" vehsPerHour="27.930403697795906"/>
  <flow id="JF135230" begin="0" fromJunction="J3" toJunction="J4" end="5000" vehsPerHour="121.23045787691719"/>
  <flow id="JF135231" begin="0" fromJunction="J0" toJunction="J7" end="5000" vehsPerHour="133.44886035487795"/>
  <flow id="JF135232" begin="0" fromJunction="J0" toJunction="J6" end="5000" vehsPerHour="72.92629633350207"/>
  <flow id="JF135233" begin="0" fromJunction="J0" toJunction="J5" end="5000" vehsPerHour="59.38524582875463"/>
  <flow id="JF135234" begin="0" fromJunction="J0" toJunction="J4" end="5000" vehsPerHour="92.63741240525826"/>
  <flow id="JF135235" begin="0" fromJunction="J7" toJunction="J6" end="5000" vehsPerHour="71.07550607851519"/>
  <flow id="JF135236" begin="0" fromJunction="J7" toJunction="J5" end="5000" vehsPerHour="210.0887102606338"/>
  <flow id="JF135237" begin="0" fromJunction="J7" toJunction="J4" end="5000" vehsPerHour="206.39643301664523"/>
  <flow id="JF135238" begin="0" fromJunction="J6" toJunction="J7" end="5000" vehsPerHour="13.995774876577071"/>
  <flow id="JF135239" begin="0" fromJunction="J6" toJunction="J5" end="5000" vehsPerHour="266.10738226277977"/>
  <flow id="JF135240" begin="0" fromJunction="J6" toJunction="J4" end="5000" vehsPerHour="6.0557646874200515"/>
  <flow id="JF135241" begin="0" fromJunction="J5" toJunction="J7" end="5000" vehsPerHour="182.34615626027653"/>
  <flow id="JF135242" begin="0" fromJunction="J5" toJunction="J6" end="5000" vehsPerHour="36.024042381641515"/>
  <flow id="JF135243" begin="0" fromJunction="J5" toJunction="J4" end="5000" vehsPerHour="14.360888308809976"/>
  <flow id="JF135244" begin="0" fromJunction="J4" toJunction="J7" end="5000" vehsPerHour="105.72852284807198"/>
  <flow id="JF135245" begin="0" fromJunction="J4" toJunction="J6" end="5000" vehsPerHour="33.03824159408307"/>
  <flow id="JF135246" begin="0" fromJunction="J4" toJunction="J5" end="5000" vehsPerHour="39.45459266773824"/>
  <flow id="JF135247" begin="0" fromJunction="J7" toJunction="J3" end="5000" vehsPerHour="24.550203996080413"/>
  <flow id="JF135248" begin="0" fromJunction="J7" toJunction="J0" end="5000" vehsPerHour="29.993162354272457"/>
  <flow id="JF135249" begin="0" fromJunction="J6" toJunction="J3" end="5000" vehsPerHour="62.53374262483314"/>
  <flow id="JF135250" begin="0" fromJunction="J6" toJunction="J0" end="5000" vehsPerHour="5.1150519453745025"/>
  <flow id="JF135251" begin="0" fromJunction="J5" toJunction="J3" end="5000" vehsPerHour="62.76175671356321"/>
  <flow id="JF135252" begin="0" fromJunction="J5" toJunction="J0" end="5000" vehsPerHour="53.51990149450086"/>
  <flow id="JF135253" begin="0" fromJunction="J4" toJunction="J3" end="5000" vehsPerHour="41.798765908736684"/>
  <flow id="JF135254" begin="0" fromJunction="J4" toJunction="J0" end="5000" vehsPerHour="41.01235767142021"/>
  <flow id="JF135255" begin="5000" fromJunction="J0" toJunction="J3" end="5060" vehsPerHour="123.24233702604872"/>
  <flow id="JF135256" begin="5000" fromJunction="J0" toJunction="J6" end="5060" vehsPerHour="64.80087947544811"/>
  <flow id="JF135257" begin="5000" fromJunction="J3" toJunction="J0" end="5060" vehsPerHour="86.7812542408121"/>
  <flow id="JF135258" begin="5000" fromJunction="J3" toJunction="J5" end="5060" vehsPerHour="67.8259477116754"/>
  <flow id="JF135259" begin="5000" fromJunction="J3" toJunction="J6" end="5060" vehsPerHour="98.8536928433956"/>
  <flow id="JF135260" begin="5000" fromJunction="J3" toJunction="J7" end="5060" vehsPerHour="75.89083526386567"/>
  <flow id="JF135261" begin="5000" fromJunction="J4" toJunction="J0" end="5060" vehsPerHour="55.6027990563005"/>
  <flow id="JF135262" begin="5000" fromJunction="J4" toJunction="J3" end="5060" vehsPerHour="7.320467190522186"/>
  <flow id="JF135263" begin="5000" fromJunction="J4" toJunction="J6" end="5060" vehsPerHour="49.01879797062563"/>
  <flow id="JF135264" begin="5000" fromJunction="J4" toJunction="J7" end="5060" vehsPerHour="14.279793108961243"/>
  <flow id="JF135265" begin="5000" fromJunction="J5" toJunction="J0" end="5060" vehsPerHour="44.18906033420686"/>
  <flow id="JF135266" begin="5000" fromJunction="J5" toJunction="J4" end="5060" vehsPerHour="21.245293191451044"/>
  <flow id="JF135267" begin="5000" fromJunction="J5" toJunction="J6" end="5060" vehsPerHour="38.30725335018268"/>
  <flow id="JF135268" begin="5000" fromJunction="J6" toJunction="J0" end="5060" vehsPerHour="21.25227321569314"/>
  <flow id="JF135269" begin="5000" fromJunction="J6" toJunction="J3" end="5060" vehsPerHour="6.677579215506877"/>
  <flow id="JF135270" begin="5000" fromJunction="J6" toJunction="J4" end="5060" vehsPerHour="50.85841090138267"/>
  <flow id="JF135271" begin="5000" fromJunction="J6" toJunction="J5" end="5060" vehsPerHour="21.42190582963923"/>
  <flow id="JF135272" begin="5000" fromJunction="J6" toJunction="J7" end="5060" vehsPerHour="8.06503613055894"/>
  <flow id="JF135273" begin="5000" fromJunction="J7" toJunction="J0" end="5060" vehsPerHour="57.25941139723607"/>
  <flow id="JF135274" begin="5000" fromJunction="J7" toJunction="J3" end="5060" vehsPerHour="42.526785874454056"/>
  <flow id="JF135275" begin="5000" fromJunction="J7" toJunction="J4" end="5060" vehsPerHour="51.21356901923733"/>
  <flow id="JF135276" begin="5000" fromJunction="J7" toJunction="J6" end="5060" vehsPerHour="14.487551101900205"/>
  <flow id="JF135277" begin="5060" fromJunction="J0" toJunction="J5" end="5120" vehsPerHour="41.86923002682793"/>
  <flow id="JF135278" begin="5060" fromJunction="J0" toJunction="J6" end="5120" vehsPerHour="9.391876616299292"/>
  <flow id="JF135279" begin="5060" fromJunction="J0" toJunction="J7" end="5120" vehsPerHour="120.46681739274405"/>
  <flow id="JF135280" begin="5060" fromJunction="J3" toJunction="J0" end="5120" vehsPerHour="3.441498375676732"/>
  <flow id="JF135281" begin="5060" fromJunction="J3" toJunction="J5" end="5120" vehsPerHour="51.43266954157357"/>
  <flow id="JF135282" begin="5060" fromJunction="J3" toJunction="J6" end="5120" vehsPerHour="119.75040413414982"/>
  <flow id="JF135283" begin="5060" fromJunction="J4" toJunction="J0" end="5120" vehsPerHour="54.39631808801606"/>
  <flow id="JF135284" begin="5060" fromJunction="J4" toJunction="J6" end="5120" vehsPerHour="65.96391137283264"/>
  <flow id="JF135285" begin="5060" fromJunction="J5" toJunction="J0" end="5120" vehsPerHour="28.286899788645478"/>
  <flow id="JF135286" begin="5060" fromJunction="J5" toJunction="J4" end="5120" vehsPerHour="60.2734878063272"/>
  <flow id="JF135287" begin="5060" fromJunction="J5" toJunction="J7" end="5120" vehsPerHour="11.222285420635547"/>
  <flow id="JF135288" begin="5060" fromJunction="J6" toJunction="J0" end="5120" vehsPerHour="52.912099485293304"/>
  <flow id="JF135289" begin="5060" fromJunction="J6" toJunction="J4" end="5120" vehsPerHour="62.01786091673994"/>
  <flow id="JF135290" begin="5060" fromJunction="J6" toJunction="J5" end="5120" vehsPerHour="13.293268305974827"/>
  <flow id="JF135291" begin="5060" fromJunction="J6" toJunction="J7" end="5120" vehsPerHour="39.23406356293635"/>
  <flow id="JF135292" begin="5060" fromJunction="J7" toJunction="J0" end="5120" vehsPerHour="19.72413978155594"/>
  <flow id="JF135293" begin="5060" fromJunction="J7" toJunction="J4" end="5120" vehsPerHour="63.463531381554425"/>
  <flow id="JF135294" begin="5060" fromJunction="J7" toJunction="J5" end="5120" vehsPerHour="51.94689653215709"/>
  <flow id="JF135295" begin="5120" fromJunction="J0" toJunction="J3" end="5180" vehsPerHour="103.6637540963083"/>
  <flow id="JF135296" begin="5120" fromJunction="J0" toJunction="J4" end="5180" vehsPerHour="97.50273584529091"/>
  <flow id="JF135297" begin="5120" fromJunction="J0" toJunction="J5" end="5180" vehsPerHour="93.97411322827574"/>
  <flow id="JF135298" begin="5120" fromJunction="J0" toJunction="J6" end="5180" vehsPerHour="19.69638913980783"/>
  <flow id="JF135299" begin="5120" fromJunction="J0" toJunction="J7" end="5180" vehsPerHour="103.30695501446009"/>
  <flow id="JF135300" begin="5120" fromJunction="J3" toJunction="J0" end="5180" vehsPerHour="133.66144172053035"/>
  <flow id="JF135301" begin="5120" fromJunction="J3" toJunction="J4" end="5180" vehsPerHour="99.37910598186585"/>
  <flow id="JF135302" begin="5120" fromJunction="J3" toJunction="J6" end="5180" vehsPerHour="116.90789595045275"/>
  <flow id="JF135303" begin="5120" fromJunction="J4" toJunction="J0" end="5180" vehsPerHour="51.737016714163275"/>
  <flow id="JF135304" begin="5120" fromJunction="J4" toJunction="J3" end="5180" vehsPerHour="27.035408627771982"/>
  <flow id="JF135305" begin="5120" fromJunction="J4" toJunction="J6" end="5180" vehsPerHour="14.26312502361096"/>
  <flow id="JF135306" begin="5120" fromJunction="J4" toJunction="J7" end="5180" vehsPerHour="34.23590625195951"/>
  <flow id="JF135307" begin="5120" fromJunction="J5" toJunction="J0" end="5180" vehsPerHour="37.83125016971854"/>
  <flow id="JF135308" begin="5120" fromJunction="J5" toJunction="J3" end="5180" vehsPerHour="60.191202976837"/>
  <flow id="JF135309" begin="5120" fromJunction="J5" toJunction="J4" end="5180" vehsPerHour="5.910012297064229"/>
  <flow id="JF135310" begin="5120" fromJunction="J5" toJunction="J7" end="5180" vehsPerHour="58.512001823421976"/>
  <flow id="JF135311" begin="5120" fromJunction="J6" toJunction="J0" end="5180" vehsPerHour="32.77040679921842"/>
  <flow id="JF135312" begin="5120" fromJunction="J6" toJunction="J3" end="5180" vehsPerHour="61.84909901554499"/>
  <flow id="JF135313" begin="5120" fromJunction="J6" toJunction="J4" end="5180" vehsPerHour="31.421974355241574"/>
  <flow id="JF135314" begin="5120" fromJunction="J6" toJunction="J7" end="5180" vehsPerHour="41.08555335708523"/>
  <flow id="JF135315" begin="5120" fromJunction="J7" toJunction="J0" end="5180" vehsPerHour="60.280965276535746"/>
  <flow id="JF135316" begin="5120" fromJunction="J7" toJunction="J3" end="5180" vehsPerHour="64.90773252759232"/>
  <flow id="JF135317" begin="5120" fromJunction="J7" toJunction="J4" end="5180" vehsPerHour="15.082991185141621"/>
  <flow id="JF135318" begin="5120" fromJunction="J7" toJunction="J5" end="5180" vehsPerHour="48.171450181008424"/>
  <flow id="JF135319" begin="5120" fromJunction="J7" toJunction="J6" end="5180" vehsPerHour="45.671358530889805"/>
  <flow id="JF135320" begin="5180" fromJunction="J0" toJunction="J3" end="5240" vehsPerHour="17.350720101578553"/>
  <flow id="JF135321" begin="5180" fromJunction="J0" toJunction="J4" end="5240" vehsPerHour="73.81798011382233"/>
  <flow id="JF135322" begin="5180" fromJunction="J0" toJunction="J5" end="5240" vehsPerHour="36.04454560746426"/>
  <flow id="JF135323" begin="5180" fromJunction="J0" toJunction="J6" end="5240" vehsPerHour="76.48264770667015"/>
  <flow id="JF135324" begin="5180" fromJunction="J0" toJunction="J7" end="5240" vehsPerHour="15.77700207665079"/>
  <flow id="JF135325" begin="5180" fromJunction="J3" toJunction="J0" end="5240" vehsPerHour="79.14182365035157"/>
  <flow id="JF135326" begin="5180" fromJunction="J3" toJunction="J5" end="5240" vehsPerHour="20.146026452584803"/>
  <flow id="JF135327" begin="5180" fromJunction="J3" toJunction="J6" end="5240" vehsPerHour="9.072784597517375"/>
  <flow id="JF135328" begin="5180" fromJunction="J3" toJunction="J7" end="5240" vehsPerHour="0.277368969912791"/>
  <flow id="JF135329" begin="5180" fromJunction="J4" toJunction="J0" end="5240" vehsPerHour="26.242072002505303"/>
  <flow id="JF135330" begin="5180" fromJunction="J4" toJunction="J3" end="5240" vehsPerHour="51.59494371122576"/>
  <flow id="JF135331" begin="5180" fromJunction="J4" toJunction="J5" end="5240" vehsPerHour="26.380395257975696"/>
  <flow id="JF135332" begin="5180" fromJunction="J5" toJunction="J0" end="5240" vehsPerHour="30.758211905824886"/>
  <flow id="JF135333" begin="5180" fromJunction="J5" toJunction="J4" end="5240" vehsPerHour="38.63892050379604"/>
  <flow id="JF135334" begin="5180" fromJunction="J5" toJunction="J6" end="5240" vehsPerHour="33.90517214914404"/>
  <flow id="JF135335" begin="5180" fromJunction="J6" toJunction="J0" end="5240" vehsPerHour="55.25269196432398"/>
  <flow id="JF135336" begin="5180" fromJunction="J6" toJunction="J3" end="5240" vehsPerHour="41.40634451906856"/>
  <flow id="JF135337" begin="5180" fromJunction="J6" toJunction="J4" end="5240" vehsPerHour="23.24620561121733"/>
  <flow id="JF135338" begin="5180" fromJunction="J6" toJunction="J7" end="5240" vehsPerHour="9.802914934839219"/>
  <flow id="JF135339" begin="5180" fromJunction="J7" toJunction="J0" end="5240" vehsPerHour="18.78732238174987"/>
  <flow id="JF135340" begin="5180" fromJunction="J7" toJunction="J3" end="5240" vehsPerHour="1.3995095699880857"/>
  <flow id="JF135341" begin="5180" fromJunction="J7" toJunction="J5" end="5240" vehsPerHour="26.0952154891992"/>
  <flow id="JF135342" begin="5240" fromJunction="J0" toJunction="J3" end="5300" vehsPerHour="65.31532737366864"/>
  <flow id="JF135343" begin="5240" fromJunction="J0" toJunction="J4" end="5300" vehsPerHour="88.5133674307328"/>
  <flow id="JF135344" begin="5240" fromJunction="J0" toJunction="J5" end="5300" vehsPerHour="105.44987470019818"/>
  <flow id="JF135345" begin="5240" fromJunction="J0" toJunction="J7" end="5300" vehsPerHour="96.29296210260607"/>
  <flow id="JF135346" begin="5240" fromJunction="J3" toJunction="J4" end="5300" vehsPerHour="26.60590827111292"/>
  <flow id="JF135347" begin="5240" fromJunction="J3" toJunction="J6" end="5300" vehsPerHour="82.41095246163853"/>
  <flow id="JF135348" begin="5240" fromJunction="J3" toJunction="J7" end="5300" vehsPerHour="77.55507782515066"/>
  <flow id="JF135349" begin="5240" fromJunction="J4" toJunction="J0" end="5300" vehsPerHour="42.01146399988835"/>
  <flow id="JF135350" begin="5240" fromJunction="J4" toJunction="J3" end="5300" vehsPerHour="20.22795511277177"/>
  <flow id="JF135351" begin="5240" fromJunction="J4" toJunction="J5" end="5300" vehsPerHour="32.65444241258995"/>
  <flow id="JF135352" begin="5240" fromJunction="J4" toJunction="J6" end="5300" vehsPerHour="38.49659624289551"/>
  <flow id="JF135353" begin="5240" fromJunction="J4" toJunction="J7" end="5300" vehsPerHour="42.190594042437944"/>
  <flow id="JF135354" begin="5240" fromJunction="J5" toJunction="J0" end="5300" vehsPerHour="40.06978240361603"/>
  <flow id="JF135355" begin="5240" fromJunction="J5" toJunction="J3" end="5300" vehsPerHour="50.53521342899794"/>
  <flow id="JF135356" begin="5240" fromJunction="J5" toJunction="J4" end="5300" vehsPerHour="18.268318597387196"/>
  <flow id="JF135357" begin="5240" fromJunction="J6" toJunction="J0" end="5300" vehsPerHour="49.144684715076984"/>
  <flow id="JF135358" begin="5240" fromJunction="J6" toJunction="J3" end="5300" vehsPerHour="32.04860982918771"/>
  <flow id="JF135359" begin="5240" fromJunction="J6" toJunction="J4" end="5300" vehsPerHour="25.48866871358884"/>
  <flow id="JF135360" begin="5240" fromJunction="J6" toJunction="J7" end="5300" vehsPerHour="10.53108778995217"/>
  <flow id="JF135361" begin="5240" fromJunction="J7" toJunction="J0" end="5300" vehsPerHour="16.80136492643613"/>
  <flow id="JF135362" begin="5240" fromJunction="J7" toJunction="J3" end="5300" vehsPerHour="13.955433487818004"/>
  <flow id="JF135363" begin="5240" fromJunction="J7" toJunction="J5" end="5300" vehsPerHour="8.551977838923388"/>
  <flow id="JF135364" begin="5240" fromJunction="J7" toJunction="J6" end="5300" vehsPerHour="64.8167933895329"/>
  <flow id="JF135365" begin="5300" fromJunction="J0" toJunction="J3" end="5360" vehsPerHour="25.79849113887969"/>
  <flow id="JF135366" begin="5300" fromJunction="J0" toJunction="J4" end="5360" vehsPerHour="112.03229634171217"/>
  <flow id="JF135367" begin="5300" fromJunction="J0" toJunction="J5" end="5360" vehsPerHour="118.10564821354782"/>
  <flow id="JF135368" begin="5300" fromJunction="J0" toJunction="J6" end="5360" vehsPerHour="84.98542933594416"/>
  <flow id="JF135369" begin="5300" fromJunction="J0" toJunction="J7" end="5360" vehsPerHour="94.97883517860886"/>
  <flow id="JF135370" begin="5300" fromJunction="J3" toJunction="J0" end="5360" vehsPerHour="123.12164381958193"/>
  <flow id="JF135371" begin="5300" fromJunction="J3" toJunction="J4" end="5360" vehsPerHour="97.70188583504996"/>
  <flow id="JF135372" begin="5300" fromJunction="J3" toJunction="J5" end="5360" vehsPerHour="15.665038803024109"/>
  <flow id="JF135373" begin="5300" fromJunction="J4" toJunction="J0" end="5360" vehsPerHour="60.88129264496033"/>
  <flow id="JF135374" begin="5300" fromJunction="J4" toJunction="J3" end="5360" vehsPerHour="49.9468979899908"/>
  <flow id="JF135375" begin="5300" fromJunction="J4" toJunction="J7" end="5360" vehsPerHour="59.9700298232886"/>
  <flow id="JF135376" begin="5300" fromJunction="J5" toJunction="J4" end="5360" vehsPerHour="26.939844109422516"/>
  <flow id="JF135377" begin="5300" fromJunction="J5" toJunction="J6" end="5360" vehsPerHour="22.150491439251134"/>
  <flow id="JF135378" begin="5300" fromJunction="J5" toJunction="J7" end="5360" vehsPerHour="52.67584135348769"/>
  <flow id="JF135379" begin="5300" fromJunction="J6" toJunction="J0" end="5360" vehsPerHour="57.97912226001898"/>
  <flow id="JF135380" begin="5300" fromJunction="J6" toJunction="J3" end="5360" vehsPerHour="23.066595070883135"/>
  <flow id="JF135381" begin="5300" fromJunction="J6" toJunction="J5" end="5360" vehsPerHour="17.415885901982126"/>
  <flow id="JF135382" begin="5300" fromJunction="J7" toJunction="J0" end="5360" vehsPerHour="32.37256133606138"/>
  <flow id="JF135383" begin="5300" fromJunction="J7" toJunction="J3" end="5360" vehsPerHour="36.375561200334005"/>
  <flow id="JF135384" begin="5300" fromJunction="J7" toJunction="J4" end="5360" vehsPerHour="2.035978157983888"/>
  <flow id="JF135385" begin="5300" fromJunction="J7" toJunction="J5" end="5360" vehsPerHour="49.413555142758355"/>
  <flow id="JF135386" begin="5300" fromJunction="J7" toJunction="J6" end="5360" vehsPerHour="8.11000495727148"/>
  <flow id="JF135387" begin="5360" fromJunction="J0" toJunction="J3" end="5420" vehsPerHour="117.92278246139072"/>
  <flow id="JF135388" begin="5360" fromJunction="J0" toJunction="J4" end="5420" vehsPerHour="20.9139537111974"/>
  <flow id="JF135389" begin="5360" fromJunction="J0" toJunction="J5" end="5420" vehsPerHour="127.96778685867648"/>
  <flow id="JF135390" begin="5360" fromJunction="J0" toJunction="J6" end="5420" vehsPerHour="29.894940261048678"/>
  <flow id="JF135391" begin="5360" fromJunction="J0" toJunction="J7" end="5420" vehsPerHour="24.054248264111788"/>
  <flow id="JF135392" begin="5360" fromJunction="J3" toJunction="J0" end="5420" vehsPerHour="74.65988656820771"/>
  <flow id="JF135393" begin="5360" fromJunction="J3" toJunction="J6" end="5420" vehsPerHour="123.38237104828393"/>
  <flow id="JF135394" begin="5360" fromJunction="J3" toJunction="J7" end="5420" vehsPerHour="82.42598715888937"/>
  <flow id="JF135395" begin="5360" fromJunction="J4" toJunction="J0" end="5420" vehsPerHour="3.472358022407544"/>
  <flow id="JF135396" begin="5360" fromJunction="J4" toJunction="J3" end="5420" vehsPerHour="34.72047400447644"/>
  <flow id="JF135397" begin="5360" fromJunction="J4" toJunction="J6" end="5420" vehsPerHour="39.71691294111838"/>
  <flow id="JF135398" begin="5360" fromJunction="J4" toJunction="J7" end="5420" vehsPerHour="16.972865135215958"/>
  <flow id="JF135399" begin="5360" fromJunction="J5" toJunction="J0" end="5420" vehsPerHour="52.104014746033634"/>
  <flow id="JF135400" begin="5360" fromJunction="J5" toJunction="J3" end="5420" vehsPerHour="27.1324701314181"/>
  <flow id="JF135401" begin="5360" fromJunction="J6" toJunction="J0" end="5420" vehsPerHour="6.686304066983028"/>
  <flow id="JF135402" begin="5360" fromJunction="J6" toJunction="J3" end="5420" vehsPerHour="15.398843131857117"/>
  <flow id="JF135403" begin="5360" fromJunction="J6" toJunction="J4" end="5420" vehsPerHour="4.074977308458181"/>
  <flow id="JF135404" begin="5360" fromJunction="J6" toJunction="J5" end="5420" vehsPerHour="56.7795882016496"/>
  <flow id="JF135405" begin="5360" fromJunction="J6" toJunction="J7" end="5420" vehsPerHour="19.101893870834623"/>
  <flow id="JF135406" begin="5360" fromJunction="J7" toJunction="J0" end="5420" vehsPerHour="47.25422010820804"/>
  <flow id="JF135407" begin="5360" fromJunction="J7" toJunction="J5" end="5420" vehsPerHour="51.533702790259795"/>
  <flow id="JF135408" begin="5360" fromJunction="J7" toJunction="J6" end="5420" vehsPerHour="4.969366660844311"/>
  <flow id="JF135409" begin="5420" fromJunction="J0" toJunction="J3" end="5480" vehsPerHour="132.9990756673854"/>
  <flow id="JF135410" begin="5420" fromJunction="J0" toJunction="J5" end="5480" vehsPerHour="132.75001666449185"/>
  <flow id="JF135411" begin="5420" fromJunction="J0" toJunction="J6" end="5480" vehsPerHour="25.369707684036626"/>
  <flow id="JF135412" begin="5420" fromJunction="J0" toJunction="J7" end="5480" vehsPerHour="60.157171826916574"/>
  <flow id="JF135413" begin="5420" fromJunction="J3" toJunction="J0" end="5480" vehsPerHour="134.67502652066648"/>
  <flow id="JF135414" begin="5420" fromJunction="J3" toJunction="J7" end="5480" vehsPerHour="71.49611436021655"/>
  <flow id="JF135415" begin="5420" fromJunction="J4" toJunction="J3" end="5480" vehsPerHour="62.20007457856538"/>
  <flow id="JF135416" begin="5420" fromJunction="J4" toJunction="J5" end="5480" vehsPerHour="67.1688262599588"/>
  <flow id="JF135417" begin="5420" fromJunction="J4" toJunction="J6" end="5480" vehsPerHour="41.33099573466563"/>
  <flow id="JF135418" begin="5420" fromJunction="J5" toJunction="J0" end="5480" vehsPerHour="50.04088757702543"/>
  <flow id="JF135419" begin="5420" fromJunction="J5" toJunction="J3" end="5480" vehsPerHour="59.8725646318348"/>
  <flow id="JF135420" begin="5420" fromJunction="J5" toJunction="J4" end="5480" vehsPerHour="66.37939801058792"/>
  <flow id="JF135421" begin="5420" fromJunction="J5" toJunction="J7" end="5480" vehsPerHour="14.29564638436689"/>
  <flow id="JF135422" begin="5420" fromJunction="J6" toJunction="J0" end="5480" vehsPerHour="36.33384609107568"/>
  <flow id="JF135423" begin="5420" fromJunction="J6" toJunction="J3" end="5480" vehsPerHour="33.23288598352893"/>
  <flow id="JF135424" begin="5420" fromJunction="J6" toJunction="J4" end="5480" vehsPerHour="2.4138275195330974"/>
  <flow id="JF135425" begin="5420" fromJunction="J6" toJunction="J5" end="5480" vehsPerHour="14.842025325749239"/>
  <flow id="JF135426" begin="5420" fromJunction="J6" toJunction="J7" end="5480" vehsPerHour="34.36445779474146"/>
  <flow id="JF135427" begin="5420" fromJunction="J7" toJunction="J4" end="5480" vehsPerHour="11.700670117524618"/>
  <flow id="JF135428" begin="5420" fromJunction="J7" toJunction="J5" end="5480" vehsPerHour="41.466711068117185"/>
  <flow id="JF135429" begin="5480" fromJunction="J0" toJunction="J3" end="5540" vehsPerHour="48.639343191715454"/>
  <flow id="JF135430" begin="5480" fromJunction="J0" toJunction="J5" end="5540" vehsPerHour="12.236793760723593"/>
  <flow id="JF135431" begin="5480" fromJunction="J0" toJunction="J6" end="5540" vehsPerHour="92.26468229665267"/>
  <flow id="JF135432" begin="5480" fromJunction="J0" toJunction="J7" end="5540" vehsPerHour="43.869126975655206"/>
  <flow id="JF135433" begin="5480" fromJunction="J3" toJunction="J5" end="5540" vehsPerHour="55.654617849235784"/>
  <flow id="JF135434" begin="5480" fromJunction="J3" toJunction="J6" end="5540" vehsPerHour="31.49625923627127"/>
  <flow id="JF135435" begin="5480" fromJunction="J3" toJunction="J7" end="5540" vehsPerHour="25.24751504092426"/>
  <flow id="JF135436" begin="5480" fromJunction="J4" toJunction="J0" end="5540" vehsPerHour="10.996898934007923"/>
  <flow id="JF135437" begin="5480" fromJunction="J4" toJunction="J5" end="5540" vehsPerHour="60.61849675144868"/>
  <flow id="JF135438" begin="5480" fromJunction="J4" toJunction="J6" end="5540" vehsPerHour="37.89308995977492"/>
  <flow id="JF135439" begin="5480" fromJunction="J5" toJunction="J0" end="5540" vehsPerHour="20.281270896615105"/>
  <flow id="JF135440" begin="5480" fromJunction="J5" toJunction="J3" end="5540" vehsPerHour="36.16603219052213"/>
  <flow id="JF135441" begin="5480" fromJunction="J5" toJunction="J4" end="5540" vehsPerHour="30.611326401309363"/>
  <flow id="JF135442" begin="5480" fromJunction="J5" toJunction="J6" end="5540" vehsPerHour="47.074817980997665"/>
  <flow id="JF135443" begin="5480" fromJunction="J5" toJunction="J7" end="5540" vehsPerHour="55.560809370541335"/>
  <flow id="JF135444" begin="5480" fromJunction="J6" toJunction="J3" end="5540" vehsPerHour="58.5368474091872"/>
  <flow id="JF135445" begin="5480" fromJunction="J6" toJunction="J4" end="5540" vehsPerHour="27.64107218595432"/>
  <flow id="JF135446" begin="5480" fromJunction="J6" toJunction="J7" end="5540" vehsPerHour="39.75562338194684"/>
  <flow id="JF135447" begin="5480" fromJunction="J7" toJunction="J4" end="5540" vehsPerHour="17.686170769352234"/>
  <flow id="JF135448" begin="5480" fromJunction="J7" toJunction="J6" end="5540" vehsPerHour="20.857001859759475"/>
  <flow id="JF135449" begin="5540" fromJunction="J0" toJunction="J4" end="5600" vehsPerHour="11.932296648840166"/>
  <flow id="JF135450" begin="5540" fromJunction="J0" toJunction="J6" end="5600" vehsPerHour="6.244215752784128"/>
  <flow id="JF135451" begin="5540" fromJunction="J0" toJunction="J7" end="5600" vehsPerHour="97.56928864251034"/>
  <flow id="JF135452" begin="5540" fromJunction="J3" toJunction="J0" end="5600" vehsPerHour="26.286178890104964"/>
  <flow id="JF135453" begin="5540" fromJunction="J3" toJunction="J4" end="5600" vehsPerHour="59.54307641174819"/>
  <flow id="JF135454" begin="5540" fromJunction="J3" toJunction="J5" end="5600" vehsPerHour="25.576707435207965"/>
  <flow id="JF135455" begin="5540" fromJunction="J3" toJunction="J7" end="5600" vehsPerHour="6.109363788924379"/>
  <flow id="JF135456" begin="5540" fromJunction="J4" toJunction="J0" end="5600" vehsPerHour="38.35719319025671"/>
  <flow id="JF135457" begin="5540" fromJunction="J4" toJunction="J5" end="5600" vehsPerHour="68.31256498864693"/>
  <flow id="JF135458" begin="5540" fromJunction="J4" toJunction="J7" end="5600" vehsPerHour="14.817632799452356"/>
  <flow id="JF135459" begin="5540" fromJunction="J5" toJunction="J0" end="5600" vehsPerHour="57.65186699214922"/>
  <flow id="JF135460" begin="5540" fromJunction="J5" toJunction="J3" end="5600" vehsPerHour="50.80853801915717"/>
  <flow id="JF135461" begin="5540" fromJunction="J5" toJunction="J4" end="5600" vehsPerHour="3.161879437475049"/>
  <flow id="JF135462" begin="5540" fromJunction="J5" toJunction="J7" end="5600" vehsPerHour="43.66965744972389"/>
  <flow id="JF135463" begin="5540" fromJunction="J6" toJunction="J0" end="5600" vehsPerHour="45.671675567077074"/>
  <flow id="JF135464" begin="5540" fromJunction="J6" toJunction="J3" end="5600" vehsPerHour="5.960769281516313"/>
  <flow id="JF135465" begin="5540" fromJunction="J6" toJunction="J4" end="5600" vehsPerHour="44.8855048983419"/>
  <flow id="JF135466" begin="5540" fromJunction="J7" toJunction="J3" end="5600" vehsPerHour="10.1367621517433"/>
  <flow id="JF135467" begin="5540" fromJunction="J7" toJunction="J5" end="5600" vehsPerHour="53.32326877565114"/>
  <flow id="JF135468" begin="5600" fromJunction="J0" toJunction="J3" end="5660" vehsPerHour="20.5533378517364"/>
  <flow id="JF135469" begin="5600" fromJunction="J0" toJunction="J5" end="5660" vehsPerHour="94.26272307525991"/>
  <flow id="JF135470" begin="5600" fromJunction="J0" toJunction="J6" end="5660" vehsPerHour="104.23543654130286"/>
  <flow id="JF135471" begin="5600" fromJunction="J0" toJunction="J7" end="5660" vehsPerHour="8.009734832210478"/>
  <flow id="JF135472" begin="5600" fromJunction="J3" toJunction="J0" end="5660" vehsPerHour="56.23399055126519"/>
  <flow id="JF135473" begin="5600" fromJunction="J3" toJunction="J4" end="5660" vehsPerHour="120.47605340922472"/>
  <flow id="JF135474" begin="5600" fromJunction="J3" toJunction="J5" end="5660" vehsPerHour="7.517176162311853"/>
  <flow id="JF135475" begin="5600" fromJunction="J4" toJunction="J3" end="5660" vehsPerHour="37.14275065997637"/>
  <flow id="JF135476" begin="5600" fromJunction="J4" toJunction="J6" end="5660" vehsPerHour="68.24701714834481"/>
  <flow id="JF135477" begin="5600" fromJunction="J5" toJunction="J3" end="5660" vehsPerHour="46.552512418955004"/>
  <flow id="JF135478" begin="5600" fromJunction="J5" toJunction="J4" end="5660" vehsPerHour="50.156634690832476"/>
  <flow id="JF135479" begin="5600" fromJunction="J5" toJunction="J6" end="5660" vehsPerHour="50.07777169888743"/>
  <flow id="JF135480" begin="5600" fromJunction="J5" toJunction="J7" end="5660" vehsPerHour="34.65459841321274"/>
  <flow id="JF135481" begin="5600" fromJunction="J6" toJunction="J4" end="5660" vehsPerHour="22.399818523434092"/>
  <flow id="JF135482" begin="5600" fromJunction="J6" toJunction="J5" end="5660" vehsPerHour="38.02268575767711"/>
  <flow id="JF135483" begin="5600" fromJunction="J6" toJunction="J7" end="5660" vehsPerHour="44.969855088845556"/>
  <flow id="JF135484" begin="5600" fromJunction="J7" toJunction="J0" end="5660" vehsPerHour="14.157974854516318"/>
  <flow id="JF135485" begin="5600" fromJunction="J7" toJunction="J3" end="5660" vehsPerHour="40.22981296126618"/>