<?xml version="1.0" encoding="UTF-8"?>
<routes xmlns:xsi="http://www.w3.org/2001/XMLSchema-instance" xsi:noNamespaceSchemaLocation="http://sumo.dlr.de/xsd/routes_file.xsd">
  <flow id="JF39808" begin="0" fromJunction="J0" toJunction="J3" end="60" vehsPerHour="67.55092889083645" departLane="free"/>
  <flow id="JF39809" begin="0" fromJunction="J0" toJunction="J4" end="60" vehsPerHour="68.53523952607719" departLane="free"/>
  <flow id="JF39810" begin="0" fromJunction="J0" toJunction="J5" end="60" vehsPerHour="52.65543195305395" departLane="free"/>
  <flow id="JF39811" begin="0" fromJunction="J0" toJunction="J6" end="60" vehsPerHour="118.85645027803952" departLane="free"/>
  <flow id="JF39812" begin="0" fromJunction="J3" toJunction="J0" end="60" vehsPerHour="78.11745013460619" departLane="free"/>
  <flow id="JF39813" begin="0" fromJunction="J3" toJunction="J4" end="60" vehsPerHour="13.329200770548384" departLane="free"/>
  <flow id="JF39814" begin="0" fromJunction="J3" toJunction="J5" end="60" vehsPerHour="103.49750167577486" departLane="free"/>
  <flow id="JF39815" begin="0" fromJunction="J3" toJunction="J6" end="60" vehsPerHour="60.452762739285184" departLane="free"/>
  <flow id="JF39816" begin="0" fromJunction="J3" toJunction="J7" end="60" vehsPerHour="113.84986537078318" departLane="free"/>
  <flow id="JF39817" begin="0" fromJunction="J4" toJunction="J0" end="60" vehsPerHour="16.157618209105607" departLane="free"/>
  <flow id="JF39818" begin="0" fromJunction="J4" toJunction="J3" end="60" vehsPerHour="65.39876025597778" departLane="free"/>
  <flow id="JF39819" begin="0" fromJunction="J4" toJunction="J5" end="60" vehsPerHour="57.735123790070546" departLane="free"/>
  <flow id="JF39820" begin="0" fromJunction="J4" toJunction="J7" end="60" vehsPerHour="13.504411170261434" departLane="free"/>
  <flow id="JF39821" begin="0" fromJunction="J5" toJunction="J0" end="60" vehsPerHour="4.326932992857186" departLane="free"/>
  <flow id="JF39822" begin="0" fromJunction="J5" toJunction="J3" end="60" vehsPerHour="16.261701706629914" departLane="free"/>
  <flow id="JF39823" begin="0" fromJunction="J5" toJunction="J4" end="60" vehsPerHour="51.56455396954849" departLane="free"/>
  <flow id="JF39824" begin="0" fromJunction="J5" toJunction="J6" end="60" vehsPerHour="25.901846677121988" departLane="free"/>
  <flow id="JF39825" begin="0" fromJunction="J6" toJunction="J3" end="60" vehsPerHour="11.85457152320038" departLane="free"/>
  <flow id="JF39826" begin="0" fromJunction="J6" toJunction="J5" end="60" vehsPerHour="43.96160056903546" departLane="free"/>
  <flow id="JF39827" begin="0" fromJunction="J6" toJunction="J7" end="60" vehsPerHour="66.62059267315622" departLane="free"/>
  <flow id="JF39828" begin="0" fromJunction="J7" toJunction="J3" end="60" vehsPerHour="60.748602670447035" departLane="free"/>
  <flow id="JF39829" begin="0" fromJunction="J7" toJunction="J4" end="60" vehsPerHour="32.03014545955068" departLane="free"/>
  <flow id="JF39830" begin="0" fromJunction="J7" toJunction="J6" end="60" vehsPerHour="9.56364783513443" departLane="free"/>
  <flow id="JF39831" begin="60" fromJunction="J0" toJunction="J3" end="120" vehsPerHour="130.18053980318618" departLane="free"/>
  <flow id="JF39832" begin="60" fromJunction="J0" toJunction="J4" end="120" vehsPerHour="116.08761276027595" departLane="free"/>
  <flow id="JF39833" begin="60" fromJunction="J0" toJunction="J7" end="120" vehsPerHour="127.80161279979995" departLane="free"/>
  <flow id="JF39834" begin="60" fromJunction="J3" toJunction="J0" end="120" vehsPerHour="10.323559623375537" departLane="free"/>
  <flow id="JF39835" begin="60" fromJunction="J3" toJunction="J5" end="120" vehsPerHour="130.32574459126516" departLane="free"/>
  <flow id="JF39836" begin="60" fromJunction="J3" toJunction="J6" end="120" vehsPerHour="87.78116448257612" departLane="free"/>
  <flow id="JF39837" begin="60" fromJunction="J4" toJunction="J0" end="120" vehsPerHour="63.41297020465818" departLane="free"/>
  <flow id="JF39838" begin="60" fromJunction="J4" toJunction="J3" end="120" vehsPerHour="48.8568216641242" departLane="free"/>
  <flow id="JF39839" begin="60" fromJunction="J4" toJunction="J5" end="120" vehsPerHour="1.9958597067720656" departLane="free"/>
  <flow id="JF39840" begin="60" fromJunction="J4" toJunction="J6" end="120" vehsPerHour="13.179114595117786" departLane="free"/>
  <flow id="JF39841" begin="60" fromJunction="J4" toJunction="J7" end="120" vehsPerHour="32.21317752486243" departLane="free"/>
  <flow id="JF39842" begin="60" fromJunction="J5" toJunction="J0" end="120" vehsPerHour="58.18209282484462" departLane="free"/>
  <flow id="JF39843" begin="60" fromJunction="J5" toJunction="J3" end="120" vehsPerHour="13.403716471427865" departLane="free"/>
  <flow id="JF39844" begin="60" fromJunction="J5" toJunction="J4" end="120" vehsPerHour="9.497753330157437" departLane="free"/>
  <flow id="JF39845" begin="60" fromJunction="J5" toJunction="J6" end="120" vehsPerHour="7.245727408066654" departLane="free"/>
  <flow id="JF39846" begin="60" fromJunction="J5" toJunction="J7" end="120" vehsPerHour="1.012252543837957" departLane="free"/>
  <flow id="JF39847" begin="60" fromJunction="J6" toJunction="J0" end="120" vehsPerHour="46.50732852045413" departLane="free"/>
  <flow id="JF39848" begin="60" fromJunction="J6" toJunction="J3" end="120" vehsPerHour="51.243300001331896" departLane="free"/>
  <flow id="JF39849" begin="60" fromJunction="J6" toJunction="J4" end="120" vehsPerHour="5.356870377568079" departLane="free"/>
  <flow id="JF39850" begin="60" fromJunction="J6" toJunction="J5" end="120" vehsPerHour="51.38199618024219" departLane="free"/>
  <flow id="JF39851" begin="60" fromJunction="J6" toJunction="J7" end="120" vehsPerHour="56.982287410251566" departLane="free"/>
  <flow id="JF39852" begin="60" fromJunction="J7" toJunction="J0" end="120" vehsPerHour="63.41340808073963" departLane="free"/>
  <flow id="JF39853" begin="60" fromJunction="J7" toJunction="J3" end="120" vehsPerHour="10.331927273479375" departLane="free"/>
  <flow id="JF39854" begin="60" fromJunction="J7" toJunction="J4" end="120" vehsPerHour="21.892153096244094" departLane="free"/>
  <flow id="JF39855" begin="60" fromJunction="J7" toJunction="J6" end="120" vehsPerHour="25.897575815896758" departLane="free"/>
  <flow id="JF39856" begin="120" fromJunction="J0" toJunction="J3" end="180" vehsPerHour="40.99055872510397" departLane="free"/>
  <flow id="JF39857" begin="120" fromJunction="J0" toJunction="J4" end="180" vehsPerHour="37.46911879705778" departLane="free"/>
  <flow id="JF39858" begin="120" fromJunction="J0" toJunction="J5" end="180" vehsPerHour="57.880852774611924" departLane="free"/>
  <flow id="JF39859" begin="120" fromJunction="J0" toJunction="J7" end="180" vehsPerHour="113.00728029841478" departLane="free"/>
  <flow id="JF39860" begin="120" fromJunction="J3" toJunction="J4" end="180" vehsPerHour="24.012112551673084" departLane="free"/>
  <flow id="JF39861" begin="120" fromJunction="J3" toJunction="J5" end="180" vehsPerHour="64.55779009135794" departLane="free"/>
  <flow id="JF39862" begin="120" fromJunction="J3" toJunction="J6" end="180" vehsPerHour="106.26986375349338" departLane="free"/>
  <flow id="JF39863" begin="120" fromJunction="J3" toJunction="J7" end="180" vehsPerHour="130.28407016916267" departLane="free"/>
  <flow id="JF39864" begin="120" fromJunction="J4" toJunction="J0" end="180" vehsPerHour="28.252647397322892" departLane="free"/>
  <flow id="JF39865" begin="120" fromJunction="J4" toJunction="J3" end="180" vehsPerHour="9.762554867910827" departLane="free"/>
  <flow id="JF39866" begin="120" fromJunction="J4" toJunction="J5" end="180" vehsPerHour="52.020988869819114" departLane="free"/>
  <flow id="JF39867" begin="120" fromJunction="J4" toJunction="J6" end="180" vehsPerHour="62.92833240360668" departLane="free"/>
  <flow id="JF39868" begin="120" fromJunction="J4" toJunction="J7" end="180" vehsPerHour="14.035631987419649" departLane="free"/>
  <flow id="JF39869" begin="120" fromJunction="J5" toJunction="J0" end="180" vehsPerHour="59.8462624886337" departLane="free"/>
  <flow id="JF39870" begin="120" fromJunction="J5" toJunction="J3" end="180" vehsPerHour="49.92858854984939" departLane="free"/>
  <flow id="JF39871" begin="120" fromJunction="J5" toJunction="J4" end="180" vehsPerHour="13.417295204644663" departLane="free"/>
  <flow id="JF39872" begin="120" fromJunction="J5" toJunction="J6" end="180" vehsPerHour="62.6547383054488" departLane="free"/>
  <flow id="JF39873" begin="120" fromJunction="J5" toJunction="J7" end="180" vehsPerHour="36.65572764066232" departLane="free"/>
  <flow id="JF39874" begin="120" fromJunction="J6" toJunction="J0" end="180" vehsPerHour="23.060053843938764" departLane="free"/>
  <flow id="JF39875" begin="120" fromJunction="J6" toJunction="J3" end="180" vehsPerHour="38.9905344309035" departLane="free"/>
  <flow id="JF39876" begin="120" fromJunction="J6" toJunction="J5" end="180" vehsPerHour="43.85154476134677" departLane="free"/>
  <flow id="JF39877" begin="120" fromJunction="J6" toJunction="J7" end="180" vehsPerHour="53.05403779739959" departLane="free"/>
  <flow id="JF39878" begin="120" fromJunction="J7" toJunction="J4" end="180" vehsPerHour="26.284688216547238" departLane="free"/>
  <flow id="JF39879" begin="120" fromJunction="J7" toJunction="J5" end="180" vehsPerHour="36.33957825004605" departLane="free"/>
  <flow id="JF39880" begin="120" fromJunction="J7" toJunction="J6" end="180" vehsPerHour="49.12616963932721" departLane="free"/>
  <flow id="JF39881" begin="180" fromJunction="J0" toJunction="J3" end="240" vehsPerHour="131.63590225199013" departLane="free"/>
  <flow id="JF39882" begin="180" fromJunction="J0" toJunction="J4" end="240" vehsPerHour="126.1261954161941" departLane="free"/>
  <flow id="JF39883" begin="180" fromJunction="J0" toJunction="J6" end="240" vehsPerHour="67.37390780613205" departLane="free"/>
  <flow id="JF39884" begin="180" fromJunction="J0" toJunction="J7" end="240" vehsPerHour="132.74020081353066" departLane="free"/>
  <flow id="JF39885" begin="180" fromJunction="J3" toJunction="J4" end="240" vehsPerHour="117.71586658809586" departLane="free"/>
  <flow id="JF39886" begin="180" fromJunction="J3" toJunction="J5" end="240" vehsPerHour="67.05126280787135" departLane="free"/>
  <flow id="JF39887" begin="180" fromJunction="J3" toJunction="J6" end="240" vehsPerHour="1.209526355299637" departLane="free"/>
  <flow id="JF39888" begin="180" fromJunction="J3" toJunction="J7" end="240" vehsPerHour="32.01120929688208" departLane="free"/>
  <flow id="JF39889" begin="180" fromJunction="J4" toJunction="J0" end="240" vehsPerHour="54.28492633877323" departLane="free"/>
  <flow id="JF39890" begin="180" fromJunction="J4" toJunction="J3" end="240" vehsPerHour="31.65142537429321" departLane="free"/>
  <flow id="JF39891" begin="180" fromJunction="J5" toJunction="J0" end="240" vehsPerHour="40.79713711181543" departLane="free"/>
  <flow id="JF39892" begin="180" fromJunction="J5" toJunction="J3" end="240" vehsPerHour="29.808129499199335" departLane="free"/>
  <flow id="JF39893" begin="180" fromJunction="J5" toJunction="J6" end="240" vehsPerHour="55.83306850200723" departLane="free"/>
  <flow id="JF39894" begin="180" fromJunction="J5" toJunction="J7" end="240" vehsPerHour="30.780314129815658" departLane="free"/>
  <flow id="JF39895" begin="180" fromJunction="J6" toJunction="J0" end="240" vehsPerHour="43.42674126212126" departLane="free"/>
  <flow id="JF39896" begin="180" fromJunction="J6" toJunction="J4" end="240" vehsPerHour="21.621369285857014" departLane="free"/>
  <flow id="JF39897" begin="180" fromJunction="J7" toJunction="J3" end="240" vehsPerHour="2.833342693423201" departLane="free"/>
  <flow id="JF39898" begin="180" fromJunction="J7" toJunction="J4" end="240" vehsPerHour="48.45072646446954" departLane="free"/>
  <flow id="JF39899" begin="240" fromJunction="J0" toJunction="J4" end="300" vehsPerHour="21.746884844031833" departLane="free"/>
  <flow id="JF39900" begin="240" fromJunction="J0" toJunction="J5" end="300" vehsPerHour="3.6782614184265667" departLane="free"/>
  <flow id="JF39901" begin="240" fromJunction="J3" toJunction="J0" end="300" vehsPerHour="25.59660103850399" departLane="free"/>
  <flow id="JF39902" begin="240" fromJunction="J3" toJunction="J4" end="300" vehsPerHour="8.845296887055996" departLane="free"/>
  <flow id="JF39903" begin="240" fromJunction="J3" toJunction="J5" end="300" vehsPerHour="75.8211621736767" departLane="free"/>
  <flow id="JF39904" begin="240" fromJunction="J3" toJunction="J6" end="300" vehsPerHour="48.6454430534956" departLane="free"/>
  <flow id="JF39905" begin="240" fromJunction="J4" toJunction="J5" end="300" vehsPerHour="37.65732224813905" departLane="free"/>
  <flow id="JF39906" begin="240" fromJunction="J4" toJunction="J6" end="300" vehsPerHour="33.71433979992693" departLane="free"/>
  <flow id="JF39907" begin="240" fromJunction="J4" toJunction="J7" end="300" vehsPerHour="58.088567256862966" departLane="free"/>
  <flow id="JF39908" begin="240" fromJunction="J5" toJunction="J0" end="300" vehsPerHour="15.32186849171643" departLane="free"/>
  <flow id="JF39909" begin="240" fromJunction="J5" toJunction="J3" end="300" vehsPerHour="46.2424010467009" departLane="free"/>
  <flow id="JF39910" begin="240" fromJunction="J5" toJunction="J6" end="300" vehsPerHour="25.856200138658334" departLane="free"/>
  <flow id="JF39911" begin="240" fromJunction="J6" toJunction="J0" end="300" vehsPerHour="2.7096149759174604" departLane="free"/>
  <flow id="JF39912" begin="240" fromJunction="J6" toJunction="J3" end="300" vehsPerHour="26.34279294859091" departLane="free"/>
  <flow id="JF39913" begin="240" fromJunction="J6" toJunction="J4" end="300" vehsPerHour="65.16825403962541" departLane="free"/>
  <flow id="JF39914" begin="240" fromJunction="J6" toJunction="J7" end="300" vehsPerHour="24.34582929172265" departLane="free"/>
  <flow id="JF39915" begin="240" fromJunction="J7" toJunction="J0" end="300" vehsPerHour="57.28827708596352" departLane="free"/>
  <flow id="JF39916" begin="240" fromJunction="J7" toJunction="J3" end="300" vehsPerHour="30.770313119022056" departLane="free"/>
  <flow id="JF39917" begin="240" fromJunction="J7" toJunction="J4" end="300" vehsPerHour="49.36593252928056" departLane="free"/>
  <flow id="JF39918" begin="240" fromJunction="J7" toJunction="J5" end="300" vehsPerHour="68.65569378292105" departLane="free"/>
  <flow id="JF39919" begin="300" fromJunction="J0" toJunction="J4" end="360" vehsPerHour="41.480347422423534" departLane="free"/>
  <flow id="JF39920" begin="300" fromJunction="J0" toJunction="J6" end="360" vehsPerHour="0.13868407884053585" departLane="free"/>
  <flow id="JF39921" begin="300" fromJunction="J0" toJunction="J7" end="360" vehsPerHour="112.19402788596855" departLane="free"/>
  <flow id="JF39922" begin="300" fromJunction="J3" toJunction="J4" end="360" vehsPerHour="28.080947285916555" departLane="free"/>
  <flow id="JF39923" begin="300" fromJunction="J3" toJunction="J5" end="360" vehsPerHour="134.78650089565843" departLane="free"/>
  <flow id="JF39924" begin="300" fromJunction="J4" toJunction="J0" end="360" vehsPerHour="39.805131756986626" departLane="free"/>
  <flow id="JF39925" begin="300" fromJunction="J4" toJunction="J3" end="360" vehsPerHour="25.185618286970833" departLane="free"/>
  <flow id="JF39926" begin="300" fromJunction="J4" toJunction="J5" end="360" vehsPerHour="21.06483167641934" departLane="free"/>
  <flow id="JF39927" begin="300" fromJunction="J5" toJunction="J0" end="360" vehsPerHour="41.44774606161021" departLane="free"/>
  <flow id="JF39928" begin="300" fromJunction="J5" toJunction="J3" end="360" vehsPerHour="53.080781410417856" departLane="free"/>
  <flow id="JF39929" begin="300" fromJunction="J5" toJunction="J4" end="360" vehsPerHour="7.19995796408304" departLane="free"/>
  <flow id="JF39930" begin="300" fromJunction="J5" toJunction="J7" end="360" vehsPerHour="39.87039418361906" departLane="free"/>
  <flow id="JF39931" begin="300" fromJunction="J6" toJunction="J0" end="360" vehsPerHour="47.67453273536211" departLane="free"/>
  <flow id="JF39932" begin="300" fromJunction="J6" toJunction="J3" end="360" vehsPerHour="21.594130293571734" departLane="free"/>
  <flow id="JF39933" begin="300" fromJunction="J6" toJunction="J4" end="360" vehsPerHour="6.834568534311637" departLane="free"/>
  <flow id="JF39934" begin="300" fromJunction="J6" toJunction="J7" end="360" vehsPerHour="40.91655639657194" departLane="free"/>
  <flow id="JF39935" begin="300" fromJunction="J7" toJunction="J0" end="360" vehsPerHour="65.48785296893831" departLane="free"/>
  <flow id="JF39936" begin="300" fromJunction="J7" toJunction="J3" end="360" vehsPerHour="18.75011635465727" departLane="free"/>
  <flow id="JF39937" begin="300" fromJunction="J7" toJunction="J4" end="360" vehsPerHour="44.278660009801484" departLane="free"/>
  <flow id="JF39938" begin="300" fromJunction="J7" toJunction="J5" end="360" vehsPerHour="50.202450350039975" departLane="free"/>
  <flow id="JF39939" begin="300" fromJunction="J7" toJunction="J6" end="360" vehsPerHour="49.98632214770187" departLane="free"/>
  <flow id="JF39940" begin="360" fromJunction="J0" toJunction="J3" end="420" vehsPerHour="41.482874232595336" departLane="free"/>
  <flow id="JF39941" begin="360" fromJunction="J0" toJunction="J4" end="420" vehsPerHour="115.55265835216456" departLane="free"/>
  <flow id="JF39942" begin="360" fromJunction="J0" toJunction="J5" end="420" vehsPerHour="36.614872876350134" departLane="free"/>
  <flow id="JF39943" begin="360" fromJunction="J0" toJunction="J6" end="420" vehsPerHour="78.64957118072614" departLane="free"/>
  <flow id="JF39944" begin="360" fromJunction="J0" toJunction="J7" end="420" vehsPerHour="63.986277002466025" departLane="free"/>
  <flow id="JF39945" begin="360" fromJunction="J3" toJunction="J0" end="420" vehsPerHour="130.52591568127588" departLane="free"/>
  <flow id="JF39946" begin="360" fromJunction="J3" toJunction="J4" end="420" vehsPerHour="46.48007102560943" departLane="free"/>
  <flow id="JF39947" begin="360" fromJunction="J4" toJunction="J0" end="420" vehsPerHour="4.402139190680797" departLane="free"/>
  <flow id="JF39948" begin="360" fromJunction="J4" toJunction="J3" end="420" vehsPerHour="17.4361425352783" departLane="free"/>
  <flow id="JF39949" begin="360" fromJunction="J4" toJunction="J7" end="420" vehsPerHour="5.456810724583123" departLane="free"/>
  <flow id="JF39950" begin="360" fromJunction="J5" toJunction="J4" end="420" vehsPerHour="26.255346425143355" departLane="free"/>
  <flow id="JF39951" begin="360" fromJunction="J5" toJunction="J6" end="420" vehsPerHour="0.8274409370799899" departLane="free"/>
  <flow id="JF39952" begin="360" fromJunction="J5" toJunction="J7" end="420" vehsPerHour="66.49014363899303" departLane="free"/>
  <flow id="JF39953" begin="360" fromJunction="J6" toJunction="J0" end="420" vehsPerHour="7.538023911550493" departLane="free"/>
  <flow id="JF39954" begin="360" fromJunction="J6" toJunction="J3" end="420" vehsPerHour="18.570546821794274" departLane="free"/>
  <flow id="JF39955" begin="360" fromJunction="J6" toJunction="J5" end="420" vehsPerHour="44.361430008734004" departLane="free"/>
  <flow id="JF39956" begin="360" fromJunction="J6" toJunction="J7" end="420" vehsPerHour="23.2174393237653" departLane="free"/>
  <flow id="JF39957" begin="360" fromJunction="J7" toJunction="J5" end="420" vehsPerHour="8.958874253944199" departLane="free"/>
  <flow id="JF39958" begin="360" fromJunction="J7" toJunction="J6" end="420" vehsPerHour="54.943544789212815" departLane="free"/>
  <flow id="JF39959" begin="420" fromJunction="J0" toJunction="J3" end="480" vehsPerHour="64.69704426190553" departLane="free"/>
  <flow id="JF39960" begin="420" fromJunction="J0" toJunction="J5" end="480" vehsPerHour="43.10734462036494" departLane="free"/>
  <flow id="JF39961" begin="420" fromJunction="J0" toJunction="J6" end="480" vehsPerHour="103.05963916262515" departLane="free"/>
  <flow id="JF39962" begin="420" fromJunction="J0" toJunction="J7" end="480" vehsPerHour="111.82053835465831" departLane="free"/>
  <flow id="JF39963" begin="420" fromJunction="J3" toJunction="J0" end="480" vehsPerHour="86.53790301897922" departLane="free"/>
  <flow id="JF39964" begin="420" fromJunction="J3" toJunction="J4" end="480" vehsPerHour="11.357478335601648" departLane="free"/>
  <flow id="JF39965" begin="420" fromJunction="J3" toJunction="J6" end="480" vehsPerHour="77.84213408484001" departLane="free"/>
  <flow id="JF39966" begin="420" fromJunction="J3" toJunction="J7" end="480" vehsPerHour="128.60673568887057" departLane="free"/>
  <flow id="JF39967" begin="420" fromJunction="J4" toJunction="J0" end="480" vehsPerHour="4.2298665321145315" departLane="free"/>
  <flow id="JF39968" begin="420" fromJunction="J4" toJunction="J5" end="480" vehsPerHour="32.25704866376874" departLane="free"/>
  <flow id="JF39969" begin="420" fromJunction="J4" toJunction="J6" end="480" vehsPerHour="1.3443301361982023" departLane="free"/>
  <flow id="JF39970" begin="420" fromJunction="J5" toJunction="J0" end="480" vehsPerHour="48.45746350390771" departLane="free"/>
  <flow id="JF39971" begin="420" fromJunction="J5" toJunction="J3" end="480" vehsPerHour="30.875437728438794" departLane="free"/>
  <flow id="JF39972" begin="420" fromJunction="J5" toJunction="J6" end="480" vehsPerHour="46.76291796832478" departLane="free"/>
  <flow id="JF39973" begin="420" fromJunction="J5" toJunction="J7" end="480" vehsPerHour="28.586978938623734" departLane="free"/>
  <flow id="JF39974" begin="420" fromJunction="J6" toJunction="J3" end="480" vehsPerHour="13.94181736110557" departLane="free"/>
  <flow id="JF39975" begin="420" fromJunction="J6" toJunction="J7" end="480" vehsPerHour="9.968906562380372" departLane="free"/>
  <flow id="JF39976" begin="420" fromJunction="J7" toJunction="J5" end="480" vehsPerHour="32.64088393677726" departLane="free"/>
  <flow id="JF39977" begin="480" fromJunction="J0" toJunction="J3" end="540" vehsPerHour="52.828616920373044" departLane="free"/>
  <flow id="JF39978" begin="480" fromJunction="J0" toJunction="J4" end="540" vehsPerHour="62.365783898037456" departLane="free"/>
  <flow id="JF39979" begin="480" fromJunction="J0" toJunction="J6" end="540" vehsPerHour="44.46140168581852" departLane="free"/>
  <flow id="JF39980" begin="480" fromJunction="J0" toJunction="J7" end="540" vehsPerHour="50.62034761534268" departLane="free"/>
  <flow id="JF39981" begin="480" fromJunction="J3" toJunction="J0" end="540" vehsPerHour="77.42883135204016" departLane="free"/>
  <flow id="JF39982" begin="480" fromJunction="J3" toJunction="J4" end="540" vehsPerHour="94.70768803781502" departLane="free"/>
  <flow id="JF39983" begin="480" fromJunction="J3" toJunction="J6" end="540" vehsPerHour="128.0928161764448" departLane="free"/>
  <flow id="JF39984" begin="480" fromJunction="J3" toJunction="J7" end="540" vehsPerHour="30.366565028379373" departLane="free"/>
  <flow id="JF39985" begin="480" fromJunction="J4" toJunction="J0" end="540" vehsPerHour="61.56183285922634" departLane="free"/>
  <flow id="JF39986" begin="480" fromJunction="J4" toJunction="J3" end="540" vehsPerHour="22.92294257540455" departLane="free"/>
  <flow id="JF39987" begin="480" fromJunction="J4" toJunction="J5" end="540" vehsPerHour="15.161439777163187" departLane="free"/>
  <flow id="JF39988" begin="480" fromJunction="J4" toJunction="J7" end="540" vehsPerHour="9.123609585249639" departLane="free"/>
  <flow id="JF39989" begin="480" fromJunction="J5" toJunction="J3" end="540" vehsPerHour="27.158415501209916" departLane="free"/>
  <flow id="JF39990" begin="480" fromJunction="J5" toJunction="J6" end="540" vehsPerHour="35.368067155084084" departLane="free"/>
  <flow id="JF39991" begin="480" fromJunction="J5" toJunction="J7" end="540" vehsPerHour="21.032273160324248" departLane="free"/>
  <flow id="JF39992" begin="480" fromJunction="J6" toJunction="J4" end="540" vehsPerHour="37.75019871476149" departLane="free"/>
  <flow id="JF39993" begin="480" fromJunction="J6" toJunction="J5" end="540" vehsPerHour="7.264861503084075" departLane="free"/>
  <flow id="JF39994" begin="480" fromJunction="J6" toJunction="J7" end="540" vehsPerHour="47.669946022255814" departLane="free"/>
  <flow id="JF39995" begin="540" fromJunction="J0" toJunction="J3" end="600" vehsPerHour="80.36296285678405" departLane="free"/>
  <flow id="JF39996" begin="540" fromJunction="J0" toJunction="J5" end="600" vehsPerHour="102.38648855270306" departLane="free"/>
  <flow id="JF39997" begin="540" fromJunction="J0" toJunction="J6" end="600" vehsPerHour="80.36894016878118" departLane="free"/>
  <flow id="JF39998" begin="540" fromJunction="J0" toJunction="J7" end="600" vehsPerHour="35.93045992393809" departLane="free"/>
  <flow id="JF39999" begin="540" fromJunction="J3" toJunction="J0" end="600" vehsPerHour="131.43673340525788" departLane="free"/>
  <flow id="JF40000" begin="540" fromJunction="J3" toJunction="J4" end="600" vehsPerHour="119.10457059860846" departLane="free"/>
  <flow id="JF40001" begin="540" fromJunction="J3" toJunction="J6" end="600" vehsPerHour="111.37067893905605" departLane="free"/>
  <flow id="JF40002" begin="540" fromJunction="J3" toJunction="J7" end="600" vehsPerHour="118.74402942864138" departLane="free"/>
  <flow id="JF40003" begin="540" fromJunction="J4" toJunction="J0" end="600" vehsPerHour="5.005071715154569" departLane="free"/>
  <flow id="JF40004" begin="540" fromJunction="J4" toJunction="J3" end="600" vehsPerHour="33.289211472840286" departLane="free"/>
  <flow id="JF40005" begin="540" fromJunction="J4" toJunction="J6" end="600" vehsPerHour="64.16356279952733" departLane="free"/>
  <flow id="JF40006" begin="540" fromJunction="J4" toJunction="J7" end="600" vehsPerHour="29.711965764865443" departLane="free"/>
  <flow id="JF40007" begin="540" fromJunction="J5" toJunction="J0" end="600" vehsPerHour="37.34867119759516" departLane="free"/>
  <flow id="JF40008" begin="540" fromJunction="J5" toJunction="J3" end="600" vehsPerHour="44.89643910150696" departLane="free"/>
  <flow id="JF40009" begin="540" fromJunction="J5" toJunction="J4" end="600" vehsPerHour="23.72454239516159" departLane="free"/>
  <flow id="JF40010" begin="540" fromJunction="J5" toJunction="J6" end="600" vehsPerHour="19.885186505722633" departLane="free"/>
  <flow id="JF40011" begin="540" fromJunction="J5" toJunction="J7" end="600" vehsPerHour="34.213710488362906" departLane="free"/>
  <flow id="JF40012" begin="540" fromJunction="J6" toJunction="J0" end="600" vehsPerHour="6.253712789576475" departLane="free"/>
  <flow id="JF40013" begin="540" fromJunction="J6" toJunction="J3" end="600" vehsPerHour="62.36893292090846" departLane="free"/>
  <flow id="JF40014" begin="540" fromJunction="J6" toJunction="J5" end="600" vehsPerHour="61.62690879176429" departLane="free"/>
  <flow id="JF40015" begin="540" fromJunction="J6" toJunction="J7" end="600" vehsPerHour="59.02290649256999" departLane="free"/>
  <flow id="JF40016" begin="540" fromJunction="J7" toJunction="J0" end="600" vehsPerHour="10.997788987855998" departLane="free"/>
  <flow id="JF40017" begin="540" fromJunction="J7" toJunction="J3" end="600" vehsPerHour="50.239375742694854" departLane="free"/>
  <flow id="JF40018" begin="540" fromJunction="J7" toJunction="J4" end="600" vehsPerHour="3.1040700387005353" departLane="free"/>
  <flow id="JF40019" begin="600" fromJunction="J0" toJunction="J3" end="660" vehsPerHour="14.520743187657283" departLane="free"/>
  <flow id="JF40020" begin="600" fromJunction="J0" toJunction="J4" end="660" vehsPerHour="43.740693726446494" departLane="free"/>
  <flow id="JF40021" begin="600" fromJunction="J0" toJunction="J6" end="660" vehsPerHour="17.515467561158232" departLane="free"/>
  <flow id="JF40022" begin="600" fromJunction="J3" toJunction="J4" end="660" vehsPerHour="14.677093603929645" departLane="free"/>
  <flow id="JF40023" begin="600" fromJunction="J3" toJunction="J5" end="660" vehsPerHour="16.45702438984616" departLane="free"/>
  <flow id="JF40024" begin="600" fromJunction="J3" toJunction="J6" end="660" vehsPerHour="136.9897529468226" departLane="free"/>
  <flow id="JF40025" begin="600" fromJunction="J3" toJunction="J7" end="660" vehsPerHour="32.07646805241683" departLane="free"/>
  <flow id="JF40026" begin="600" fromJunction="J4" toJunction="J0" end="660" vehsPerHour="16.99531721481188" departLane="free"/>
  <flow id="JF40027" begin="600" fromJunction="J4" toJunction="J3" end="660" vehsPerHour="58.51509065626395" departLane="free"/>
  <flow id="JF40028" begin="600" fromJunction="J4" toJunction="J7" end="660" vehsPerHour="51.48064552161127" departLane="free"/>
  <flow id="JF40029" begin="600" fromJunction="J5" toJunction="J0" end="660" vehsPerHour="22.654415057813498" departLane="free"/>
  <flow id="JF40030" begin="600" fromJunction="J5" toJunction="J3" end="660" vehsPerHour="50.519301986833106" departLane="free"/>
  <flow id="JF40031" begin="600" fromJunction="J5" toJunction="J4" end="660" vehsPerHour="24.653386837800277" departLane="free"/>
  <flow id="JF40032" begin="600" fromJunction="J5" toJunction="J7" end="660" vehsPerHour="26.405918974509852" departLane="free"/>
  <flow id="JF40033" begin="600" fromJunction="J6" toJunction="J4" end="660" vehsPerHour="7.757856262070851" departLane="free"/>
  <flow id="JF40034" begin="600" fromJunction="J6" toJunction="J5" end="660" vehsPerHour="59.70130418702369" departLane="free"/>
  <flow id="JF40035" begin="600" fromJunction="J6" toJunction="J7" end="660" vehsPerHour="60.43314461050455" departLane="free"/>
  <flow id="JF40036" begin="600" fromJunction="J7" toJunction="J0" end="660" vehsPerHour="51.11483684495181" departLane="free"/>
  <flow id="JF40037" begin="600" fromJunction="J7" toJunction="J5" end="660" vehsPerHour="46.41179969668362" departLane="free"/>
  <flow id="JF40038" begin="660" fromJunction="J0" toJunction="J4" end="720" vehsPerHour="5.3398513840920225" departLane="free"/>