<?xml version="1.0" encoding="UTF-8"?>
<routes xmlns:xsi="http://www.w3.org/2001/XMLSchema-instance" xsi:noNamespaceSchemaLocation="http://sumo.dlr.de/xsd/routes_file.xsd">
  <flow id="JF200657" begin="0" fromJunction="J0" toJunction="J7" end="60" vehsPerHour="54.918628040284105" departLane="free"/>
  <flow id="JF200658" begin="0" fromJunction="J3" toJunction="J0" end="60" vehsPerHour="65.44776749145664" departLane="free"/>
  <flow id="JF200659" begin="0" fromJunction="J3" toJunction="J4" end="60" vehsPerHour="97.10928459894761" departLane="free"/>
  <flow id="JF200660" begin="0" fromJunction="J3" toJunction="J5" end="60" vehsPerHour="118.1285756309057" departLane="free"/>
  <flow id="JF200661" begin="0" fromJunction="J3" toJunction="J6" end="60" vehsPerHour="82.91862407749015" departLane="free"/>
  <flow id="JF200662" begin="0" fromJunction="J4" toJunction="J3" end="60" vehsPerHour="62.99674265792655" departLane="free"/>
  <flow id="JF200663" begin="0" fromJunction="J4" toJunction="J5" end="60" vehsPerHour="10.241562569108728" departLane="free"/>
  <flow id="JF200664" begin="0" fromJunction="J4" toJunction="J6" end="60" vehsPerHour="43.824078074615066" departLane="free"/>
  <flow id="JF200665" begin="0" fromJunction="J4" toJunction="J7" end="60" vehsPerHour="7.970917756900971" departLane="free"/>
  <flow id="JF200666" begin="0" fromJunction="J5" toJunction="J0" end="60" vehsPerHour="4.147953266729747" departLane="free"/>
  <flow id="JF200667" begin="0" fromJunction="J5" toJunction="J3" end="60" vehsPerHour="53.53295512065568" departLane="free"/>
  <flow id="JF200668" begin="0" fromJunction="J5" toJunction="J4" end="60" vehsPerHour="44.91235064380189" departLane="free"/>
  <flow id="JF200669" begin="0" fromJunction="J5" toJunction="J6" end="60" vehsPerHour="13.926631983913751" departLane="free"/>
  <flow id="JF200670" begin="0" fromJunction="J5" toJunction="J7" end="60" vehsPerHour="26.9253102845404" departLane="free"/>
  <flow id="JF200671" begin="0" fromJunction="J6" toJunction="J0" end="60" vehsPerHour="29.670131892119205" departLane="free"/>
  <flow id="JF200672" begin="0" fromJunction="J6" toJunction="J3" end="60" vehsPerHour="14.019899729057189" departLane="free"/>
  <flow id="JF200673" begin="0" fromJunction="J6" toJunction="J4" end="60" vehsPerHour="17.977104802729517" departLane="free"/>
  <flow id="JF200674" begin="0" fromJunction="J6" toJunction="J5" end="60" vehsPerHour="20.714669282767925" departLane="free"/>
  <flow id="JF200675" begin="0" fromJunction="J6" toJunction="J7" end="60" vehsPerHour="13.918699168646416" departLane="free"/>
  <flow id="JF200676" begin="0" fromJunction="J7" toJunction="J0" end="60" vehsPerHour="68.14496782465741" departLane="free"/>
  <flow id="JF200677" begin="0" fromJunction="J7" toJunction="J4" end="60" vehsPerHour="46.879027775823985" departLane="free"/>
  <flow id="JF200678" begin="0" fromJunction="J7" toJunction="J5" end="60" vehsPerHour="27.833568534755305" departLane="free"/>
  <flow id="JF200679" begin="0" fromJunction="J7" toJunction="J6" end="60" vehsPerHour="34.60516471187135" departLane="free"/>
  <flow id="JF200680" begin="60" fromJunction="J0" toJunction="J3" end="120" vehsPerHour="62.06671084376103" departLane="free"/>
  <flow id="JF200681" begin="60" fromJunction="J0" toJunction="J4" end="120" vehsPerHour="0.5474082636346491" departLane="free"/>
  <flow id="JF200682" begin="60" fromJunction="J0" toJunction="J5" end="120" vehsPerHour="62.21455138707694" departLane="free"/>
  <flow id="JF200683" begin="60" fromJunction="J0" toJunction="J6" end="120" vehsPerHour="26.16675422766724" departLane="free"/>
  <flow id="JF200684" begin="60" fromJunction="J3" toJunction="J0" end="120" vehsPerHour="76.5519356191676" departLane="free"/>
  <flow id="JF200685" begin="60" fromJunction="J3" toJunction="J5" end="120" vehsPerHour="4.685028885040173" departLane="free"/>
  <flow id="JF200686" begin="60" fromJunction="J3" toJunction="J6" end="120" vehsPerHour="83.78079305940841" departLane="free"/>
  <flow id="JF200687" begin="60" fromJunction="J3" toJunction="J7" end="120" vehsPerHour="135.28763999674743" departLane="free"/>
  <flow id="JF200688" begin="60" fromJunction="J4" toJunction="J3" end="120" vehsPerHour="46.20916734643246" departLane="free"/>
  <flow id="JF200689" begin="60" fromJunction="J4" toJunction="J5" end="120" vehsPerHour="33.939278876560856" departLane="free"/>
  <flow id="JF200690" begin="60" fromJunction="J4" toJunction="J7" end="120" vehsPerHour="11.364417782661484" departLane="free"/>
  <flow id="JF200691" begin="60" fromJunction="J5" toJunction="J0" end="120" vehsPerHour="63.30342679535174" departLane="free"/>
  <flow id="JF200692" begin="60" fromJunction="J5" toJunction="J3" end="120" vehsPerHour="53.261930266189225" departLane="free"/>
  <flow id="JF200693" begin="60" fromJunction="J5" toJunction="J4" end="120" vehsPerHour="40.176898338169906" departLane="free"/>
  <flow id="JF200694" begin="60" fromJunction="J5" toJunction="J6" end="120" vehsPerHour="42.4649946618105" departLane="free"/>
  <flow id="JF200695" begin="60" fromJunction="J5" toJunction="J7" end="120" vehsPerHour="43.355371515569615" departLane="free"/>
  <flow id="JF200696" begin="60" fromJunction="J6" toJunction="J0" end="120" vehsPerHour="16.64432896765093" departLane="free"/>
  <flow id="JF200697" begin="60" fromJunction="J6" toJunction="J7" end="120" vehsPerHour="22.370176907742483" departLane="free"/>
  <flow id="JF200698" begin="60" fromJunction="J7" toJunction="J3" end="120" vehsPerHour="3.1294134075085407" departLane="free"/>
  <flow id="JF200699" begin="60" fromJunction="J7" toJunction="J4" end="120" vehsPerHour="56.72016568783719" departLane="free"/>
  <flow id="JF200700" begin="60" fromJunction="J7" toJunction="J5" end="120" vehsPerHour="20.71772574208747" departLane="free"/>
  <flow id="JF200701" begin="60" fromJunction="J7" toJunction="J6" end="120" vehsPerHour="59.686054119470796" departLane="free"/>
  <flow id="JF200702" begin="120" fromJunction="J0" toJunction="J3" end="180" vehsPerHour="15.199688715553593" departLane="free"/>
  <flow id="JF200703" begin="120" fromJunction="J0" toJunction="J4" end="180" vehsPerHour="115.37083771779662" departLane="free"/>
  <flow id="JF200704" begin="120" fromJunction="J0" toJunction="J5" end="180" vehsPerHour="33.50931539520408" departLane="free"/>
  <flow id="JF200705" begin="120" fromJunction="J0" toJunction="J6" end="180" vehsPerHour="133.84741374740227" departLane="free"/>
  <flow id="JF200706" begin="120" fromJunction="J0" toJunction="J7" end="180" vehsPerHour="31.32281209336687" departLane="free"/>
  <flow id="JF200707" begin="120" fromJunction="J3" toJunction="J4" end="180" vehsPerHour="84.11006406573465" departLane="free"/>
  <flow id="JF200708" begin="120" fromJunction="J3" toJunction="J6" end="180" vehsPerHour="24.180813582187824" departLane="free"/>
  <flow id="JF200709" begin="120" fromJunction="J3" toJunction="J7" end="180" vehsPerHour="68.62331628980353" departLane="free"/>
  <flow id="JF200710" begin="120" fromJunction="J4" toJunction="J0" end="180" vehsPerHour="47.49053000366554" departLane="free"/>
  <flow id="JF200711" begin="120" fromJunction="J4" toJunction="J5" end="180" vehsPerHour="1.6902873661783175" departLane="free"/>
  <flow id="JF200712" begin="120" fromJunction="J4" toJunction="J6" end="180" vehsPerHour="8.508119763485539" departLane="free"/>
  <flow id="JF200713" begin="120" fromJunction="J5" toJunction="J0" end="180" vehsPerHour="39.5525789731149" departLane="free"/>
  <flow id="JF200714" begin="120" fromJunction="J5" toJunction="J4" end="180" vehsPerHour="61.0080114417697" departLane="free"/>
  <flow id="JF200715" begin="120" fromJunction="J5" toJunction="J7" end="180" vehsPerHour="28.37993478679172" departLane="free"/>
  <flow id="JF200716" begin="120" fromJunction="J6" toJunction="J0" end="180" vehsPerHour="60.769463806608094" departLane="free"/>
  <flow id="JF200717" begin="120" fromJunction="J6" toJunction="J3" end="180" vehsPerHour="48.80321049837304" departLane="free"/>
  <flow id="JF200718" begin="120" fromJunction="J6" toJunction="J4" end="180" vehsPerHour="8.737193245665866" departLane="free"/>
  <flow id="JF200719" begin="120" fromJunction="J6" toJunction="J7" end="180" vehsPerHour="7.367246806814211" departLane="free"/>
  <flow id="JF200720" begin="120" fromJunction="J7" toJunction="J3" end="180" vehsPerHour="35.04483926792485" departLane="free"/>
  <flow id="JF200721" begin="120" fromJunction="J7" toJunction="J4" end="180" vehsPerHour="1.0255985834231633" departLane="free"/>
  <flow id="JF200722" begin="120" fromJunction="J7" toJunction="J5" end="180" vehsPerHour="0.0274709705922203" departLane="free"/>
  <flow id="JF200723" begin="120" fromJunction="J7" toJunction="J6" end="180" vehsPerHour="14.081373107771304" departLane="free"/>
  <flow id="JF200724" begin="180" fromJunction="J0" toJunction="J3" end="240" vehsPerHour="86.03087654650462" departLane="free"/>
  <flow id="JF200725" begin="180" fromJunction="J0" toJunction="J4" end="240" vehsPerHour="110.46470542980603" departLane="free"/>
  <flow id="JF200726" begin="180" fromJunction="J0" toJunction="J5" end="240" vehsPerHour="126.09513746918252" departLane="free"/>
  <flow id="JF200727" begin="180" fromJunction="J0" toJunction="J6" end="240" vehsPerHour="116.07141768259088" departLane="free"/>
  <flow id="JF200728" begin="180" fromJunction="J0" toJunction="J7" end="240" vehsPerHour="64.35515701292468" departLane="free"/>
  <flow id="JF200729" begin="180" fromJunction="J3" toJunction="J0" end="240" vehsPerHour="44.66104835307009" departLane="free"/>
  <flow id="JF200730" begin="180" fromJunction="J3" toJunction="J4" end="240" vehsPerHour="93.77933589292181" departLane="free"/>
  <flow id="JF200731" begin="180" fromJunction="J3" toJunction="J6" end="240" vehsPerHour="97.82445988603376" departLane="free"/>
  <flow id="JF200732" begin="180" fromJunction="J3" toJunction="J7" end="240" vehsPerHour="89.9095423826148" departLane="free"/>
  <flow id="JF200733" begin="180" fromJunction="J4" toJunction="J0" end="240" vehsPerHour="32.27488858895304" departLane="free"/>
  <flow id="JF200734" begin="180" fromJunction="J4" toJunction="J3" end="240" vehsPerHour="46.636680766738394" departLane="free"/>
  <flow id="JF200735" begin="180" fromJunction="J4" toJunction="J5" end="240" vehsPerHour="15.659621254417754" departLane="free"/>
  <flow id="JF200736" begin="180" fromJunction="J4" toJunction="J6" end="240" vehsPerHour="49.77657817886373" departLane="free"/>
  <flow id="JF200737" begin="180" fromJunction="J4" toJunction="J7" end="240" vehsPerHour="22.911657932115546" departLane="free"/>
  <flow id="JF200738" begin="180" fromJunction="J5" toJunction="J0" end="240" vehsPerHour="1.6915208253336653" departLane="free"/>
  <flow id="JF200739" begin="180" fromJunction="J5" toJunction="J3" end="240" vehsPerHour="22.15667192854244" departLane="free"/>
  <flow id="JF200740" begin="180" fromJunction="J5" toJunction="J4" end="240" vehsPerHour="39.80602850890428" departLane="free"/>
  <flow id="JF200741" begin="180" fromJunction="J5" toJunction="J6" end="240" vehsPerHour="55.57978195941938" departLane="free"/>
  <flow id="JF200742" begin="180" fromJunction="J5" toJunction="J7" end="240" vehsPerHour="64.84715468868818" departLane="free"/>
  <flow id="JF200743" begin="180" fromJunction="J6" toJunction="J7" end="240" vehsPerHour="25.85332079496481" departLane="free"/>
  <flow id="JF200744" begin="180" fromJunction="J7" toJunction="J0" end="240" vehsPerHour="67.25254876648218" departLane="free"/>
  <flow id="JF200745" begin="180" fromJunction="J7" toJunction="J3" end="240" vehsPerHour="38.138885805866906" departLane="free"/>
  <flow id="JF200746" begin="180" fromJunction="J7" toJunction="J5" end="240" vehsPerHour="36.89805312553729" departLane="free"/>
  <flow id="JF200747" begin="180" fromJunction="J7" toJunction="J6" end="240" vehsPerHour="25.70386589445039" departLane="free"/>
  <flow id="JF200748" begin="240" fromJunction="J0" toJunction="J3" end="300" vehsPerHour="51.47113747915682" departLane="free"/>
  <flow id="JF200749" begin="240" fromJunction="J0" toJunction="J5" end="300" vehsPerHour="74.93271863471628" departLane="free"/>
  <flow id="JF200750" begin="240" fromJunction="J0" toJunction="J6" end="300" vehsPerHour="99.0780644742332" departLane="free"/>
  <flow id="JF200751" begin="240" fromJunction="J0" toJunction="J7" end="300" vehsPerHour="19.80579774580344" departLane="free"/>
  <flow id="JF200752" begin="240" fromJunction="J3" toJunction="J0" end="300" vehsPerHour="71.12604236304959" departLane="free"/>
  <flow id="JF200753" begin="240" fromJunction="J3" toJunction="J4" end="300" vehsPerHour="134.06725097497704" departLane="free"/>
  <flow id="JF200754" begin="240" fromJunction="J3" toJunction="J6" end="300" vehsPerHour="128.7283842859554" departLane="free"/>
  <flow id="JF200755" begin="240" fromJunction="J3" toJunction="J7" end="300" vehsPerHour="87.41049760030917" departLane="free"/>
  <flow id="JF200756" begin="240" fromJunction="J4" toJunction="J3" end="300" vehsPerHour="14.877293033418544" departLane="free"/>
  <flow id="JF200757" begin="240" fromJunction="J4" toJunction="J5" end="300" vehsPerHour="62.15340568793053" departLane="free"/>
  <flow id="JF200758" begin="240" fromJunction="J4" toJunction="J7" end="300" vehsPerHour="53.6587519050834" departLane="free"/>
  <flow id="JF200759" begin="240" fromJunction="J5" toJunction="J3" end="300" vehsPerHour="0.36220275120271045" departLane="free"/>
  <flow id="JF200760" begin="240" fromJunction="J5" toJunction="J4" end="300" vehsPerHour="56.973562854225705" departLane="free"/>
  <flow id="JF200761" begin="240" fromJunction="J5" toJunction="J6" end="300" vehsPerHour="58.32365989736829" departLane="free"/>
  <flow id="JF200762" begin="240" fromJunction="J5" toJunction="J7" end="300" vehsPerHour="26.64827060153155" departLane="free"/>
  <flow id="JF200763" begin="240" fromJunction="J6" toJunction="J3" end="300" vehsPerHour="5.393997591207779" departLane="free"/>
  <flow id="JF200764" begin="240" fromJunction="J6" toJunction="J5" end="300" vehsPerHour="21.707702627315296" departLane="free"/>
  <flow id="JF200765" begin="240" fromJunction="J6" toJunction="J7" end="300" vehsPerHour="20.52468687742007" departLane="free"/>
  <flow id="JF200766" begin="240" fromJunction="J7" toJunction="J3" end="300" vehsPerHour="10.7592118083775" departLane="free"/>
  <flow id="JF200767" begin="240" fromJunction="J7" toJunction="J4" end="300" vehsPerHour="56.73475616742418" departLane="free"/>
  <flow id="JF200768" begin="240" fromJunction="J7" toJunction="J5" end="300" vehsPerHour="1.381452028919091" departLane="free"/>
  <flow id="JF200769" begin="240" fromJunction="J7" toJunction="J6" end="300" vehsPerHour="29.60960936356869" departLane="free"/>
  <flow id="JF200770" begin="300" fromJunction="J0" toJunction="J5" end="360" vehsPerHour="128.97235602095998" departLane="free"/>
  <flow id="JF200771" begin="300" fromJunction="J0" toJunction="J6" end="360" vehsPerHour="77.039803411663" departLane="free"/>
  <flow id="JF200772" begin="300" fromJunction="J0" toJunction="J7" end="360" vehsPerHour="67.96311708767463" departLane="free"/>
  <flow id="JF200773" begin="300" fromJunction="J3" toJunction="J4" end="360" vehsPerHour="62.77273493252127" departLane="free"/>
  <flow id="JF200774" begin="300" fromJunction="J3" toJunction="J5" end="360" vehsPerHour="77.38680617920929" departLane="free"/>
  <flow id="JF200775" begin="300" fromJunction="J3" toJunction="J6" end="360" vehsPerHour="130.29290528284693" departLane="free"/>
  <flow id="JF200776" begin="300" fromJunction="J3" toJunction="J7" end="360" vehsPerHour="17.42918074300819" departLane="free"/>
  <flow id="JF200777" begin="300" fromJunction="J4" toJunction="J0" end="360" vehsPerHour="33.940766811990265" departLane="free"/>
  <flow id="JF200778" begin="300" fromJunction="J4" toJunction="J3" end="360" vehsPerHour="1.1467497191947185" departLane="free"/>
  <flow id="JF200779" begin="300" fromJunction="J4" toJunction="J7" end="360" vehsPerHour="40.49120277673814" departLane="free"/>
  <flow id="JF200780" begin="300" fromJunction="J5" toJunction="J0" end="360" vehsPerHour="22.82742460169123" departLane="free"/>
  <flow id="JF200781" begin="300" fromJunction="J5" toJunction="J3" end="360" vehsPerHour="4.1434431953366495" departLane="free"/>
  <flow id="JF200782" begin="300" fromJunction="J5" toJunction="J6" end="360" vehsPerHour="32.05782916888458" departLane="free"/>
  <flow id="JF200783" begin="300" fromJunction="J6" toJunction="J0" end="360" vehsPerHour="36.69826596197412" departLane="free"/>
  <flow id="JF200784" begin="300" fromJunction="J6" toJunction="J3" end="360" vehsPerHour="47.07029460830558" departLane="free"/>
  <flow id="JF200785" begin="300" fromJunction="J6" toJunction="J4" end="360" vehsPerHour="32.3091328078042" departLane="free"/>
  <flow id="JF200786" begin="300" fromJunction="J7" toJunction="J3" end="360" vehsPerHour="57.42194946062647" departLane="free"/>
  <flow id="JF200787" begin="300" fromJunction="J7" toJunction="J4" end="360" vehsPerHour="36.35929959985314" departLane="free"/>
  <flow id="JF200788" begin="300" fromJunction="J7" toJunction="J5" end="360" vehsPerHour="9.239714405408016" departLane="free"/>
  <flow id="JF200789" begin="300" fromJunction="J7" toJunction="J6" end="360" vehsPerHour="24.530487375128846" departLane="free"/>
  <flow id="JF200790" begin="360" fromJunction="J0" toJunction="J4" end="420" vehsPerHour="92.00308654472478" departLane="free"/>
  <flow id="JF200791" begin="360" fromJunction="J0" toJunction="J5" end="420" vehsPerHour="102.74439641473067" departLane="free"/>
  <flow id="JF200792" begin="360" fromJunction="J0" toJunction="J6" end="420" vehsPerHour="86.67262016479094" departLane="free"/>
  <flow id="JF200793" begin="360" fromJunction="J0" toJunction="J7" end="420" vehsPerHour="52.150829722685764" departLane="free"/>
  <flow id="JF200794" begin="360" fromJunction="J3" toJunction="J0" end="420" vehsPerHour="126.46395946893922" departLane="free"/>
  <flow id="JF200795" begin="360" fromJunction="J3" toJunction="J4" end="420" vehsPerHour="36.84614672649767" departLane="free"/>
  <flow id="JF200796" begin="360" fromJunction="J3" toJunction="J5" end="420" vehsPerHour="120.63799525789882" departLane="free"/>
  <flow id="JF200797" begin="360" fromJunction="J3" toJunction="J7" end="420" vehsPerHour="113.39036392734651" departLane="free"/>
  <flow id="JF200798" begin="360" fromJunction="J4" toJunction="J0" end="420" vehsPerHour="18.669319572514887" departLane="free"/>
  <flow id="JF200799" begin="360" fromJunction="J4" toJunction="J3" end="420" vehsPerHour="45.16984240195261" departLane="free"/>
  <flow id="JF200800" begin="360" fromJunction="J4" toJunction="J5" end="420" vehsPerHour="52.744149257633254" departLane="free"/>
  <flow id="JF200801" begin="360" fromJunction="J4" toJunction="J7" end="420" vehsPerHour="58.92796054585781" departLane="free"/>
  <flow id="JF200802" begin="360" fromJunction="J5" toJunction="J0" end="420" vehsPerHour="64.4279865467593" departLane="free"/>
  <flow id="JF200803" begin="360" fromJunction="J5" toJunction="J4" end="420" vehsPerHour="22.24153182382651" departLane="free"/>
  <flow id="JF200804" begin="360" fromJunction="J5" toJunction="J6" end="420" vehsPerHour="45.07985559590092" departLane="free"/>
  <flow id="JF200805" begin="360" fromJunction="J5" toJunction="J7" end="420" vehsPerHour="24.19525982461376" departLane="free"/>
  <flow id="JF200806" begin="360" fromJunction="J6" toJunction="J4" end="420" vehsPerHour="38.74782753053888" departLane="free"/>
  <flow id="JF200807" begin="360" fromJunction="J6" toJunction="J5" end="420" vehsPerHour="19.78725151066882" departLane="free"/>
  <flow id="JF200808" begin="360" fromJunction="J7" toJunction="J0" end="420" vehsPerHour="29.641387863569253" departLane="free"/>
  <flow id="JF200809" begin="360" fromJunction="J7" toJunction="J4" end="420" vehsPerHour="13.914798596428348" departLane="free"/>
  <flow id="JF200810" begin="420" fromJunction="J0" toJunction="J4" end="480" vehsPerHour="121.39492971295783" departLane="free"/>
  <flow id="JF200811" begin="420" fromJunction="J0" toJunction="J5" end="480" vehsPerHour="1.682942203170877" departLane="free"/>
  <flow id="JF200812" begin="420" fromJunction="J0" toJunction="J6" end="480" vehsPerHour="121.08033914929864" departLane="free"/>
  <flow id="JF200813" begin="420" fromJunction="J0" toJunction="J7" end="480" vehsPerHour="102.09856921916273" departLane="free"/>
  <flow id="JF200814" begin="420" fromJunction="J3" toJunction="J4" end="480" vehsPerHour="49.86558848464946" departLane="free"/>
  <flow id="JF200815" begin="420" fromJunction="J3" toJunction="J5" end="480" vehsPerHour="78.9736250138333" departLane="free"/>
  <flow id="JF200816" begin="420" fromJunction="J3" toJunction="J7" end="480" vehsPerHour="67.84341823097064" departLane="free"/>
  <flow id="JF200817" begin="420" fromJunction="J4" toJunction="J5" end="480" vehsPerHour="67.98897351869692" departLane="free"/>
  <flow id="JF200818" begin="420" fromJunction="J5" toJunction="J0" end="480" vehsPerHour="37.21270457270991" departLane="free"/>
  <flow id="JF200819" begin="420" fromJunction="J5" toJunction="J3" end="480" vehsPerHour="12.306561163300216" departLane="free"/>
  <flow id="JF200820" begin="420" fromJunction="J5" toJunction="J4" end="480" vehsPerHour="40.66015357348824" departLane="free"/>
  <flow id="JF200821" begin="420" fromJunction="J5" toJunction="J7" end="480" vehsPerHour="50.28989736774975" departLane="free"/>
  <flow id="JF200822" begin="420" fromJunction="J6" toJunction="J0" end="480" vehsPerHour="21.319514518985372" departLane="free"/>
  <flow id="JF200823" begin="420" fromJunction="J6" toJunction="J7" end="480" vehsPerHour="24.89197945705982" departLane="free"/>
  <flow id="JF200824" begin="420" fromJunction="J7" toJunction="J0" end="480" vehsPerHour="31.08886126495701" departLane="free"/>
  <flow id="JF200825" begin="420" fromJunction="J7" toJunction="J3" end="480" vehsPerHour="42.8608681187939" departLane="free"/>
  <flow id="JF200826" begin="420" fromJunction="J7" toJunction="J5" end="480" vehsPerHour="23.350421912228512" departLane="free"/>
  <flow id="JF200827" begin="420" fromJunction="J7" toJunction="J6" end="480" vehsPerHour="24.711757478463507" departLane="free"/>
  <flow id="JF200828" begin="480" fromJunction="J0" toJunction="J3" end="540" vehsPerHour="127.10339111371593" departLane="free"/>
  <flow id="JF200829" begin="480" fromJunction="J0" toJunction="J4" end="540" vehsPerHour="24.821319759746267" departLane="free"/>
  <flow id="JF200830" begin="480" fromJunction="J0" toJunction="J7" end="540" vehsPerHour="59.55269415612367" departLane="free"/>
  <flow id="JF200831" begin="480" fromJunction="J3" toJunction="J0" end="540" vehsPerHour="132.5385796773076" departLane="free"/>
  <flow id="JF200832" begin="480" fromJunction="J3" toJunction="J6" end="540" vehsPerHour="9.94579936909785" departLane="free"/>
  <flow id="JF200833" begin="480" fromJunction="J3" toJunction="J7" end="540" vehsPerHour="106.45065596853397" departLane="free"/>
  <flow id="JF200834" begin="480" fromJunction="J4" toJunction="J0" end="540" vehsPerHour="39.030175419270435" departLane="free"/>
  <flow id="JF200835" begin="480" fromJunction="J4" toJunction="J7" end="540" vehsPerHour="43.94674478885006" departLane="free"/>
  <flow id="JF200836" begin="480" fromJunction="J5" toJunction="J0" end="540" vehsPerHour="41.90272055945758" departLane="free"/>
  <flow id="JF200837" begin="480" fromJunction="J5" toJunction="J4" end="540" vehsPerHour="66.88316624362885" departLane="free"/>
  <flow id="JF200838" begin="480" fromJunction="J5" toJunction="J7" end="540" vehsPerHour="40.19840361312776" departLane="free"/>
  <flow id="JF200839" begin="480" fromJunction="J6" toJunction="J0" end="540" vehsPerHour="19.600845945567077" departLane="free"/>
  <flow id="JF200840" begin="480" fromJunction="J6" toJunction="J3" end="540" vehsPerHour="6.3987196262099" departLane="free"/>
  <flow id="JF200841" begin="480" fromJunction="J6" toJunction="J4" end="540" vehsPerHour="10.992329598168412" departLane="free"/>
  <flow id="JF200842" begin="480" fromJunction="J6" toJunction="J5" end="540" vehsPerHour="19.490253110173903" departLane="free"/>
  <flow id="JF200843" begin="480" fromJunction="J6" toJunction="J7" end="540" vehsPerHour="33.6265426965132" departLane="free"/>
  <flow id="JF200844" begin="480" fromJunction="J7" toJunction="J0" end="540" vehsPerHour="0.4751456549811335" departLane="free"/>
  <flow id="JF200845" begin="480" fromJunction="J7" toJunction="J3" end="540" vehsPerHour="13.795655384840396" departLane="free"/>
  <flow id="JF200846" begin="480" fromJunction="J7" toJunction="J4" end="540" vehsPerHour="24.872189590181915" departLane="free"/>
  <flow id="JF200847" begin="480" fromJunction="J7" toJunction="J5" end="540" vehsPerHour="36.608892003033404" departLane="free"/>
  <flow id="JF200848" begin="540" fromJunction="J0" toJunction="J4" end="600" vehsPerHour="17.47168940226408" departLane="free"/>
  <flow id="JF200849" begin="540" fromJunction="J0" toJunction="J5" end="600" vehsPerHour="73.73787122069069" departLane="free"/>
  <flow id="JF200850" begin="540" fromJunction="J0" toJunction="J7" end="600" vehsPerHour="66.00216012219025" departLane="free"/>
  <flow id="JF200851" begin="540" fromJunction="J3" toJunction="J0" end="600" vehsPerHour="129.334969574932" departLane="free"/>
  <flow id="JF200852" begin="540" fromJunction="J3" toJunction="J4" end="600" vehsPerHour="116.47550534425517" departLane="free"/>
  <flow id="JF200853" begin="540" fromJunction="J3" toJunction="J5" end="600" vehsPerHour="111.06483859177851" departLane="free"/>
  <flow id="JF200854" begin="540" fromJunction="J3" toJunction="J6" end="600" vehsPerHour="25.378611287449623" departLane="free"/>
  <flow id="JF200855" begin="540" fromJunction="J3" toJunction="J7" end="600" vehsPerHour="60.21514283870477" departLane="free"/>
  <flow id="JF200856" begin="540" fromJunction="J4" toJunction="J0" end="600" vehsPerHour="66.09085518612916" departLane="free"/>
  <flow id="JF200857" begin="540" fromJunction="J4" toJunction="J3" end="600" vehsPerHour="61.63814426766905" departLane="free"/>
  <flow id="JF200858" begin="540" fromJunction="J4" toJunction="J6" end="600" vehsPerHour="45.07694317380166" departLane="free"/>
  <flow id="JF200859" begin="540" fromJunction="J4" toJunction="J7" end="600" vehsPerHour="0.6332144778517065" departLane="free"/>
  <flow id="JF200860" begin="540" fromJunction="J5" toJunction="J6" end="600" vehsPerHour="41.764643509295716" departLane="free"/>
  <flow id="JF200861" begin="540" fromJunction="J5" toJunction="J7" end="600" vehsPerHour="18.12162522124562" departLane="free"/>
  <flow id="JF200862" begin="540" fromJunction="J6" toJunction="J3" end="600" vehsPerHour="22.918525747146596" departLane="free"/>
  <flow id="JF200863" begin="540" fromJunction="J6" toJunction="J4" end="600" vehsPerHour="17.674776512467066" departLane="free"/>
  <flow id="JF200864" begin="540" fromJunction="J7" toJunction="J3" end="600" vehsPerHour="56.64020228354445" departLane="free"/>
  <flow id="JF200865" begin="540" fromJunction="J7" toJunction="J4" end="600" vehsPerHour="6.992769726281621" departLane="free"/>
  <flow id="JF200866" begin="540" fromJunction="J7" toJunction="J5" end="600" vehsPerHour="65.40113814080856" departLane="free"/>
  <flow id="JF200867" begin="540" fromJunction="J7" toJunction="J6" end="600" vehsPerHour="40.049388135765284" departLane="free"/>
  <flow id="JF200868" begin="600" fromJunction="J0" toJunction="J3" end="660" vehsPerHour="55.47985883235767" departLane="free"/>
  <flow id="JF200869" begin="600" fromJunction="J0" toJunction="J4" end="660" vehsPerHour="12.546800388831349" departLane="free"/>
  <flow id="JF200870" begin="600" fromJunction="J0" toJunction="J6" end="660" vehsPerHour="19.967547157952506" departLane="free"/>
  <flow id="JF200871" begin="600" fromJunction="J3" toJunction="J4" end="660" vehsPerHour="17.72624677737363" departLane="free"/>
  <flow id="JF200872" begin="600" fromJunction="J3" toJunction="J5" end="660" vehsPerHour="10.903643822568018" departLane="free"/>
  <flow id="JF200873" begin="600" fromJunction="J3" toJunction="J7" end="660" vehsPerHour="114.41328831367967" departLane="free"/>
  <flow id="JF200874" begin="600" fromJunction="J4" toJunction="J0" end="660" vehsPerHour="21.51840867682223" departLane="free"/>
  <flow id="JF200875" begin="600" fromJunction="J4" toJunction="J3" end="660" vehsPerHour="57.171425605052676" departLane="free"/>
  <flow id="JF200876" begin="600" fromJunction="J4" toJunction="J5" end="660" vehsPerHour="46.57147801694303" departLane="free"/>
  <flow id="JF200877" begin="600" fromJunction="J4" toJunction="J6" end="660" vehsPerHour="27.8460216511152" departLane="free"/>
  <flow id="JF200878" begin="600" fromJunction="J4" toJunction="J7" end="660" vehsPerHour="55.57892826046009" departLane="free"/>
  <flow id="JF200879" begin="600" fromJunction="J5" toJunction="J0" end="660" vehsPerHour="5.779669993186352" departLane="free"/>
  <flow id="JF200880" begin="600" fromJunction="J5" toJunction="J3" end="660" vehsPerHour="43.61937535562514" departLane="free"/>
  <flow id="JF200881" begin="600" fromJunction="J5" toJunction="J6" end="660" vehsPerHour="66.657794469334" departLane="free"/>
  <flow id="JF200882" begin="600" fromJunction="J5" toJunction="J7" end="660" vehsPerHour="44.18261953830816" departLane="free"/>
  <flow id="JF200883" begin="600" fromJunction="J6" toJunction="J0" end="660" vehsPerHour="35.70716480130357" departLane="free"/>
  <flow id="JF200884" begin="600" fromJunction="J6" toJunction="J3" end="660" vehsPerHour="59.32282648666433" departLane="free"/>
  <flow id="JF200885" begin="600" fromJunction="J6" toJunction="J4" end="660" vehsPerHour="47.38984925241328" departLane="free"/>