<?xml version="1.0" encoding="UTF-8"?>
<routes xmlns:xsi="http://www.w3.org/2001/XMLSchema-instance" xsi:noNamespaceSchemaLocation="http://sumo.dlr.de/xsd/routes_file.xsd">
  <flow id="JF204187" begin="0" fromJunction="J0" toJunction="J3" end="60" vehsPerHour="57.16043597723539" departLane="free"/>
  <flow id="JF204188" begin="0" fromJunction="J0" toJunction="J4" end="60" vehsPerHour="114.86893722237858" departLane="free"/>
  <flow id="JF204189" begin="0" fromJunction="J0" toJunction="J6" end="60" vehsPerHour="90.16500311438315" departLane="free"/>
  <flow id="JF204190" begin="0" fromJunction="J3" toJunction="J4" end="60" vehsPerHour="45.41055512356601" departLane="free"/>
  <flow id="JF204191" begin="0" fromJunction="J3" toJunction="J5" end="60" vehsPerHour="32.912079229662695" departLane="free"/>
  <flow id="JF204192" begin="0" fromJunction="J3" toJunction="J6" end="60" vehsPerHour="40.96698684174745" departLane="free"/>
  <flow id="JF204193" begin="0" fromJunction="J3" toJunction="J7" end="60" vehsPerHour="89.1178243085805" departLane="free"/>
  <flow id="JF204194" begin="0" fromJunction="J4" toJunction="J0" end="60" vehsPerHour="42.21919520993088" departLane="free"/>
  <flow id="JF204195" begin="0" fromJunction="J4" toJunction="J3" end="60" vehsPerHour="33.050107517821615" departLane="free"/>
  <flow id="JF204196" begin="0" fromJunction="J4" toJunction="J5" end="60" vehsPerHour="10.954083332373562" departLane="free"/>
  <flow id="JF204197" begin="0" fromJunction="J4" toJunction="J7" end="60" vehsPerHour="32.56520629222516" departLane="free"/>
  <flow id="JF204198" begin="0" fromJunction="J5" toJunction="J3" end="60" vehsPerHour="46.183009800573615" departLane="free"/>
  <flow id="JF204199" begin="0" fromJunction="J5" toJunction="J4" end="60" vehsPerHour="34.5397282538239" departLane="free"/>
  <flow id="JF204200" begin="0" fromJunction="J5" toJunction="J7" end="60" vehsPerHour="55.656920813598916" departLane="free"/>
  <flow id="JF204201" begin="0" fromJunction="J6" toJunction="J0" end="60" vehsPerHour="22.133033593459672" departLane="free"/>
  <flow id="JF204202" begin="0" fromJunction="J6" toJunction="J3" end="60" vehsPerHour="38.712827556809884" departLane="free"/>
  <flow id="JF204203" begin="0" fromJunction="J6" toJunction="J4" end="60" vehsPerHour="63.14581413385033" departLane="free"/>
  <flow id="JF204204" begin="0" fromJunction="J6" toJunction="J7" end="60" vehsPerHour="57.75529037475873" departLane="free"/>
  <flow id="JF204205" begin="0" fromJunction="J7" toJunction="J0" end="60" vehsPerHour="50.71539594082386" departLane="free"/>
  <flow id="JF204206" begin="0" fromJunction="J7" toJunction="J3" end="60" vehsPerHour="42.424465569321185" departLane="free"/>
  <flow id="JF204207" begin="0" fromJunction="J7" toJunction="J4" end="60" vehsPerHour="1.791150281663409" departLane="free"/>
  <flow id="JF204208" begin="0" fromJunction="J7" toJunction="J6" end="60" vehsPerHour="25.095831744658206" departLane="free"/>
  <flow id="JF204209" begin="60" fromJunction="J0" toJunction="J5" end="120" vehsPerHour="30.63425794295908" departLane="free"/>
  <flow id="JF204210" begin="60" fromJunction="J0" toJunction="J7" end="120" vehsPerHour="38.361335768030386" departLane="free"/>
  <flow id="JF204211" begin="60" fromJunction="J3" toJunction="J5" end="120" vehsPerHour="56.88428086194852" departLane="free"/>
  <flow id="JF204212" begin="60" fromJunction="J3" toJunction="J6" end="120" vehsPerHour="26.25661436107904" departLane="free"/>
  <flow id="JF204213" begin="60" fromJunction="J4" toJunction="J0" end="120" vehsPerHour="5.659471915251364" departLane="free"/>
  <flow id="JF204214" begin="60" fromJunction="J4" toJunction="J3" end="120" vehsPerHour="6.476930409271671" departLane="free"/>
  <flow id="JF204215" begin="60" fromJunction="J4" toJunction="J5" end="120" vehsPerHour="37.432460824219675" departLane="free"/>
  <flow id="JF204216" begin="60" fromJunction="J4" toJunction="J6" end="120" vehsPerHour="23.12492105485236" departLane="free"/>
  <flow id="JF204217" begin="60" fromJunction="J4" toJunction="J7" end="120" vehsPerHour="27.546351973014936" departLane="free"/>
  <flow id="JF204218" begin="60" fromJunction="J5" toJunction="J0" end="120" vehsPerHour="58.80842554501275" departLane="free"/>
  <flow id="JF204219" begin="60" fromJunction="J5" toJunction="J3" end="120" vehsPerHour="13.50999188950001" departLane="free"/>
  <flow id="JF204220" begin="60" fromJunction="J5" toJunction="J7" end="120" vehsPerHour="21.74284583475719" departLane="free"/>
  <flow id="JF204221" begin="60" fromJunction="J6" toJunction="J0" end="120" vehsPerHour="1.3768192470231155" departLane="free"/>
  <flow id="JF204222" begin="60" fromJunction="J6" toJunction="J3" end="120" vehsPerHour="50.273005601519436" departLane="free"/>
  <flow id="JF204223" begin="60" fromJunction="J6" toJunction="J4" end="120" vehsPerHour="53.22327600299488" departLane="free"/>
  <flow id="JF204224" begin="60" fromJunction="J6" toJunction="J5" end="120" vehsPerHour="55.898536763225586" departLane="free"/>
  <flow id="JF204225" begin="60" fromJunction="J7" toJunction="J0" end="120" vehsPerHour="12.7861784135947" departLane="free"/>
  <flow id="JF204226" begin="60" fromJunction="J7" toJunction="J3" end="120" vehsPerHour="12.46486933260769" departLane="free"/>
  <flow id="JF204227" begin="120" fromJunction="J0" toJunction="J3" end="180" vehsPerHour="89.41142599112571" departLane="free"/>
  <flow id="JF204228" begin="120" fromJunction="J0" toJunction="J4" end="180" vehsPerHour="47.01735716964409" departLane="free"/>
  <flow id="JF204229" begin="120" fromJunction="J0" toJunction="J5" end="180" vehsPerHour="27.72555260268992" departLane="free"/>
  <flow id="JF204230" begin="120" fromJunction="J0" toJunction="J6" end="180" vehsPerHour="78.97203656907057" departLane="free"/>
  <flow id="JF204231" begin="120" fromJunction="J0" toJunction="J7" end="180" vehsPerHour="5.113976997131801" departLane="free"/>
  <flow id="JF204232" begin="120" fromJunction="J3" toJunction="J0" end="180" vehsPerHour="30.826439296116163" departLane="free"/>
  <flow id="JF204233" begin="120" fromJunction="J3" toJunction="J4" end="180" vehsPerHour="30.278700983853263" departLane="free"/>
  <flow id="JF204234" begin="120" fromJunction="J3" toJunction="J5" end="180" vehsPerHour="53.397714616550886" departLane="free"/>
  <flow id="JF204235" begin="120" fromJunction="J3" toJunction="J6" end="180" vehsPerHour="41.25570279441852" departLane="free"/>
  <flow id="JF204236" begin="120" fromJunction="J4" toJunction="J0" end="180" vehsPerHour="7.2249021276578524" departLane="free"/>
  <flow id="JF204237" begin="120" fromJunction="J4" toJunction="J5" end="180" vehsPerHour="15.433831012858493" departLane="free"/>
  <flow id="JF204238" begin="120" fromJunction="J5" toJunction="J0" end="180" vehsPerHour="9.337937717658104" departLane="free"/>
  <flow id="JF204239" begin="120" fromJunction="J5" toJunction="J3" end="180" vehsPerHour="17.223357443522517" departLane="free"/>
  <flow id="JF204240" begin="120" fromJunction="J5" toJunction="J6" end="180" vehsPerHour="12.555632382639287" departLane="free"/>
  <flow id="JF204241" begin="120" fromJunction="J6" toJunction="J0" end="180" vehsPerHour="60.126692752077226" departLane="free"/>
  <flow id="JF204242" begin="120" fromJunction="J6" toJunction="J3" end="180" vehsPerHour="9.670689277547257" departLane="free"/>
  <flow id="JF204243" begin="120" fromJunction="J6" toJunction="J4" end="180" vehsPerHour="51.01129346392335" departLane="free"/>
  <flow id="JF204244" begin="120" fromJunction="J6" toJunction="J5" end="180" vehsPerHour="64.08741497163844" departLane="free"/>
  <flow id="JF204245" begin="120" fromJunction="J6" toJunction="J7" end="180" vehsPerHour="52.15215071484473" departLane="free"/>
  <flow id="JF204246" begin="120" fromJunction="J7" toJunction="J0" end="180" vehsPerHour="52.122932009763765" departLane="free"/>
  <flow id="JF204247" begin="120" fromJunction="J7" toJunction="J3" end="180" vehsPerHour="16.887521678051144" departLane="free"/>
  <flow id="JF204248" begin="120" fromJunction="J7" toJunction="J5" end="180" vehsPerHour="35.315971360437274" departLane="free"/>
  <flow id="JF204249" begin="120" fromJunction="J7" toJunction="J6" end="180" vehsPerHour="41.18443797464117" departLane="free"/>
  <flow id="JF204250" begin="180" fromJunction="J0" toJunction="J3" end="240" vehsPerHour="35.80816586768379" departLane="free"/>
  <flow id="JF204251" begin="180" fromJunction="J0" toJunction="J4" end="240" vehsPerHour="100.60337656933757" departLane="free"/>
  <flow id="JF204252" begin="180" fromJunction="J0" toJunction="J5" end="240" vehsPerHour="69.36790918807695" departLane="free"/>
  <flow id="JF204253" begin="180" fromJunction="J0" toJunction="J6" end="240" vehsPerHour="12.806932916206623" departLane="free"/>
  <flow id="JF204254" begin="180" fromJunction="J0" toJunction="J7" end="240" vehsPerHour="90.10198526926972" departLane="free"/>
  <flow id="JF204255" begin="180" fromJunction="J3" toJunction="J0" end="240" vehsPerHour="130.89800601912467" departLane="free"/>
  <flow id="JF204256" begin="180" fromJunction="J3" toJunction="J4" end="240" vehsPerHour="5.21996286986253" departLane="free"/>
  <flow id="JF204257" begin="180" fromJunction="J3" toJunction="J6" end="240" vehsPerHour="19.69702219733075" departLane="free"/>
  <flow id="JF204258" begin="180" fromJunction="J4" toJunction="J3" end="240" vehsPerHour="29.902815129235925" departLane="free"/>
  <flow id="JF204259" begin="180" fromJunction="J4" toJunction="J5" end="240" vehsPerHour="16.76543453842029" departLane="free"/>
  <flow id="JF204260" begin="180" fromJunction="J4" toJunction="J6" end="240" vehsPerHour="52.121411060025565" departLane="free"/>
  <flow id="JF204261" begin="180" fromJunction="J4" toJunction="J7" end="240" vehsPerHour="63.99402123575024" departLane="free"/>
  <flow id="JF204262" begin="180" fromJunction="J5" toJunction="J0" end="240" vehsPerHour="17.696318016899067" departLane="free"/>
  <flow id="JF204263" begin="180" fromJunction="J5" toJunction="J3" end="240" vehsPerHour="12.443312049157779" departLane="free"/>
  <flow id="JF204264" begin="180" fromJunction="J5" toJunction="J4" end="240" vehsPerHour="58.1442838021822" departLane="free"/>
  <flow id="JF204265" begin="180" fromJunction="J5" toJunction="J6" end="240" vehsPerHour="43.12429633608555" departLane="free"/>
  <flow id="JF204266" begin="180" fromJunction="J5" toJunction="J7" end="240" vehsPerHour="34.249621133493946" departLane="free"/>
  <flow id="JF204267" begin="180" fromJunction="J6" toJunction="J3" end="240" vehsPerHour="21.073341401700603" departLane="free"/>
  <flow id="JF204268" begin="180" fromJunction="J6" toJunction="J4" end="240" vehsPerHour="11.528897779828217" departLane="free"/>
  <flow id="JF204269" begin="180" fromJunction="J6" toJunction="J5" end="240" vehsPerHour="11.013881916188014" departLane="free"/>
  <flow id="JF204270" begin="180" fromJunction="J6" toJunction="J7" end="240" vehsPerHour="25.251455595548173" departLane="free"/>
  <flow id="JF204271" begin="180" fromJunction="J7" toJunction="J0" end="240" vehsPerHour="29.57222202576307" departLane="free"/>
  <flow id="JF204272" begin="180" fromJunction="J7" toJunction="J3" end="240" vehsPerHour="54.49982001651885" departLane="free"/>
  <flow id="JF204273" begin="180" fromJunction="J7" toJunction="J4" end="240" vehsPerHour="60.2939741855349" departLane="free"/>
  <flow id="JF204274" begin="180" fromJunction="J7" toJunction="J5" end="240" vehsPerHour="62.60657585736956" departLane="free"/>
  <flow id="JF204275" begin="240" fromJunction="J0" toJunction="J3" end="300" vehsPerHour="104.72577435916548" departLane="free"/>
  <flow id="JF204276" begin="240" fromJunction="J0" toJunction="J4" end="300" vehsPerHour="84.06115595134342" departLane="free"/>
  <flow id="JF204277" begin="240" fromJunction="J0" toJunction="J6" end="300" vehsPerHour="22.83277806012169" departLane="free"/>
  <flow id="JF204278" begin="240" fromJunction="J0" toJunction="J7" end="300" vehsPerHour="69.8408948425565" departLane="free"/>
  <flow id="JF204279" begin="240" fromJunction="J3" toJunction="J0" end="300" vehsPerHour="96.76565965388413" departLane="free"/>
  <flow id="JF204280" begin="240" fromJunction="J3" toJunction="J4" end="300" vehsPerHour="73.78311909727387" departLane="free"/>
  <flow id="JF204281" begin="240" fromJunction="J3" toJunction="J5" end="300" vehsPerHour="88.00039824609966" departLane="free"/>
  <flow id="JF204282" begin="240" fromJunction="J3" toJunction="J6" end="300" vehsPerHour="131.56190138824357" departLane="free"/>
  <flow id="JF204283" begin="240" fromJunction="J3" toJunction="J7" end="300" vehsPerHour="85.05029003996266" departLane="free"/>
  <flow id="JF204284" begin="240" fromJunction="J4" toJunction="J0" end="300" vehsPerHour="20.076711040665707" departLane="free"/>
  <flow id="JF204285" begin="240" fromJunction="J4" toJunction="J3" end="300" vehsPerHour="23.922907346132952" departLane="free"/>
  <flow id="JF204286" begin="240" fromJunction="J4" toJunction="J5" end="300" vehsPerHour="33.81564069126603" departLane="free"/>
  <flow id="JF204287" begin="240" fromJunction="J5" toJunction="J4" end="300" vehsPerHour="30.478302613975558" departLane="free"/>
  <flow id="JF204288" begin="240" fromJunction="J5" toJunction="J6" end="300" vehsPerHour="58.64561639871899" departLane="free"/>
  <flow id="JF204289" begin="240" fromJunction="J5" toJunction="J7" end="300" vehsPerHour="38.47080199060306" departLane="free"/>
  <flow id="JF204290" begin="240" fromJunction="J6" toJunction="J0" end="300" vehsPerHour="0.5170977963402077" departLane="free"/>
  <flow id="JF204291" begin="240" fromJunction="J6" toJunction="J3" end="300" vehsPerHour="5.166747845490642" departLane="free"/>
  <flow id="JF204292" begin="240" fromJunction="J6" toJunction="J4" end="300" vehsPerHour="68.1307010718869" departLane="free"/>
  <flow id="JF204293" begin="240" fromJunction="J6" toJunction="J5" end="300" vehsPerHour="45.409596988409064" departLane="free"/>
  <flow id="JF204294" begin="240" fromJunction="J6" toJunction="J7" end="300" vehsPerHour="9.239736677578907" departLane="free"/>
  <flow id="JF204295" begin="240" fromJunction="J7" toJunction="J4" end="300" vehsPerHour="5.205998734874309" departLane="free"/>
  <flow id="JF204296" begin="240" fromJunction="J7" toJunction="J5" end="300" vehsPerHour="65.08049060150721" departLane="free"/>
  <flow id="JF204297" begin="240" fromJunction="J7" toJunction="J6" end="300" vehsPerHour="19.447919161781925" departLane="free"/>
  <flow id="JF204298" begin="300" fromJunction="J0" toJunction="J3" end="360" vehsPerHour="59.19175530617664" departLane="free"/>
  <flow id="JF204299" begin="300" fromJunction="J0" toJunction="J4" end="360" vehsPerHour="38.616216356985866" departLane="free"/>
  <flow id="JF204300" begin="300" fromJunction="J0" toJunction="J5" end="360" vehsPerHour="103.06078598711872" departLane="free"/>
  <flow id="JF204301" begin="300" fromJunction="J0" toJunction="J6" end="360" vehsPerHour="125.39952792519901" departLane="free"/>
  <flow id="JF204302" begin="300" fromJunction="J0" toJunction="J7" end="360" vehsPerHour="79.1417464459279" departLane="free"/>
  <flow id="JF204303" begin="300" fromJunction="J3" toJunction="J4" end="360" vehsPerHour="76.71041315776438" departLane="free"/>
  <flow id="JF204304" begin="300" fromJunction="J3" toJunction="J6" end="360" vehsPerHour="31.792376734024238" departLane="free"/>
  <flow id="JF204305" begin="300" fromJunction="J3" toJunction="J7" end="360" vehsPerHour="67.75486584119895" departLane="free"/>
  <flow id="JF204306" begin="300" fromJunction="J4" toJunction="J0" end="360" vehsPerHour="61.40313118340325" departLane="free"/>
  <flow id="JF204307" begin="300" fromJunction="J4" toJunction="J3" end="360" vehsPerHour="20.95094660431316" departLane="free"/>
  <flow id="JF204308" begin="300" fromJunction="J4" toJunction="J5" end="360" vehsPerHour="18.07043462971855" departLane="free"/>
  <flow id="JF204309" begin="300" fromJunction="J4" toJunction="J7" end="360" vehsPerHour="16.141772268730215" departLane="free"/>
  <flow id="JF204310" begin="300" fromJunction="J5" toJunction="J3" end="360" vehsPerHour="10.91499144384912" departLane="free"/>
  <flow id="JF204311" begin="300" fromJunction="J5" toJunction="J4" end="360" vehsPerHour="33.70146492381543" departLane="free"/>
  <flow id="JF204312" begin="300" fromJunction="J5" toJunction="J6" end="360" vehsPerHour="35.81740157246409" departLane="free"/>
  <flow id="JF204313" begin="300" fromJunction="J5" toJunction="J7" end="360" vehsPerHour="61.05249622192206" departLane="free"/>
  <flow id="JF204314" begin="300" fromJunction="J6" toJunction="J3" end="360" vehsPerHour="28.493192760121573" departLane="free"/>
  <flow id="JF204315" begin="300" fromJunction="J6" toJunction="J4" end="360" vehsPerHour="5.129234021220672" departLane="free"/>
  <flow id="JF204316" begin="300" fromJunction="J7" toJunction="J0" end="360" vehsPerHour="53.82747513573626" departLane="free"/>
  <flow id="JF204317" begin="300" fromJunction="J7" toJunction="J5" end="360" vehsPerHour="28.98960579988243" departLane="free"/>
  <flow id="JF204318" begin="300" fromJunction="J7" toJunction="J6" end="360" vehsPerHour="10.18680747988041" departLane="free"/>
  <flow id="JF204319" begin="360" fromJunction="J0" toJunction="J3" end="420" vehsPerHour="16.314414511709792" departLane="free"/>
  <flow id="JF204320" begin="360" fromJunction="J0" toJunction="J4" end="420" vehsPerHour="3.4587961545447174" departLane="free"/>
  <flow id="JF204321" begin="360" fromJunction="J0" toJunction="J6" end="420" vehsPerHour="39.21540050061243" departLane="free"/>
  <flow id="JF204322" begin="360" fromJunction="J3" toJunction="J0" end="420" vehsPerHour="79.92801577963645" departLane="free"/>
  <flow id="JF204323" begin="360" fromJunction="J3" toJunction="J4" end="420" vehsPerHour="109.77273713030907" departLane="free"/>
  <flow id="JF204324" begin="360" fromJunction="J3" toJunction="J5" end="420" vehsPerHour="75.55217713051125" departLane="free"/>
  <flow id="JF204325" begin="360" fromJunction="J3" toJunction="J7" end="420" vehsPerHour="24.891485444162857" departLane="free"/>
  <flow id="JF204326" begin="360" fromJunction="J4" toJunction="J0" end="420" vehsPerHour="54.83599068063264" departLane="free"/>
  <flow id="JF204327" begin="360" fromJunction="J4" toJunction="J3" end="420" vehsPerHour="35.43862518510727" departLane="free"/>
  <flow id="JF204328" begin="360" fromJunction="J4" toJunction="J5" end="420" vehsPerHour="3.924021721594946" departLane="free"/>
  <flow id="JF204329" begin="360" fromJunction="J4" toJunction="J6" end="420" vehsPerHour="62.271488152535326" departLane="free"/>
  <flow id="JF204330" begin="360" fromJunction="J5" toJunction="J0" end="420" vehsPerHour="25.75616398648526" departLane="free"/>
  <flow id="JF204331" begin="360" fromJunction="J5" toJunction="J3" end="420" vehsPerHour="50.0617966651588" departLane="free"/>
  <flow id="JF204332" begin="360" fromJunction="J5" toJunction="J4" end="420" vehsPerHour="36.13675781828703" departLane="free"/>
  <flow id="JF204333" begin="360" fromJunction="J5" toJunction="J6" end="420" vehsPerHour="10.201590156119135" departLane="free"/>
  <flow id="JF204334" begin="360" fromJunction="J5" toJunction="J7" end="420" vehsPerHour="62.68750261561293" departLane="free"/>
  <flow id="JF204335" begin="360" fromJunction="J7" toJunction="J0" end="420" vehsPerHour="37.59732871107035" departLane="free"/>
  <flow id="JF204336" begin="360" fromJunction="J7" toJunction="J3" end="420" vehsPerHour="41.84745376483999" departLane="free"/>
  <flow id="JF204337" begin="360" fromJunction="J7" toJunction="J5" end="420" vehsPerHour="5.352886906260098" departLane="free"/>
  <flow id="JF204338" begin="420" fromJunction="J0" toJunction="J3" end="480" vehsPerHour="127.46888211310329" departLane="free"/>
  <flow id="JF204339" begin="420" fromJunction="J0" toJunction="J4" end="480" vehsPerHour="0.8573001953052045" departLane="free"/>
  <flow id="JF204340" begin="420" fromJunction="J0" toJunction="J5" end="480" vehsPerHour="46.64929914853193" departLane="free"/>
  <flow id="JF204341" begin="420" fromJunction="J0" toJunction="J6" end="480" vehsPerHour="36.962080009769" departLane="free"/>
  <flow id="JF204342" begin="420" fromJunction="J0" toJunction="J7" end="480" vehsPerHour="26.59929985943148" departLane="free"/>
  <flow id="JF204343" begin="420" fromJunction="J3" toJunction="J0" end="480" vehsPerHour="47.37452748205983" departLane="free"/>
  <flow id="JF204344" begin="420" fromJunction="J3" toJunction="J4" end="480" vehsPerHour="75.28673287203299" departLane="free"/>
  <flow id="JF204345" begin="420" fromJunction="J3" toJunction="J6" end="480" vehsPerHour="49.073598002704706" departLane="free"/>
  <flow id="JF204346" begin="420" fromJunction="J4" toJunction="J0" end="480" vehsPerHour="11.512167849275102" departLane="free"/>
  <flow id="JF204347" begin="420" fromJunction="J4" toJunction="J3" end="480" vehsPerHour="34.93706316601893" departLane="free"/>
  <flow id="JF204348" begin="420" fromJunction="J4" toJunction="J5" end="480" vehsPerHour="0.6906234811951297" departLane="free"/>
  <flow id="JF204349" begin="420" fromJunction="J4" toJunction="J7" end="480" vehsPerHour="23.630864387570924" departLane="free"/>
  <flow id="JF204350" begin="420" fromJunction="J5" toJunction="J0" end="480" vehsPerHour="52.25765308896309" departLane="free"/>
  <flow id="JF204351" begin="420" fromJunction="J5" toJunction="J3" end="480" vehsPerHour="9.168940810863075" departLane="free"/>
  <flow id="JF204352" begin="420" fromJunction="J5" toJunction="J7" end="480" vehsPerHour="32.29582571346186" departLane="free"/>
  <flow id="JF204353" begin="420" fromJunction="J6" toJunction="J0" end="480" vehsPerHour="1.1071970286813773" departLane="free"/>
  <flow id="JF204354" begin="420" fromJunction="J6" toJunction="J5" end="480" vehsPerHour="45.21347781943713" departLane="free"/>
  <flow id="JF204355" begin="420" fromJunction="J6" toJunction="J7" end="480" vehsPerHour="21.036770044587804" departLane="free"/>
  <flow id="JF204356" begin="420" fromJunction="J7" toJunction="J0" end="480" vehsPerHour="31.06286708315935" departLane="free"/>
  <flow id="JF204357" begin="420" fromJunction="J7" toJunction="J4" end="480" vehsPerHour="9.249816506267038" departLane="free"/>
  <flow id="JF204358" begin="420" fromJunction="J7" toJunction="J5" end="480" vehsPerHour="50.59344224451694" departLane="free"/>
  <flow id="JF204359" begin="420" fromJunction="J7" toJunction="J6" end="480" vehsPerHour="21.264000386620236" departLane="free"/>
  <flow id="JF204360" begin="480" fromJunction="J0" toJunction="J3" end="540" vehsPerHour="57.02962041799249" departLane="free"/>
  <flow id="JF204361" begin="480" fromJunction="J0" toJunction="J4" end="540" vehsPerHour="100.24380900971394" departLane="free"/>
  <flow id="JF204362" begin="480" fromJunction="J0" toJunction="J5" end="540" vehsPerHour="29.949847339427002" departLane="free"/>
  <flow id="JF204363" begin="480" fromJunction="J0" toJunction="J6" end="540" vehsPerHour="130.53669520651243" departLane="free"/>
  <flow id="JF204364" begin="480" fromJunction="J0" toJunction="J7" end="540" vehsPerHour="129.30827652064005" departLane="free"/>
  <flow id="JF204365" begin="480" fromJunction="J3" toJunction="J0" end="540" vehsPerHour="120.86819764321217" departLane="free"/>
  <flow id="JF204366" begin="480" fromJunction="J3" toJunction="J4" end="540" vehsPerHour="70.8986896357131" departLane="free"/>
  <flow id="JF204367" begin="480" fromJunction="J3" toJunction="J5" end="540" vehsPerHour="5.436019260167989" departLane="free"/>
  <flow id="JF204368" begin="480" fromJunction="J3" toJunction="J7" end="540" vehsPerHour="23.603901262860383" departLane="free"/>
  <flow id="JF204369" begin="480" fromJunction="J4" toJunction="J7" end="540" vehsPerHour="37.83412919376348" departLane="free"/>
  <flow id="JF204370" begin="480" fromJunction="J5" toJunction="J0" end="540" vehsPerHour="57.75078385730802" departLane="free"/>
  <flow id="JF204371" begin="480" fromJunction="J5" toJunction="J3" end="540" vehsPerHour="53.80945385080353" departLane="free"/>
  <flow id="JF204372" begin="480" fromJunction="J5" toJunction="J4" end="540" vehsPerHour="52.515697377194684" departLane="free"/>
  <flow id="JF204373" begin="480" fromJunction="J5" toJunction="J6" end="540" vehsPerHour="24.853948335520624" departLane="free"/>
  <flow id="JF204374" begin="480" fromJunction="J5" toJunction="J7" end="540" vehsPerHour="56.178353374341114" departLane="free"/>
  <flow id="JF204375" begin="480" fromJunction="J6" toJunction="J0" end="540" vehsPerHour="44.90153349490228" departLane="free"/>
  <flow id="JF204376" begin="480" fromJunction="J6" toJunction="J7" end="540" vehsPerHour="12.101638823121153" departLane="free"/>
  <flow id="JF204377" begin="480" fromJunction="J7" toJunction="J0" end="540" vehsPerHour="66.27198675196786" departLane="free"/>
  <flow id="JF204378" begin="480" fromJunction="J7" toJunction="J4" end="540" vehsPerHour="64.53765241362026" departLane="free"/>
  <flow id="JF204379" begin="480" fromJunction="J7" toJunction="J5" end="540" vehsPerHour="23.28036693018696" departLane="free"/>
  <flow id="JF204380" begin="540" fromJunction="J0" toJunction="J3" end="600" vehsPerHour="75.4339832727859" departLane="free"/>
  <flow id="JF204381" begin="540" fromJunction="J0" toJunction="J4" end="600" vehsPerHour="0.6989143588867" departLane="free"/>
  <flow id="JF204382" begin="540" fromJunction="J0" toJunction="J5" end="600" vehsPerHour="125.92634595756971" departLane="free"/>
  <flow id="JF204383" begin="540" fromJunction="J0" toJunction="J6" end="600" vehsPerHour="23.456278152422296" departLane="free"/>
  <flow id="JF204384" begin="540" fromJunction="J3" toJunction="J4" end="600" vehsPerHour="94.44644941694493" departLane="free"/>
  <flow id="JF204385" begin="540" fromJunction="J3" toJunction="J5" end="600" vehsPerHour="60.680434834419444" departLane="free"/>
  <flow id="JF204386" begin="540" fromJunction="J3" toJunction="J6" end="600" vehsPerHour="111.48380194703157" departLane="free"/>
  <flow id="JF204387" begin="540" fromJunction="J3" toJunction="J7" end="600" vehsPerHour="24.743567858931005" departLane="free"/>
  <flow id="JF204388" begin="540" fromJunction="J4" toJunction="J0" end="600" vehsPerHour="56.09316127061996" departLane="free"/>
  <flow id="JF204389" begin="540" fromJunction="J4" toJunction="J3" end="600" vehsPerHour="27.582439802552653" departLane="free"/>
  <flow id="JF204390" begin="540" fromJunction="J4" toJunction="J5" end="600" vehsPerHour="13.704383877595154" departLane="free"/>
  <flow id="JF204391" begin="540" fromJunction="J4" toJunction="J6" end="600" vehsPerHour="2.7801736680908755" departLane="free"/>
  <flow id="JF204392" begin="540" fromJunction="J4" toJunction="J7" end="600" vehsPerHour="10.900518116980543" departLane="free"/>
  <flow id="JF204393" begin="540" fromJunction="J5" toJunction="J0" end="600" vehsPerHour="66.0996171492011" departLane="free"/>
  <flow id="JF204394" begin="540" fromJunction="J5" toJunction="J3" end="600" vehsPerHour="13.025989697817641" departLane="free"/>
  <flow id="JF204395" begin="540" fromJunction="J5" toJunction="J6" end="600" vehsPerHour="0.11601244415434141" departLane="free"/>
  <flow id="JF204396" begin="540" fromJunction="J6" toJunction="J3" end="600" vehsPerHour="17.48352962092658" departLane="free"/>
  <flow id="JF204397" begin="540" fromJunction="J6" toJunction="J4" end="600" vehsPerHour="18.297697288527367" departLane="free"/>
  <flow id="JF204398" begin="540" fromJunction="J6" toJunction="J5" end="600" vehsPerHour="58.37077608432506" departLane="free"/>
  <flow id="JF204399" begin="540" fromJunction="J7" toJunction="J0" end="600" vehsPerHour="6.507066163357388" departLane="free"/>
  <flow id="JF204400" begin="540" fromJunction="J7" toJunction="J5" end="600" vehsPerHour="52.766751197933296" departLane="free"/>
  <flow id="JF204401" begin="540" fromJunction="J7" toJunction="J6" end="600" vehsPerHour="27.379429105499305" departLane="free"/>
  <flow id="JF204402" begin="600" fromJunction="J0" toJunction="J3" end="660" vehsPerHour="86.13244614968198" departLane="free"/>
  <flow id="JF204403" begin="600" fromJunction="J0" toJunction="J6" end="660" vehsPerHour="36.54497467521888" departLane="free"/>
  <flow id="JF204404" begin="600" fromJunction="J0" toJunction="J7" end="660" vehsPerHour="13.58955142301579" departLane="free"/>
  <flow id="JF204405" begin="600" fromJunction="J3" toJunction="J0" end="660" vehsPerHour="14.373937018886014" departLane="free"/>
  <flow id="JF204406" begin="600" fromJunction="J3" toJunction="J4" end="660" vehsPerHour="11.836749074946354" departLane="free"/>
  <flow id="JF204407" begin="600" fromJunction="J3" toJunction="J5" end="660" vehsPerHour="71.54808240372572" departLane="free"/>
  <flow id="JF204408" begin="600" fromJunction="J3" toJunction="J6" end="660" vehsPerHour="37.04247340826818" departLane="free"/>
  <flow id="JF204409" begin="600" fromJunction="J4" toJunction="J0" end="660" vehsPerHour="12.04795908339155" departLane="free"/>
  <flow id="JF204410" begin="600" fromJunction="J4" toJunction="J6" end="660" vehsPerHour="5.819258564723021" departLane="free"/>
  <flow id="JF204411" begin="600" fromJunction="J4" toJunction="J7" end="660" vehsPerHour="20.9269525747769" departLane="free"/>
  <flow id="JF204412" begin="600" fromJunction="J5" toJunction="J3" end="660" vehsPerHour="16.34355172875665" departLane="free"/>
  <flow id="JF204413" begin="600" fromJunction="J5" toJunction="J4" end="660" vehsPerHour="11.334319722196476" departLane="free"/>
  <flow id="JF204414" begin="600" fromJunction="J5" toJunction="J7" end="660" vehsPerHour="31.252463085224516" departLane="free"/>
  <flow id="JF204415" begin="600" fromJunction="J6" toJunction="J0" end="660" vehsPerHour="13.693415085972312" departLane="free"/>