<?xml version="1.0" encoding="UTF-8"?>
<routes xmlns:xsi="http://www.w3.org/2001/XMLSchema-instance" xsi:noNamespaceSchemaLocation="http://sumo.dlr.de/xsd/routes_file.xsd">
  <flow id="JF197077" begin="0" fromJunction="J0" toJunction="J3" end="60" vehsPerHour="22.651833731290917" departLane="free"/>
  <flow id="JF197078" begin="0" fromJunction="J0" toJunction="J4" end="60" vehsPerHour="106.68459506142203" departLane="free"/>
  <flow id="JF197079" begin="0" fromJunction="J0" toJunction="J5" end="60" vehsPerHour="134.0344727742566" departLane="free"/>
  <flow id="JF197080" begin="0" fromJunction="J0" toJunction="J6" end="60" vehsPerHour="112.55207208664501" departLane="free"/>
  <flow id="JF197081" begin="0" fromJunction="J0" toJunction="J7" end="60" vehsPerHour="67.05730130985633" departLane="free"/>
  <flow id="JF197082" begin="0" fromJunction="J3" toJunction="J6" end="60" vehsPerHour="81.65049618126226" departLane="free"/>
  <flow id="JF197083" begin="0" fromJunction="J4" toJunction="J0" end="60" vehsPerHour="5.817769314810523" departLane="free"/>
  <flow id="JF197084" begin="0" fromJunction="J4" toJunction="J3" end="60" vehsPerHour="23.184558491936063" departLane="free"/>
  <flow id="JF197085" begin="0" fromJunction="J4" toJunction="J6" end="60" vehsPerHour="44.970716366289814" departLane="free"/>
  <flow id="JF197086" begin="0" fromJunction="J4" toJunction="J7" end="60" vehsPerHour="20.81118917737307" departLane="free"/>
  <flow id="JF197087" begin="0" fromJunction="J5" toJunction="J3" end="60" vehsPerHour="32.89658146760942" departLane="free"/>
  <flow id="JF197088" begin="0" fromJunction="J5" toJunction="J4" end="60" vehsPerHour="17.34370822328628" departLane="free"/>
  <flow id="JF197089" begin="0" fromJunction="J5" toJunction="J6" end="60" vehsPerHour="30.637492850170016" departLane="free"/>
  <flow id="JF197090" begin="0" fromJunction="J5" toJunction="J7" end="60" vehsPerHour="42.44476241995283" departLane="free"/>
  <flow id="JF197091" begin="0" fromJunction="J6" toJunction="J0" end="60" vehsPerHour="15.345622487074655" departLane="free"/>
  <flow id="JF197092" begin="0" fromJunction="J6" toJunction="J3" end="60" vehsPerHour="46.35424486010614" departLane="free"/>
  <flow id="JF197093" begin="0" fromJunction="J6" toJunction="J4" end="60" vehsPerHour="22.36160990115246" departLane="free"/>
  <flow id="JF197094" begin="0" fromJunction="J6" toJunction="J5" end="60" vehsPerHour="25.19869616031647" departLane="free"/>
  <flow id="JF197095" begin="0" fromJunction="J6" toJunction="J7" end="60" vehsPerHour="25.491404906803677" departLane="free"/>
  <flow id="JF197096" begin="0" fromJunction="J7" toJunction="J0" end="60" vehsPerHour="55.16755863762169" departLane="free"/>
  <flow id="JF197097" begin="0" fromJunction="J7" toJunction="J3" end="60" vehsPerHour="35.75177955896637" departLane="free"/>
  <flow id="JF197098" begin="0" fromJunction="J7" toJunction="J4" end="60" vehsPerHour="4.863955073043059" departLane="free"/>
  <flow id="JF197099" begin="0" fromJunction="J7" toJunction="J6" end="60" vehsPerHour="40.64680158663578" departLane="free"/>
  <flow id="JF197100" begin="60" fromJunction="J0" toJunction="J3" end="120" vehsPerHour="63.53341919268341" departLane="free"/>
  <flow id="JF197101" begin="60" fromJunction="J0" toJunction="J4" end="120" vehsPerHour="108.16216234208675" departLane="free"/>
  <flow id="JF197102" begin="60" fromJunction="J0" toJunction="J7" end="120" vehsPerHour="115.06980902580773" departLane="free"/>
  <flow id="JF197103" begin="60" fromJunction="J3" toJunction="J0" end="120" vehsPerHour="85.4008163241105" departLane="free"/>
  <flow id="JF197104" begin="60" fromJunction="J3" toJunction="J4" end="120" vehsPerHour="135.0246149579753" departLane="free"/>
  <flow id="JF197105" begin="60" fromJunction="J3" toJunction="J5" end="120" vehsPerHour="40.489164056470536" departLane="free"/>
  <flow id="JF197106" begin="60" fromJunction="J3" toJunction="J6" end="120" vehsPerHour="37.03606123933628" departLane="free"/>
  <flow id="JF197107" begin="60" fromJunction="J3" toJunction="J7" end="120" vehsPerHour="6.703863021606633" departLane="free"/>
  <flow id="JF197108" begin="60" fromJunction="J4" toJunction="J0" end="120" vehsPerHour="21.415339022543147" departLane="free"/>
  <flow id="JF197109" begin="60" fromJunction="J4" toJunction="J3" end="120" vehsPerHour="58.270767473182836" departLane="free"/>
  <flow id="JF197110" begin="60" fromJunction="J4" toJunction="J5" end="120" vehsPerHour="59.61166795134773" departLane="free"/>
  <flow id="JF197111" begin="60" fromJunction="J5" toJunction="J0" end="120" vehsPerHour="4.317909702771026" departLane="free"/>
  <flow id="JF197112" begin="60" fromJunction="J5" toJunction="J3" end="120" vehsPerHour="0.8670880075151322" departLane="free"/>
  <flow id="JF197113" begin="60" fromJunction="J5" toJunction="J4" end="120" vehsPerHour="18.90002348196668" departLane="free"/>
  <flow id="JF197114" begin="60" fromJunction="J5" toJunction="J7" end="120" vehsPerHour="20.92333338844725" departLane="free"/>
  <flow id="JF197115" begin="60" fromJunction="J6" toJunction="J0" end="120" vehsPerHour="67.43667043151378" departLane="free"/>
  <flow id="JF197116" begin="60" fromJunction="J6" toJunction="J3" end="120" vehsPerHour="4.0248545163197775" departLane="free"/>
  <flow id="JF197117" begin="60" fromJunction="J6" toJunction="J4" end="120" vehsPerHour="44.875008787158585" departLane="free"/>
  <flow id="JF197118" begin="60" fromJunction="J6" toJunction="J5" end="120" vehsPerHour="45.62346427839079" departLane="free"/>
  <flow id="JF197119" begin="60" fromJunction="J6" toJunction="J7" end="120" vehsPerHour="3.3817491312010173" departLane="free"/>
  <flow id="JF197120" begin="60" fromJunction="J7" toJunction="J0" end="120" vehsPerHour="56.67148892842944" departLane="free"/>
  <flow id="JF197121" begin="60" fromJunction="J7" toJunction="J3" end="120" vehsPerHour="6.575339234721659" departLane="free"/>
  <flow id="JF197122" begin="60" fromJunction="J7" toJunction="J4" end="120" vehsPerHour="25.369465688578416" departLane="free"/>
  <flow id="JF197123" begin="60" fromJunction="J7" toJunction="J5" end="120" vehsPerHour="6.447607554727266" departLane="free"/>
  <flow id="JF197124" begin="60" fromJunction="J7" toJunction="J6" end="120" vehsPerHour="35.89207932493168" departLane="free"/>
  <flow id="JF197125" begin="120" fromJunction="J0" toJunction="J3" end="180" vehsPerHour="39.39396756204363" departLane="free"/>
  <flow id="JF197126" begin="120" fromJunction="J0" toJunction="J4" end="180" vehsPerHour="49.71920079090227" departLane="free"/>
  <flow id="JF197127" begin="120" fromJunction="J0" toJunction="J6" end="180" vehsPerHour="23.14971497823431" departLane="free"/>
  <flow id="JF197128" begin="120" fromJunction="J0" toJunction="J7" end="180" vehsPerHour="84.58264760628099" departLane="free"/>
  <flow id="JF197129" begin="120" fromJunction="J3" toJunction="J0" end="180" vehsPerHour="110.48726295128242" departLane="free"/>
  <flow id="JF197130" begin="120" fromJunction="J3" toJunction="J4" end="180" vehsPerHour="45.398216042330006" departLane="free"/>
  <flow id="JF197131" begin="120" fromJunction="J3" toJunction="J5" end="180" vehsPerHour="61.64987495344425" departLane="free"/>
  <flow id="JF197132" begin="120" fromJunction="J3" toJunction="J6" end="180" vehsPerHour="85.6571310743077" departLane="free"/>
  <flow id="JF197133" begin="120" fromJunction="J3" toJunction="J7" end="180" vehsPerHour="103.08021396614511" departLane="free"/>
  <flow id="JF197134" begin="120" fromJunction="J4" toJunction="J3" end="180" vehsPerHour="67.33340661018748" departLane="free"/>
  <flow id="JF197135" begin="120" fromJunction="J4" toJunction="J5" end="180" vehsPerHour="18.843541268063937" departLane="free"/>
  <flow id="JF197136" begin="120" fromJunction="J4" toJunction="J6" end="180" vehsPerHour="25.166204076525254" departLane="free"/>
  <flow id="JF197137" begin="120" fromJunction="J5" toJunction="J0" end="180" vehsPerHour="36.875659518472204" departLane="free"/>
  <flow id="JF197138" begin="120" fromJunction="J5" toJunction="J4" end="180" vehsPerHour="5.505128955515066" departLane="free"/>
  <flow id="JF197139" begin="120" fromJunction="J5" toJunction="J6" end="180" vehsPerHour="49.19682202108341" departLane="free"/>
  <flow id="JF197140" begin="120" fromJunction="J6" toJunction="J0" end="180" vehsPerHour="4.09445615808052" departLane="free"/>
  <flow id="JF197141" begin="120" fromJunction="J6" toJunction="J3" end="180" vehsPerHour="20.010559890945476" departLane="free"/>
  <flow id="JF197142" begin="120" fromJunction="J6" toJunction="J4" end="180" vehsPerHour="37.10986300344267" departLane="free"/>
  <flow id="JF197143" begin="120" fromJunction="J6" toJunction="J5" end="180" vehsPerHour="52.62164093536552" departLane="free"/>
  <flow id="JF197144" begin="120" fromJunction="J6" toJunction="J7" end="180" vehsPerHour="9.293018984027041" departLane="free"/>
  <flow id="JF197145" begin="120" fromJunction="J7" toJunction="J0" end="180" vehsPerHour="60.39236822953823" departLane="free"/>
  <flow id="JF197146" begin="120" fromJunction="J7" toJunction="J4" end="180" vehsPerHour="48.00998543256978" departLane="free"/>
  <flow id="JF197147" begin="120" fromJunction="J7" toJunction="J5" end="180" vehsPerHour="42.68240971462439" departLane="free"/>
  <flow id="JF197148" begin="120" fromJunction="J7" toJunction="J6" end="180" vehsPerHour="5.078740412972775" departLane="free"/>
  <flow id="JF197149" begin="180" fromJunction="J0" toJunction="J4" end="240" vehsPerHour="125.36019594307307" departLane="free"/>
  <flow id="JF197150" begin="180" fromJunction="J0" toJunction="J5" end="240" vehsPerHour="82.38406940900565" departLane="free"/>
  <flow id="JF197151" begin="180" fromJunction="J0" toJunction="J6" end="240" vehsPerHour="93.52158815176415" departLane="free"/>
  <flow id="JF197152" begin="180" fromJunction="J0" toJunction="J7" end="240" vehsPerHour="22.765193495608194" departLane="free"/>
  <flow id="JF197153" begin="180" fromJunction="J3" toJunction="J0" end="240" vehsPerHour="133.12430712983763" departLane="free"/>
  <flow id="JF197154" begin="180" fromJunction="J3" toJunction="J4" end="240" vehsPerHour="33.55925366755192" departLane="free"/>
  <flow id="JF197155" begin="180" fromJunction="J3" toJunction="J6" end="240" vehsPerHour="100.16631474642202" departLane="free"/>
  <flow id="JF197156" begin="180" fromJunction="J3" toJunction="J7" end="240" vehsPerHour="70.38462361452027" departLane="free"/>
  <flow id="JF197157" begin="180" fromJunction="J4" toJunction="J0" end="240" vehsPerHour="4.462674127241285" departLane="free"/>
  <flow id="JF197158" begin="180" fromJunction="J4" toJunction="J3" end="240" vehsPerHour="38.05875389645521" departLane="free"/>
  <flow id="JF197159" begin="180" fromJunction="J5" toJunction="J0" end="240" vehsPerHour="12.978751441854806" departLane="free"/>
  <flow id="JF197160" begin="180" fromJunction="J5" toJunction="J3" end="240" vehsPerHour="53.64898421032819" departLane="free"/>
  <flow id="JF197161" begin="180" fromJunction="J5" toJunction="J4" end="240" vehsPerHour="19.490470618421817" departLane="free"/>
  <flow id="JF197162" begin="180" fromJunction="J5" toJunction="J6" end="240" vehsPerHour="60.74386320981737" departLane="free"/>
  <flow id="JF197163" begin="180" fromJunction="J6" toJunction="J0" end="240" vehsPerHour="45.53589147617632" departLane="free"/>
  <flow id="JF197164" begin="180" fromJunction="J6" toJunction="J3" end="240" vehsPerHour="53.39621958439104" departLane="free"/>
  <flow id="JF197165" begin="180" fromJunction="J6" toJunction="J4" end="240" vehsPerHour="50.95127189971107" departLane="free"/>
  <flow id="JF197166" begin="180" fromJunction="J6" toJunction="J5" end="240" vehsPerHour="62.652658604492274" departLane="free"/>
  <flow id="JF197167" begin="180" fromJunction="J6" toJunction="J7" end="240" vehsPerHour="5.861383312881434" departLane="free"/>
  <flow id="JF197168" begin="180" fromJunction="J7" toJunction="J3" end="240" vehsPerHour="53.8724933066218" departLane="free"/>
  <flow id="JF197169" begin="180" fromJunction="J7" toJunction="J6" end="240" vehsPerHour="58.31896839781245" departLane="free"/>
  <flow id="JF197170" begin="240" fromJunction="J0" toJunction="J4" end="300" vehsPerHour="6.040406205000154" departLane="free"/>
  <flow id="JF197171" begin="240" fromJunction="J0" toJunction="J5" end="300" vehsPerHour="95.68079553571727" departLane="free"/>
  <flow id="JF197172" begin="240" fromJunction="J3" toJunction="J0" end="300" vehsPerHour="113.62831738109709" departLane="free"/>
  <flow id="JF197173" begin="240" fromJunction="J3" toJunction="J4" end="300" vehsPerHour="84.40845674827585" departLane="free"/>
  <flow id="JF197174" begin="240" fromJunction="J3" toJunction="J5" end="300" vehsPerHour="57.36197974212204" departLane="free"/>
  <flow id="JF197175" begin="240" fromJunction="J3" toJunction="J6" end="300" vehsPerHour="93.17549235351957" departLane="free"/>
  <flow id="JF197176" begin="240" fromJunction="J3" toJunction="J7" end="300" vehsPerHour="61.510079748473565" departLane="free"/>
  <flow id="JF197177" begin="240" fromJunction="J4" toJunction="J0" end="300" vehsPerHour="24.248103823239994" departLane="free"/>
  <flow id="JF197178" begin="240" fromJunction="J4" toJunction="J6" end="300" vehsPerHour="49.16087261385662" departLane="free"/>
  <flow id="JF197179" begin="240" fromJunction="J4" toJunction="J7" end="300" vehsPerHour="46.75055860856549" departLane="free"/>
  <flow id="JF197180" begin="240" fromJunction="J5" toJunction="J0" end="300" vehsPerHour="67.83710825534176" departLane="free"/>
  <flow id="JF197181" begin="240" fromJunction="J5" toJunction="J7" end="300" vehsPerHour="60.792989389056636" departLane="free"/>
  <flow id="JF197182" begin="240" fromJunction="J6" toJunction="J0" end="300" vehsPerHour="31.284273563433104" departLane="free"/>
  <flow id="JF197183" begin="240" fromJunction="J6" toJunction="J3" end="300" vehsPerHour="6.756093592378507" departLane="free"/>
  <flow id="JF197184" begin="240" fromJunction="J6" toJunction="J4" end="300" vehsPerHour="38.693013369933716" departLane="free"/>
  <flow id="JF197185" begin="240" fromJunction="J6" toJunction="J5" end="300" vehsPerHour="46.09696657412692" departLane="free"/>
  <flow id="JF197186" begin="240" fromJunction="J6" toJunction="J7" end="300" vehsPerHour="26.31201261911199" departLane="free"/>
  <flow id="JF197187" begin="240" fromJunction="J7" toJunction="J0" end="300" vehsPerHour="34.116654536007346" departLane="free"/>
  <flow id="JF197188" begin="240" fromJunction="J7" toJunction="J3" end="300" vehsPerHour="43.2711866281559" departLane="free"/>
  <flow id="JF197189" begin="240" fromJunction="J7" toJunction="J5" end="300" vehsPerHour="42.34113865454836" departLane="free"/>
  <flow id="JF197190" begin="300" fromJunction="J0" toJunction="J3" end="360" vehsPerHour="114.86972106598827" departLane="free"/>
  <flow id="JF197191" begin="300" fromJunction="J0" toJunction="J4" end="360" vehsPerHour="14.582689069443285" departLane="free"/>
  <flow id="JF197192" begin="300" fromJunction="J0" toJunction="J5" end="360" vehsPerHour="106.40893156182265" departLane="free"/>
  <flow id="JF197193" begin="300" fromJunction="J0" toJunction="J7" end="360" vehsPerHour="26.68225760216959" departLane="free"/>
  <flow id="JF197194" begin="300" fromJunction="J3" toJunction="J0" end="360" vehsPerHour="57.55658437524473" departLane="free"/>
  <flow id="JF197195" begin="300" fromJunction="J3" toJunction="J4" end="360" vehsPerHour="20.628659597656824" departLane="free"/>
  <flow id="JF197196" begin="300" fromJunction="J3" toJunction="J5" end="360" vehsPerHour="58.442324323692816" departLane="free"/>
  <flow id="JF197197" begin="300" fromJunction="J4" toJunction="J3" end="360" vehsPerHour="65.53081521718316" departLane="free"/>
  <flow id="JF197198" begin="300" fromJunction="J4" toJunction="J5" end="360" vehsPerHour="10.603378848265224" departLane="free"/>
  <flow id="JF197199" begin="300" fromJunction="J5" toJunction="J0" end="360" vehsPerHour="58.69520611047642" departLane="free"/>
  <flow id="JF197200" begin="300" fromJunction="J5" toJunction="J3" end="360" vehsPerHour="22.640170044774226" departLane="free"/>
  <flow id="JF197201" begin="300" fromJunction="J5" toJunction="J4" end="360" vehsPerHour="5.0673967671071685" departLane="free"/>
  <flow id="JF197202" begin="300" fromJunction="J6" toJunction="J0" end="360" vehsPerHour="34.000276662715066" departLane="free"/>
  <flow id="JF197203" begin="300" fromJunction="J6" toJunction="J4" end="360" vehsPerHour="58.202269874171996" departLane="free"/>
  <flow id="JF197204" begin="300" fromJunction="J6" toJunction="J5" end="360" vehsPerHour="25.721949745387295" departLane="free"/>
  <flow id="JF197205" begin="300" fromJunction="J6" toJunction="J7" end="360" vehsPerHour="5.144814623119815" departLane="free"/>
  <flow id="JF197206" begin="300" fromJunction="J7" toJunction="J0" end="360" vehsPerHour="0.9911231018956671" departLane="free"/>
  <flow id="JF197207" begin="300" fromJunction="J7" toJunction="J6" end="360" vehsPerHour="55.897924982766185" departLane="free"/>
  <flow id="JF197208" begin="360" fromJunction="J0" toJunction="J4" end="420" vehsPerHour="124.11084482478157" departLane="free"/>
  <flow id="JF197209" begin="360" fromJunction="J0" toJunction="J5" end="420" vehsPerHour="35.753258386583674" departLane="free"/>
  <flow id="JF197210" begin="360" fromJunction="J0" toJunction="J6" end="420" vehsPerHour="46.03808045265139" departLane="free"/>
  <flow id="JF197211" begin="360" fromJunction="J0" toJunction="J7" end="420" vehsPerHour="120.37521276367185" departLane="free"/>
  <flow id="JF197212" begin="360" fromJunction="J3" toJunction="J4" end="420" vehsPerHour="26.720972651993343" departLane="free"/>
  <flow id="JF197213" begin="360" fromJunction="J3" toJunction="J6" end="420" vehsPerHour="87.61115396405364" departLane="free"/>
  <flow id="JF197214" begin="360" fromJunction="J3" toJunction="J7" end="420" vehsPerHour="69.14099674575169" departLane="free"/>
  <flow id="JF197215" begin="360" fromJunction="J4" toJunction="J5" end="420" vehsPerHour="9.79850469854865" departLane="free"/>
  <flow id="JF197216" begin="360" fromJunction="J5" toJunction="J0" end="420" vehsPerHour="32.70372981512591" departLane="free"/>
  <flow id="JF197217" begin="360" fromJunction="J5" toJunction="J3" end="420" vehsPerHour="12.94485793006331" departLane="free"/>
  <flow id="JF197218" begin="360" fromJunction="J5" toJunction="J4" end="420" vehsPerHour="16.174382466021463" departLane="free"/>
  <flow id="JF197219" begin="360" fromJunction="J5" toJunction="J6" end="420" vehsPerHour="24.653927447524627" departLane="free"/>
  <flow id="JF197220" begin="360" fromJunction="J6" toJunction="J0" end="420" vehsPerHour="48.93504709212586" departLane="free"/>
  <flow id="JF197221" begin="360" fromJunction="J6" toJunction="J3" end="420" vehsPerHour="22.877244450851062" departLane="free"/>
  <flow id="JF197222" begin="360" fromJunction="J6" toJunction="J4" end="420" vehsPerHour="19.200368228690245" departLane="free"/>
  <flow id="JF197223" begin="360" fromJunction="J6" toJunction="J7" end="420" vehsPerHour="44.33176173895969" departLane="free"/>
  <flow id="JF197224" begin="360" fromJunction="J7" toJunction="J0" end="420" vehsPerHour="25.465251664432284" departLane="free"/>
  <flow id="JF197225" begin="360" fromJunction="J7" toJunction="J3" end="420" vehsPerHour="56.419162433830124" departLane="free"/>
  <flow id="JF197226" begin="360" fromJunction="J7" toJunction="J4" end="420" vehsPerHour="10.160083049636428" departLane="free"/>
  <flow id="JF197227" begin="360" fromJunction="J7" toJunction="J5" end="420" vehsPerHour="49.33878852192273" departLane="free"/>
  <flow id="JF197228" begin="420" fromJunction="J0" toJunction="J4" end="480" vehsPerHour="84.77686740042874" departLane="free"/>
  <flow id="JF197229" begin="420" fromJunction="J0" toJunction="J5" end="480" vehsPerHour="31.4976055089973" departLane="free"/>
  <flow id="JF197230" begin="420" fromJunction="J0" toJunction="J6" end="480" vehsPerHour="108.35650563761004" departLane="free"/>
  <flow id="JF197231" begin="420" fromJunction="J3" toJunction="J0" end="480" vehsPerHour="113.9674146187063" departLane="free"/>
  <flow id="JF197232" begin="420" fromJunction="J3" toJunction="J4" end="480" vehsPerHour="117.35486503601051" departLane="free"/>
  <flow id="JF197233" begin="420" fromJunction="J3" toJunction="J5" end="480" vehsPerHour="113.9530420557656" departLane="free"/>
  <flow id="JF197234" begin="420" fromJunction="J3" toJunction="J6" end="480" vehsPerHour="66.50968198381966" departLane="free"/>
  <flow id="JF197235" begin="420" fromJunction="J4" toJunction="J3" end="480" vehsPerHour="32.37250299112013" departLane="free"/>
  <flow id="JF197236" begin="420" fromJunction="J4" toJunction="J7" end="480" vehsPerHour="13.973196573020179" departLane="free"/>
  <flow id="JF197237" begin="420" fromJunction="J5" toJunction="J0" end="480" vehsPerHour="50.147036541831085" departLane="free"/>
  <flow id="JF197238" begin="420" fromJunction="J5" toJunction="J3" end="480" vehsPerHour="10.93405471548808" departLane="free"/>
  <flow id="JF197239" begin="420" fromJunction="J5" toJunction="J4" end="480" vehsPerHour="15.578972157281296" departLane="free"/>
  <flow id="JF197240" begin="420" fromJunction="J5" toJunction="J6" end="480" vehsPerHour="0.7472708724579779" departLane="free"/>
  <flow id="JF197241" begin="420" fromJunction="J5" toJunction="J7" end="480" vehsPerHour="45.86645863369102" departLane="free"/>
  <flow id="JF197242" begin="420" fromJunction="J6" toJunction="J0" end="480" vehsPerHour="64.85904225805609" departLane="free"/>
  <flow id="JF197243" begin="420" fromJunction="J6" toJunction="J3" end="480" vehsPerHour="60.649450540188994" departLane="free"/>
  <flow id="JF197244" begin="420" fromJunction="J6" toJunction="J5" end="480" vehsPerHour="44.910925716934806" departLane="free"/>
  <flow id="JF197245" begin="420" fromJunction="J6" toJunction="J7" end="480" vehsPerHour="55.21104128221524" departLane="free"/>
  <flow id="JF197246" begin="420" fromJunction="J7" toJunction="J0" end="480" vehsPerHour="54.78376283085685" departLane="free"/>
  <flow id="JF197247" begin="420" fromJunction="J7" toJunction="J3" end="480" vehsPerHour="60.244616039448566" departLane="free"/>
  <flow id="JF197248" begin="420" fromJunction="J7" toJunction="J4" end="480" vehsPerHour="13.96232616984412" departLane="free"/>
  <flow id="JF197249" begin="420" fromJunction="J7" toJunction="J5" end="480" vehsPerHour="23.893882197178222" departLane="free"/>
  <flow id="JF197250" begin="420" fromJunction="J7" toJunction="J6" end="480" vehsPerHour="46.63638037893884" departLane="free"/>
  <flow id="JF197251" begin="480" fromJunction="J0" toJunction="J3" end="540" vehsPerHour="6.964604314424156" departLane="free"/>
  <flow id="JF197252" begin="480" fromJunction="J0" toJunction="J6" end="540" vehsPerHour="88.9117708186601" departLane="free"/>
  <flow id="JF197253" begin="480" fromJunction="J0" toJunction="J7" end="540" vehsPerHour="39.36731185404627" departLane="free"/>
  <flow id="JF197254" begin="480" fromJunction="J3" toJunction="J4" end="540" vehsPerHour="107.54098207897876" departLane="free"/>
  <flow id="JF197255" begin="480" fromJunction="J3" toJunction="J5" end="540" vehsPerHour="122.41082171119302" departLane="free"/>
  <flow id="JF197256" begin="480" fromJunction="J3" toJunction="J6" end="540" vehsPerHour="116.81901986628733" departLane="free"/>
  <flow id="JF197257" begin="480" fromJunction="J3" toJunction="J7" end="540" vehsPerHour="78.63882352417653" departLane="free"/>
  <flow id="JF197258" begin="480" fromJunction="J4" toJunction="J5" end="540" vehsPerHour="12.11019877166765" departLane="free"/>
  <flow id="JF197259" begin="480" fromJunction="J4" toJunction="J6" end="540" vehsPerHour="42.883817196975826" departLane="free"/>
  <flow id="JF197260" begin="480" fromJunction="J4" toJunction="J7" end="540" vehsPerHour="15.28408016387372" departLane="free"/>
  <flow id="JF197261" begin="480" fromJunction="J5" toJunction="J0" end="540" vehsPerHour="67.59566173289173" departLane="free"/>
  <flow id="JF197262" begin="480" fromJunction="J5" toJunction="J3" end="540" vehsPerHour="39.219970483753066" departLane="free"/>
  <flow id="JF197263" begin="480" fromJunction="J5" toJunction="J4" end="540" vehsPerHour="42.58489070195505" departLane="free"/>
  <flow id="JF197264" begin="480" fromJunction="J5" toJunction="J7" end="540" vehsPerHour="51.33181699973838" departLane="free"/>
  <flow id="JF197265" begin="480" fromJunction="J6" toJunction="J0" end="540" vehsPerHour="14.840525884817842" departLane="free"/>
  <flow id="JF197266" begin="480" fromJunction="J6" toJunction="J4" end="540" vehsPerHour="60.19015604996448" departLane="free"/>
  <flow id="JF197267" begin="480" fromJunction="J6" toJunction="J7" end="540" vehsPerHour="51.7806936789859" departLane="free"/>
  <flow id="JF197268" begin="480" fromJunction="J7" toJunction="J3" end="540" vehsPerHour="46.80278421356415" departLane="free"/>
  <flow id="JF197269" begin="480" fromJunction="J7" toJunction="J4" end="540" vehsPerHour="10.494831662166773" departLane="free"/>
  <flow id="JF197270" begin="480" fromJunction="J7" toJunction="J5" end="540" vehsPerHour="24.96896805992412" departLane="free"/>
  <flow id="JF197271" begin="540" fromJunction="J0" toJunction="J4" end="600" vehsPerHour="13.986439963842395" departLane="free"/>
  <flow id="JF197272" begin="540" fromJunction="J0" toJunction="J5" end="600" vehsPerHour="50.76589713646395" departLane="free"/>
  <flow id="JF197273" begin="540" fromJunction="J0" toJunction="J7" end="600" vehsPerHour="124.37701543143652" departLane="free"/>
  <flow id="JF197274" begin="540" fromJunction="J3" toJunction="J0" end="600" vehsPerHour="105.68527549563322" departLane="free"/>
  <flow id="JF197275" begin="540" fromJunction="J3" toJunction="J6" end="600" vehsPerHour="5.491835366564884" departLane="free"/>
  <flow id="JF197276" begin="540" fromJunction="J3" toJunction="J7" end="600" vehsPerHour="17.818711290128142" departLane="free"/>
  <flow id="JF197277" begin="540" fromJunction="J4" toJunction="J6" end="600" vehsPerHour="57.70514456312177" departLane="free"/>
  <flow id="JF197278" begin="540" fromJunction="J4" toJunction="J7" end="600" vehsPerHour="20.11362205148455" departLane="free"/>
  <flow id="JF197279" begin="540" fromJunction="J5" toJunction="J4" end="600" vehsPerHour="28.817015089596623" departLane="free"/>
  <flow id="JF197280" begin="540" fromJunction="J5" toJunction="J6" end="600" vehsPerHour="26.01132281893395" departLane="free"/>
  <flow id="JF197281" begin="540" fromJunction="J6" toJunction="J0" end="600" vehsPerHour="49.48354847338353" departLane="free"/>
  <flow id="JF197282" begin="540" fromJunction="J6" toJunction="J4" end="600" vehsPerHour="66.2664173558221" departLane="free"/>
  <flow id="JF197283" begin="540" fromJunction="J6" toJunction="J5" end="600" vehsPerHour="44.69805826631446" departLane="free"/>
  <flow id="JF197284" begin="540" fromJunction="J6" toJunction="J7" end="600" vehsPerHour="9.827012660172064" departLane="free"/>
  <flow id="JF197285" begin="540" fromJunction="J7" toJunction="J0" end="600" vehsPerHour="28.6611921227427" departLane="free"/>
  <flow id="JF197286" begin="540" fromJunction="J7" toJunction="J3" end="600" vehsPerHour="44.34830045007076" departLane="free"/>
  <flow id="JF197287" begin="540" fromJunction="J7" toJunction="J4" end="600" vehsPerHour="64.04326556582856" departLane="free"/>
  <flow id="JF197288" begin="540" fromJunction="J7" toJunction="J5" end="600" vehsPerHour="25.391695105480725" departLane="free"/>
  <flow id="JF197289" begin="540" fromJunction="J7" toJunction="J6" end="600" vehsPerHour="22.479225573125593" departLane="free"/>
  <flow id="JF197290" begin="600" fromJunction="J0" toJunction="J5" end="660" vehsPerHour="121.85767363411316" departLane="free"/>
  <flow id="JF197291" begin="600" fromJunction="J0" toJunction="J6" end="660" vehsPerHour="76.23861083280656" departLane="free"/>
  <flow id="JF197292" begin="600" fromJunction="J3" toJunction="J0" end="660" vehsPerHour="39.85545893379893" departLane="free"/>
  <flow id="JF197293" begin="600" fromJunction="J3" toJunction="J4" end="660" vehsPerHour="4.660303904996235" departLane="free"/>
  <flow id="JF197294" begin="600" fromJunction="J3" toJunction="J5" end="660" vehsPerHour="34.53365410343114" departLane="free"/>
  <flow id="JF197295" begin="600" fromJunction="J3" toJunction="J6" end="660" vehsPerHour="37.126954282964846" departLane="free"/>
  <flow id="JF197296" begin="600" fromJunction="J3" toJunction="J7" end="660" vehsPerHour="14.235020674090713" departLane="free"/>
  <flow id="JF197297" begin="600" fromJunction="J4" toJunction="J5" end="660" vehsPerHour="1.791253621924967" departLane="free"/>
  <flow id="JF197298" begin="600" fromJunction="J4" toJunction="J6" end="660" vehsPerHour="18.727216565732476" departLane="free"/>
  <flow id="JF197299" begin="600" fromJunction="J4" toJunction="J7" end="660" vehsPerHour="20.748542432556842" departLane="free"/>
  <flow id="JF197300" begin="600" fromJunction="J5" toJunction="J0" end="660" vehsPerHour="30.060579076869733" departLane="free"/>
  <flow id="JF197301" begin="600" fromJunction="J5" toJunction="J3" end="660" vehsPerHour="9.80067677023828" departLane="free"/>
  <flow id="JF197302" begin="600" fromJunction="J5" toJunction="J4" end="660" vehsPerHour="43.68388683674098" departLane="free"/>
  <flow id="JF197303" begin="600" fromJunction="J5" toJunction="J6" end="660" vehsPerHour="14.008653453729085" departLane="free"/>
  <flow id="JF197304" begin="600" fromJunction="J5" toJunction="J7" end="660" vehsPerHour="60.48561333357371" departLane="free"/>
  <flow id="JF197305" begin="600" fromJunction="J6" toJunction="J0" end="660" vehsPerHour="56.053774740209306" departLane="free"/>