<?xml version="1.0" encoding="UTF-8"?>
<routes xmlns:xsi="http://www.w3.org/2001/XMLSchema-instance" xsi:noNamespaceSchemaLocation="http://sumo.dlr.de/xsd/routes_file.xsd">
  <flow id="JF198845" begin="0" fromJunction="J0" toJunction="J3" end="60" vehsPerHour="37.47389793439515" departLane="free"/>
  <flow id="JF198846" begin="0" fromJunction="J0" toJunction="J4" end="60" vehsPerHour="125.66902576261441" departLane="free"/>
  <flow id="JF198847" begin="0" fromJunction="J0" toJunction="J7" end="60" vehsPerHour="40.72680331201891" departLane="free"/>
  <flow id="JF198848" begin="0" fromJunction="J3" toJunction="J0" end="60" vehsPerHour="80.98854032243149" departLane="free"/>
  <flow id="JF198849" begin="0" fromJunction="J3" toJunction="J4" end="60" vehsPerHour="125.58060172936798" departLane="free"/>
  <flow id="JF198850" begin="0" fromJunction="J3" toJunction="J5" end="60" vehsPerHour="104.32371030407323" departLane="free"/>
  <flow id="JF198851" begin="0" fromJunction="J3" toJunction="J7" end="60" vehsPerHour="130.79179151080783" departLane="free"/>
  <flow id="JF198852" begin="0" fromJunction="J4" toJunction="J3" end="60" vehsPerHour="1.257983372875063" departLane="free"/>
  <flow id="JF198853" begin="0" fromJunction="J4" toJunction="J5" end="60" vehsPerHour="61.077133482295835" departLane="free"/>
  <flow id="JF198854" begin="0" fromJunction="J4" toJunction="J6" end="60" vehsPerHour="42.01702860820201" departLane="free"/>
  <flow id="JF198855" begin="0" fromJunction="J5" toJunction="J0" end="60" vehsPerHour="37.154519109027774" departLane="free"/>
  <flow id="JF198856" begin="0" fromJunction="J5" toJunction="J3" end="60" vehsPerHour="27.47002676422011" departLane="free"/>
  <flow id="JF198857" begin="0" fromJunction="J5" toJunction="J4" end="60" vehsPerHour="36.743588697239" departLane="free"/>
  <flow id="JF198858" begin="0" fromJunction="J5" toJunction="J6" end="60" vehsPerHour="66.07379873825708" departLane="free"/>
  <flow id="JF198859" begin="0" fromJunction="J5" toJunction="J7" end="60" vehsPerHour="40.61537381730342" departLane="free"/>
  <flow id="JF198860" begin="0" fromJunction="J6" toJunction="J0" end="60" vehsPerHour="32.515530422468075" departLane="free"/>
  <flow id="JF198861" begin="0" fromJunction="J6" toJunction="J7" end="60" vehsPerHour="61.26114768150087" departLane="free"/>
  <flow id="JF198862" begin="0" fromJunction="J7" toJunction="J0" end="60" vehsPerHour="37.32834287609567" departLane="free"/>
  <flow id="JF198863" begin="0" fromJunction="J7" toJunction="J3" end="60" vehsPerHour="15.70758367009598" departLane="free"/>
  <flow id="JF198864" begin="0" fromJunction="J7" toJunction="J4" end="60" vehsPerHour="47.38759075831268" departLane="free"/>
  <flow id="JF198865" begin="0" fromJunction="J7" toJunction="J5" end="60" vehsPerHour="7.924408496055604" departLane="free"/>
  <flow id="JF198866" begin="0" fromJunction="J7" toJunction="J6" end="60" vehsPerHour="54.45846018770334" departLane="free"/>
  <flow id="JF198867" begin="60" fromJunction="J0" toJunction="J3" end="120" vehsPerHour="25.63894687186044" departLane="free"/>
  <flow id="JF198868" begin="60" fromJunction="J0" toJunction="J5" end="120" vehsPerHour="4.974132316040336" departLane="free"/>
  <flow id="JF198869" begin="60" fromJunction="J0" toJunction="J6" end="120" vehsPerHour="55.948077446518234" departLane="free"/>
  <flow id="JF198870" begin="60" fromJunction="J4" toJunction="J0" end="120" vehsPerHour="65.85190108833432" departLane="free"/>
  <flow id="JF198871" begin="60" fromJunction="J4" toJunction="J3" end="120" vehsPerHour="65.61147342356328" departLane="free"/>
  <flow id="JF198872" begin="60" fromJunction="J4" toJunction="J5" end="120" vehsPerHour="30.91751405503967" departLane="free"/>
  <flow id="JF198873" begin="60" fromJunction="J4" toJunction="J6" end="120" vehsPerHour="27.884483047585828" departLane="free"/>
  <flow id="JF198874" begin="60" fromJunction="J4" toJunction="J7" end="120" vehsPerHour="26.386605104349183" departLane="free"/>
  <flow id="JF198875" begin="60" fromJunction="J5" toJunction="J0" end="120" vehsPerHour="20.00832905109231" departLane="free"/>
  <flow id="JF198876" begin="60" fromJunction="J5" toJunction="J6" end="120" vehsPerHour="0.5123587246931831" departLane="free"/>
  <flow id="JF198877" begin="60" fromJunction="J6" toJunction="J0" end="120" vehsPerHour="2.045775580109242" departLane="free"/>
  <flow id="JF198878" begin="60" fromJunction="J6" toJunction="J3" end="120" vehsPerHour="0.6628606595642613" departLane="free"/>
  <flow id="JF198879" begin="60" fromJunction="J6" toJunction="J4" end="120" vehsPerHour="65.27420041879792" departLane="free"/>
  <flow id="JF198880" begin="60" fromJunction="J6" toJunction="J5" end="120" vehsPerHour="50.57671619464826" departLane="free"/>
  <flow id="JF198881" begin="60" fromJunction="J6" toJunction="J7" end="120" vehsPerHour="39.045678750501565" departLane="free"/>
  <flow id="JF198882" begin="60" fromJunction="J7" toJunction="J0" end="120" vehsPerHour="59.0316261916435" departLane="free"/>
  <flow id="JF198883" begin="60" fromJunction="J7" toJunction="J3" end="120" vehsPerHour="34.781584402120444" departLane="free"/>
  <flow id="JF198884" begin="60" fromJunction="J7" toJunction="J5" end="120" vehsPerHour="67.27643732161557" departLane="free"/>
  <flow id="JF198885" begin="60" fromJunction="J7" toJunction="J6" end="120" vehsPerHour="19.334947628854987" departLane="free"/>
  <flow id="JF198886" begin="120" fromJunction="J0" toJunction="J3" end="180" vehsPerHour="77.22221992216554" departLane="free"/>
  <flow id="JF198887" begin="120" fromJunction="J0" toJunction="J4" end="180" vehsPerHour="36.466121235935425" departLane="free"/>
  <flow id="JF198888" begin="120" fromJunction="J0" toJunction="J6" end="180" vehsPerHour="127.00954192669597" departLane="free"/>
  <flow id="JF198889" begin="120" fromJunction="J3" toJunction="J0" end="180" vehsPerHour="66.02637055461302" departLane="free"/>
  <flow id="JF198890" begin="120" fromJunction="J3" toJunction="J5" end="180" vehsPerHour="86.98914108528895" departLane="free"/>
  <flow id="JF198891" begin="120" fromJunction="J4" toJunction="J0" end="180" vehsPerHour="3.0366186964608257" departLane="free"/>
  <flow id="JF198892" begin="120" fromJunction="J4" toJunction="J3" end="180" vehsPerHour="20.1938465729615" departLane="free"/>
  <flow id="JF198893" begin="120" fromJunction="J4" toJunction="J5" end="180" vehsPerHour="0.09439321666395056" departLane="free"/>
  <flow id="JF198894" begin="120" fromJunction="J4" toJunction="J6" end="180" vehsPerHour="51.732685052340216" departLane="free"/>
  <flow id="JF198895" begin="120" fromJunction="J4" toJunction="J7" end="180" vehsPerHour="51.854501717626455" departLane="free"/>
  <flow id="JF198896" begin="120" fromJunction="J5" toJunction="J0" end="180" vehsPerHour="17.462331514949913" departLane="free"/>
  <flow id="JF198897" begin="120" fromJunction="J5" toJunction="J3" end="180" vehsPerHour="3.228099737914554" departLane="free"/>
  <flow id="JF198898" begin="120" fromJunction="J5" toJunction="J6" end="180" vehsPerHour="34.02609578742137" departLane="free"/>
  <flow id="JF198899" begin="120" fromJunction="J5" toJunction="J7" end="180" vehsPerHour="37.269356822149554" departLane="free"/>
  <flow id="JF198900" begin="120" fromJunction="J6" toJunction="J0" end="180" vehsPerHour="38.07548224531581" departLane="free"/>
  <flow id="JF198901" begin="120" fromJunction="J6" toJunction="J3" end="180" vehsPerHour="66.70246599547046" departLane="free"/>
  <flow id="JF198902" begin="120" fromJunction="J6" toJunction="J4" end="180" vehsPerHour="54.626209216989686" departLane="free"/>
  <flow id="JF198903" begin="120" fromJunction="J6" toJunction="J5" end="180" vehsPerHour="0.9181281532908758" departLane="free"/>
  <flow id="JF198904" begin="120" fromJunction="J6" toJunction="J7" end="180" vehsPerHour="63.74572265920263" departLane="free"/>
  <flow id="JF198905" begin="120" fromJunction="J7" toJunction="J0" end="180" vehsPerHour="1.5509713265050469" departLane="free"/>
  <flow id="JF198906" begin="120" fromJunction="J7" toJunction="J3" end="180" vehsPerHour="49.34433551354075" departLane="free"/>
  <flow id="JF198907" begin="120" fromJunction="J7" toJunction="J6" end="180" vehsPerHour="34.45739914693428" departLane="free"/>
  <flow id="JF198908" begin="180" fromJunction="J0" toJunction="J4" end="240" vehsPerHour="119.56386764842847" departLane="free"/>
  <flow id="JF198909" begin="180" fromJunction="J3" toJunction="J0" end="240" vehsPerHour="19.289517677224346" departLane="free"/>
  <flow id="JF198910" begin="180" fromJunction="J3" toJunction="J4" end="240" vehsPerHour="100.08623035956123" departLane="free"/>
  <flow id="JF198911" begin="180" fromJunction="J3" toJunction="J5" end="240" vehsPerHour="15.204416520468094" departLane="free"/>
  <flow id="JF198912" begin="180" fromJunction="J3" toJunction="J6" end="240" vehsPerHour="7.074609027335674" departLane="free"/>
  <flow id="JF198913" begin="180" fromJunction="J3" toJunction="J7" end="240" vehsPerHour="49.63444036261811" departLane="free"/>
  <flow id="JF198914" begin="180" fromJunction="J4" toJunction="J0" end="240" vehsPerHour="32.20093347013549" departLane="free"/>
  <flow id="JF198915" begin="180" fromJunction="J4" toJunction="J3" end="240" vehsPerHour="63.31425544945513" departLane="free"/>
  <flow id="JF198916" begin="180" fromJunction="J4" toJunction="J5" end="240" vehsPerHour="17.218809272053704" departLane="free"/>
  <flow id="JF198917" begin="180" fromJunction="J4" toJunction="J6" end="240" vehsPerHour="13.975835123711535" departLane="free"/>
  <flow id="JF198918" begin="180" fromJunction="J4" toJunction="J7" end="240" vehsPerHour="21.97871771554368" departLane="free"/>
  <flow id="JF198919" begin="180" fromJunction="J5" toJunction="J0" end="240" vehsPerHour="34.5928545968963" departLane="free"/>
  <flow id="JF198920" begin="180" fromJunction="J5" toJunction="J4" end="240" vehsPerHour="29.03974041121287" departLane="free"/>
  <flow id="JF198921" begin="180" fromJunction="J5" toJunction="J6" end="240" vehsPerHour="12.315389245560226" departLane="free"/>
  <flow id="JF198922" begin="180" fromJunction="J5" toJunction="J7" end="240" vehsPerHour="37.62241423591745" departLane="free"/>
  <flow id="JF198923" begin="180" fromJunction="J6" toJunction="J0" end="240" vehsPerHour="41.88331819476744" departLane="free"/>
  <flow id="JF198924" begin="180" fromJunction="J6" toJunction="J3" end="240" vehsPerHour="46.21849036082606" departLane="free"/>
  <flow id="JF198925" begin="180" fromJunction="J6" toJunction="J4" end="240" vehsPerHour="41.453771350077524" departLane="free"/>
  <flow id="JF198926" begin="180" fromJunction="J6" toJunction="J7" end="240" vehsPerHour="18.683107928484148" departLane="free"/>
  <flow id="JF198927" begin="180" fromJunction="J7" toJunction="J0" end="240" vehsPerHour="31.060658674991632" departLane="free"/>
  <flow id="JF198928" begin="180" fromJunction="J7" toJunction="J3" end="240" vehsPerHour="65.97691720293955" departLane="free"/>
  <flow id="JF198929" begin="180" fromJunction="J7" toJunction="J4" end="240" vehsPerHour="0.18888644469877897" departLane="free"/>
  <flow id="JF198930" begin="180" fromJunction="J7" toJunction="J6" end="240" vehsPerHour="28.152895982169234" departLane="free"/>
  <flow id="JF198931" begin="240" fromJunction="J0" toJunction="J4" end="300" vehsPerHour="3.7656628105034864" departLane="free"/>
  <flow id="JF198932" begin="240" fromJunction="J0" toJunction="J6" end="300" vehsPerHour="44.98346399130538" departLane="free"/>
  <flow id="JF198933" begin="240" fromJunction="J0" toJunction="J7" end="300" vehsPerHour="120.28314713367371" departLane="free"/>
  <flow id="JF198934" begin="240" fromJunction="J3" toJunction="J0" end="300" vehsPerHour="8.14003994991301" departLane="free"/>
  <flow id="JF198935" begin="240" fromJunction="J3" toJunction="J4" end="300" vehsPerHour="41.40659900113885" departLane="free"/>
  <flow id="JF198936" begin="240" fromJunction="J3" toJunction="J7" end="300" vehsPerHour="116.91206853535911" departLane="free"/>
  <flow id="JF198937" begin="240" fromJunction="J4" toJunction="J5" end="300" vehsPerHour="5.214748925065578" departLane="free"/>
  <flow id="JF198938" begin="240" fromJunction="J4" toJunction="J6" end="300" vehsPerHour="17.110860957147064" departLane="free"/>
  <flow id="JF198939" begin="240" fromJunction="J4" toJunction="J7" end="300" vehsPerHour="14.53676201567887" departLane="free"/>
  <flow id="JF198940" begin="240" fromJunction="J5" toJunction="J3" end="300" vehsPerHour="36.19911219942372" departLane="free"/>
  <flow id="JF198941" begin="240" fromJunction="J5" toJunction="J4" end="300" vehsPerHour="44.781684741451706" departLane="free"/>
  <flow id="JF198942" begin="240" fromJunction="J5" toJunction="J6" end="300" vehsPerHour="46.33730508774533" departLane="free"/>
  <flow id="JF198943" begin="240" fromJunction="J5" toJunction="J7" end="300" vehsPerHour="17.717883032039595" departLane="free"/>
  <flow id="JF198944" begin="240" fromJunction="J6" toJunction="J0" end="300" vehsPerHour="44.91898082385454" departLane="free"/>
  <flow id="JF198945" begin="240" fromJunction="J6" toJunction="J3" end="300" vehsPerHour="61.37283634089648" departLane="free"/>
  <flow id="JF198946" begin="240" fromJunction="J6" toJunction="J4" end="300" vehsPerHour="31.22269478051057" departLane="free"/>
  <flow id="JF198947" begin="240" fromJunction="J7" toJunction="J0" end="300" vehsPerHour="4.938595824396274" departLane="free"/>
  <flow id="JF198948" begin="240" fromJunction="J7" toJunction="J4" end="300" vehsPerHour="68.17008199846019" departLane="free"/>
  <flow id="JF198949" begin="240" fromJunction="J7" toJunction="J5" end="300" vehsPerHour="17.249493665011897" departLane="free"/>
  <flow id="JF198950" begin="300" fromJunction="J0" toJunction="J3" end="360" vehsPerHour="4.863750958570404" departLane="free"/>
  <flow id="JF198951" begin="300" fromJunction="J0" toJunction="J5" end="360" vehsPerHour="88.47828416865912" departLane="free"/>
  <flow id="JF198952" begin="300" fromJunction="J0" toJunction="J6" end="360" vehsPerHour="40.251517359976376" departLane="free"/>
  <flow id="JF198953" begin="300" fromJunction="J0" toJunction="J7" end="360" vehsPerHour="59.05148020111465" departLane="free"/>
  <flow id="JF198954" begin="300" fromJunction="J3" toJunction="J0" end="360" vehsPerHour="134.10294419897244" departLane="free"/>
  <flow id="JF198955" begin="300" fromJunction="J3" toJunction="J4" end="360" vehsPerHour="65.7961462589954" departLane="free"/>
  <flow id="JF198956" begin="300" fromJunction="J3" toJunction="J6" end="360" vehsPerHour="41.40458915200736" departLane="free"/>
  <flow id="JF198957" begin="300" fromJunction="J4" toJunction="J0" end="360" vehsPerHour="23.99848140862982" departLane="free"/>
  <flow id="JF198958" begin="300" fromJunction="J4" toJunction="J3" end="360" vehsPerHour="60.65236146373104" departLane="free"/>
  <flow id="JF198959" begin="300" fromJunction="J4" toJunction="J6" end="360" vehsPerHour="22.25343884948762" departLane="free"/>
  <flow id="JF198960" begin="300" fromJunction="J5" toJunction="J3" end="360" vehsPerHour="11.951971804446508" departLane="free"/>
  <flow id="JF198961" begin="300" fromJunction="J5" toJunction="J6" end="360" vehsPerHour="66.10944940527509" departLane="free"/>
  <flow id="JF198962" begin="300" fromJunction="J5" toJunction="J7" end="360" vehsPerHour="5.986198999329803" departLane="free"/>
  <flow id="JF198963" begin="300" fromJunction="J6" toJunction="J0" end="360" vehsPerHour="49.04909363544921" departLane="free"/>
  <flow id="JF198964" begin="300" fromJunction="J6" toJunction="J3" end="360" vehsPerHour="14.41823160311585" departLane="free"/>
  <flow id="JF198965" begin="300" fromJunction="J6" toJunction="J4" end="360" vehsPerHour="34.21518896676619" departLane="free"/>
  <flow id="JF198966" begin="300" fromJunction="J6" toJunction="J5" end="360" vehsPerHour="20.53591843411538" departLane="free"/>
  <flow id="JF198967" begin="300" fromJunction="J6" toJunction="J7" end="360" vehsPerHour="38.82885015816643" departLane="free"/>
  <flow id="JF198968" begin="300" fromJunction="J7" toJunction="J0" end="360" vehsPerHour="48.03160799881015" departLane="free"/>
  <flow id="JF198969" begin="300" fromJunction="J7" toJunction="J3" end="360" vehsPerHour="26.925525184374276" departLane="free"/>
  <flow id="JF198970" begin="300" fromJunction="J7" toJunction="J4" end="360" vehsPerHour="42.31350892336924" departLane="free"/>
  <flow id="JF198971" begin="300" fromJunction="J7" toJunction="J5" end="360" vehsPerHour="62.656109821107364" departLane="free"/>
  <flow id="JF198972" begin="300" fromJunction="J7" toJunction="J6" end="360" vehsPerHour="56.21670856506452" departLane="free"/>
  <flow id="JF198973" begin="360" fromJunction="J0" toJunction="J3" end="420" vehsPerHour="93.02855171938927" departLane="free"/>
  <flow id="JF198974" begin="360" fromJunction="J0" toJunction="J4" end="420" vehsPerHour="113.67742091489393" departLane="free"/>
  <flow id="JF198975" begin="360" fromJunction="J0" toJunction="J6" end="420" vehsPerHour="113.36820813817002" departLane="free"/>
  <flow id="JF198976" begin="360" fromJunction="J3" toJunction="J4" end="420" vehsPerHour="32.368748896985664" departLane="free"/>
  <flow id="JF198977" begin="360" fromJunction="J3" toJunction="J5" end="420" vehsPerHour="69.55096851370831" departLane="free"/>
  <flow id="JF198978" begin="360" fromJunction="J3" toJunction="J6" end="420" vehsPerHour="22.334449431743966" departLane="free"/>
  <flow id="JF198979" begin="360" fromJunction="J4" toJunction="J0" end="420" vehsPerHour="26.33419598518439" departLane="free"/>
  <flow id="JF198980" begin="360" fromJunction="J4" toJunction="J3" end="420" vehsPerHour="13.53101518881433" departLane="free"/>
  <flow id="JF198981" begin="360" fromJunction="J4" toJunction="J5" end="420" vehsPerHour="26.35816475737709" departLane="free"/>
  <flow id="JF198982" begin="360" fromJunction="J4" toJunction="J7" end="420" vehsPerHour="64.01698005428328" departLane="free"/>
  <flow id="JF198983" begin="360" fromJunction="J5" toJunction="J0" end="420" vehsPerHour="17.925067491090008" departLane="free"/>
  <flow id="JF198984" begin="360" fromJunction="J5" toJunction="J3" end="420" vehsPerHour="5.87916494540466" departLane="free"/>
  <flow id="JF198985" begin="360" fromJunction="J5" toJunction="J4" end="420" vehsPerHour="51.04356354234256" departLane="free"/>
  <flow id="JF198986" begin="360" fromJunction="J6" toJunction="J0" end="420" vehsPerHour="66.09046136580655" departLane="free"/>
  <flow id="JF198987" begin="360" fromJunction="J6" toJunction="J3" end="420" vehsPerHour="61.36551966869619" departLane="free"/>
  <flow id="JF198988" begin="360" fromJunction="J6" toJunction="J4" end="420" vehsPerHour="18.929654688441936" departLane="free"/>
  <flow id="JF198989" begin="360" fromJunction="J6" toJunction="J5" end="420" vehsPerHour="0.47556441478403444" departLane="free"/>
  <flow id="JF198990" begin="360" fromJunction="J6" toJunction="J7" end="420" vehsPerHour="45.83075966668325" departLane="free"/>
  <flow id="JF198991" begin="360" fromJunction="J7" toJunction="J3" end="420" vehsPerHour="15.569954120727513" departLane="free"/>
  <flow id="JF198992" begin="360" fromJunction="J7" toJunction="J4" end="420" vehsPerHour="55.22038034072217" departLane="free"/>
  <flow id="JF198993" begin="360" fromJunction="J7" toJunction="J5" end="420" vehsPerHour="51.19211903555571" departLane="free"/>
  <flow id="JF198994" begin="360" fromJunction="J7" toJunction="J6" end="420" vehsPerHour="6.065594646622538" departLane="free"/>
  <flow id="JF198995" begin="420" fromJunction="J0" toJunction="J3" end="480" vehsPerHour="93.66399186204345" departLane="free"/>
  <flow id="JF198996" begin="420" fromJunction="J0" toJunction="J4" end="480" vehsPerHour="6.187319006658109" departLane="free"/>
  <flow id="JF198997" begin="420" fromJunction="J0" toJunction="J5" end="480" vehsPerHour="110.40546101548432" departLane="free"/>
  <flow id="JF198998" begin="420" fromJunction="J0" toJunction="J6" end="480" vehsPerHour="92.68313186131131" departLane="free"/>
  <flow id="JF198999" begin="420" fromJunction="J3" toJunction="J0" end="480" vehsPerHour="132.1779529920234" departLane="free"/>
  <flow id="JF199000" begin="420" fromJunction="J3" toJunction="J4" end="480" vehsPerHour="3.6044796937898056" departLane="free"/>
  <flow id="JF199001" begin="420" fromJunction="J3" toJunction="J6" end="480" vehsPerHour="110.77396780476558" departLane="free"/>
  <flow id="JF199002" begin="420" fromJunction="J4" toJunction="J0" end="480" vehsPerHour="31.254013891441954" departLane="free"/>
  <flow id="JF199003" begin="420" fromJunction="J4" toJunction="J3" end="480" vehsPerHour="55.97888761047456" departLane="free"/>
  <flow id="JF199004" begin="420" fromJunction="J4" toJunction="J5" end="480" vehsPerHour="24.07496648796725" departLane="free"/>
  <flow id="JF199005" begin="420" fromJunction="J5" toJunction="J0" end="480" vehsPerHour="59.681891060101506" departLane="free"/>
  <flow id="JF199006" begin="420" fromJunction="J5" toJunction="J4" end="480" vehsPerHour="53.6648303036715" departLane="free"/>
  <flow id="JF199007" begin="420" fromJunction="J5" toJunction="J6" end="480" vehsPerHour="66.73208627632262" departLane="free"/>
  <flow id="JF199008" begin="420" fromJunction="J5" toJunction="J7" end="480" vehsPerHour="10.571228966347949" departLane="free"/>
  <flow id="JF199009" begin="420" fromJunction="J6" toJunction="J0" end="480" vehsPerHour="19.120857418231783" departLane="free"/>
  <flow id="JF199010" begin="420" fromJunction="J6" toJunction="J4" end="480" vehsPerHour="49.875249435479354" departLane="free"/>
  <flow id="JF199011" begin="420" fromJunction="J6" toJunction="J5" end="480" vehsPerHour="21.80395857358095" departLane="free"/>
  <flow id="JF199012" begin="420" fromJunction="J6" toJunction="J7" end="480" vehsPerHour="66.69695518238034" departLane="free"/>
  <flow id="JF199013" begin="420" fromJunction="J7" toJunction="J0" end="480" vehsPerHour="55.869301245243946" departLane="free"/>
  <flow id="JF199014" begin="420" fromJunction="J7" toJunction="J3" end="480" vehsPerHour="8.025840287776388" departLane="free"/>
  <flow id="JF199015" begin="420" fromJunction="J7" toJunction="J4" end="480" vehsPerHour="45.930932731655744" departLane="free"/>
  <flow id="JF199016" begin="420" fromJunction="J7" toJunction="J5" end="480" vehsPerHour="37.55173842393544" departLane="free"/>
  <flow id="JF199017" begin="420" fromJunction="J7" toJunction="J6" end="480" vehsPerHour="37.866069741944834" departLane="free"/>
  <flow id="JF199018" begin="480" fromJunction="J0" toJunction="J3" end="540" vehsPerHour="0.2716071037540198" departLane="free"/>
  <flow id="JF199019" begin="480" fromJunction="J0" toJunction="J4" end="540" vehsPerHour="83.69927760296635" departLane="free"/>
  <flow id="JF199020" begin="480" fromJunction="J0" toJunction="J5" end="540" vehsPerHour="120.11728157821057" departLane="free"/>
  <flow id="JF199021" begin="480" fromJunction="J0" toJunction="J6" end="540" vehsPerHour="2.331972888028668" departLane="free"/>
  <flow id="JF199022" begin="480" fromJunction="J3" toJunction="J0" end="540" vehsPerHour="72.33854635409824" departLane="free"/>
  <flow id="JF199023" begin="480" fromJunction="J3" toJunction="J4" end="540" vehsPerHour="92.77505905016332" departLane="free"/>
  <flow id="JF199024" begin="480" fromJunction="J3" toJunction="J6" end="540" vehsPerHour="15.368887867130463" departLane="free"/>
  <flow id="JF199025" begin="480" fromJunction="J4" toJunction="J0" end="540" vehsPerHour="16.97850879969453" departLane="free"/>
  <flow id="JF199026" begin="480" fromJunction="J4" toJunction="J5" end="540" vehsPerHour="28.375318891407783" departLane="free"/>
  <flow id="JF199027" begin="480" fromJunction="J4" toJunction="J7" end="540" vehsPerHour="22.33774785516673" departLane="free"/>
  <flow id="JF199028" begin="480" fromJunction="J5" toJunction="J0" end="540" vehsPerHour="16.693029810225905" departLane="free"/>
  <flow id="JF199029" begin="480" fromJunction="J5" toJunction="J3" end="540" vehsPerHour="39.13423420669569" departLane="free"/>
  <flow id="JF199030" begin="480" fromJunction="J5" toJunction="J4" end="540" vehsPerHour="3.1949319795697115" departLane="free"/>
  <flow id="JF199031" begin="480" fromJunction="J5" toJunction="J6" end="540" vehsPerHour="38.127491577412876" departLane="free"/>
  <flow id="JF199032" begin="480" fromJunction="J5" toJunction="J7" end="540" vehsPerHour="32.380619433099376" departLane="free"/>
  <flow id="JF199033" begin="480" fromJunction="J6" toJunction="J4" end="540" vehsPerHour="57.44641316366653" departLane="free"/>
  <flow id="JF199034" begin="480" fromJunction="J6" toJunction="J5" end="540" vehsPerHour="1.3425491650623116" departLane="free"/>
  <flow id="JF199035" begin="480" fromJunction="J6" toJunction="J7" end="540" vehsPerHour="10.861932542921723" departLane="free"/>
  <flow id="JF199036" begin="480" fromJunction="J7" toJunction="J0" end="540" vehsPerHour="21.81437921626466" departLane="free"/>
  <flow id="JF199037" begin="480" fromJunction="J7" toJunction="J4" end="540" vehsPerHour="34.874432585320285" departLane="free"/>
  <flow id="JF199038" begin="540" fromJunction="J0" toJunction="J3" end="600" vehsPerHour="1.8082847124958448" departLane="free"/>
  <flow id="JF199039" begin="540" fromJunction="J0" toJunction="J4" end="600" vehsPerHour="23.21123396301501" departLane="free"/>
  <flow id="JF199040" begin="540" fromJunction="J0" toJunction="J6" end="600" vehsPerHour="115.5194672727359" departLane="free"/>
  <flow id="JF199041" begin="540" fromJunction="J3" toJunction="J4" end="600" vehsPerHour="125.93968596080416" departLane="free"/>
  <flow id="JF199042" begin="540" fromJunction="J3" toJunction="J5" end="600" vehsPerHour="7.182449839351423" departLane="free"/>
  <flow id="JF199043" begin="540" fromJunction="J3" toJunction="J7" end="600" vehsPerHour="69.66289666632761" departLane="free"/>
  <flow id="JF199044" begin="540" fromJunction="J4" toJunction="J0" end="600" vehsPerHour="2.198107892057533" departLane="free"/>
  <flow id="JF199045" begin="540" fromJunction="J4" toJunction="J3" end="600" vehsPerHour="60.05781682436012" departLane="free"/>
  <flow id="JF199046" begin="540" fromJunction="J4" toJunction="J6" end="600" vehsPerHour="9.547521640208492" departLane="free"/>
  <flow id="JF199047" begin="540" fromJunction="J4" toJunction="J7" end="600" vehsPerHour="47.876982000544174" departLane="free"/>
  <flow id="JF199048" begin="540" fromJunction="J5" toJunction="J0" end="600" vehsPerHour="1.4579782951675402" departLane="free"/>
  <flow id="JF199049" begin="540" fromJunction="J5" toJunction="J3" end="600" vehsPerHour="34.363581305482654" departLane="free"/>
  <flow id="JF199050" begin="540" fromJunction="J5" toJunction="J4" end="600" vehsPerHour="29.29351095844968" departLane="free"/>
  <flow id="JF199051" begin="540" fromJunction="J5" toJunction="J6" end="600" vehsPerHour="45.197822967811156" departLane="free"/>
  <flow id="JF199052" begin="540" fromJunction="J6" toJunction="J3" end="600" vehsPerHour="22.984737975036026" departLane="free"/>
  <flow id="JF199053" begin="540" fromJunction="J6" toJunction="J4" end="600" vehsPerHour="18.181783957377387" departLane="free"/>
  <flow id="JF199054" begin="540" fromJunction="J6" toJunction="J7" end="600" vehsPerHour="39.379632029206384" departLane="free"/>
  <flow id="JF199055" begin="540" fromJunction="J7" toJunction="J3" end="600" vehsPerHour="51.25976681075366" departLane="free"/>
  <flow id="JF199056" begin="540" fromJunction="J7" toJunction="J4" end="600" vehsPerHour="28.796427220032058" departLane="free"/>
  <flow id="JF199057" begin="540" fromJunction="J7" toJunction="J6" end="600" vehsPerHour="32.265861141521164" departLane="free"/>
  <flow id="JF199058" begin="600" fromJunction="J0" toJunction="J3" end="660" vehsPerHour="94.13236576012787" departLane="free"/>
  <flow id="JF199059" begin="600" fromJunction="J0" toJunction="J4" end="660" vehsPerHour="28.88590788103387" departLane="free"/>
  <flow id="JF199060" begin="600" fromJunction="J0" toJunction="J5" end="660" vehsPerHour="4.7399286040189725" departLane="free"/>
  <flow id="JF199061" begin="600" fromJunction="J0" toJunction="J6" end="660" vehsPerHour="69.32375177727526" departLane="free"/>
  <flow id="JF199062" begin="600" fromJunction="J0" toJunction="J7" end="660" vehsPerHour="112.92208354207327" departLane="free"/>
  <flow id="JF199063" begin="600" fromJunction="J3" toJunction="J0" end="660" vehsPerHour="13.597519908364804" departLane="free"/>
  <flow id="JF199064" begin="600" fromJunction="J3" toJunction="J4" end="660" vehsPerHour="135.94144460124235" departLane="free"/>
  <flow id="JF199065" begin="600" fromJunction="J3" toJunction="J5" end="660" vehsPerHour="111.52152612995975" departLane="free"/>
  <flow id="JF199066" begin="600" fromJunction="J3" toJunction="J6" end="660" vehsPerHour="72.76923588980668" departLane="free"/>
  <flow id="JF199067" begin="600" fromJunction="J4" toJunction="J0" end="660" vehsPerHour="44.09404050313252" departLane="free"/>
  <flow id="JF199068" begin="600" fromJunction="J4" toJunction="J3" end="660" vehsPerHour="5.344218622679193" departLane="free"/>
  <flow id="JF199069" begin="600" fromJunction="J4" toJunction="J5" end="660" vehsPerHour="15.500512649540838" departLane="free"/>
  <flow id="JF199070" begin="600" fromJunction="J4" toJunction="J7" end="660" vehsPerHour="21.44350989990618" departLane="free"/>
  <flow id="JF199071" begin="600" fromJunction="J5" toJunction="J0" end="660" vehsPerHour="53.12769834778021" departLane="free"/>
  <flow id="JF199072" begin="600" fromJunction="J5" toJunction="J3" end="660" vehsPerHour="24.420998951974582" departLane="free"/>
  <flow id="JF199073" begin="600" fromJunction="J5" toJunction="J4" end="660" vehsPerHour="55.99893682228403" departLane="free"/>