<?xml version="1.0" encoding="UTF-8"?>
<routes xmlns:xsi="http://www.w3.org/2001/XMLSchema-instance" xsi:noNamespaceSchemaLocation="http://sumo.dlr.de/xsd/routes_file.xsd">
  <flow id="JF202404" begin="0" fromJunction="J0" toJunction="J3" end="60" vehsPerHour="38.877486164933046" departLane="free"/>
  <flow id="JF202405" begin="0" fromJunction="J0" toJunction="J6" end="60" vehsPerHour="95.45271623406063" departLane="free"/>
  <flow id="JF202406" begin="0" fromJunction="J0" toJunction="J7" end="60" vehsPerHour="90.69627681226946" departLane="free"/>
  <flow id="JF202407" begin="0" fromJunction="J3" toJunction="J0" end="60" vehsPerHour="0.9354679772967588" departLane="free"/>
  <flow id="JF202408" begin="0" fromJunction="J3" toJunction="J4" end="60" vehsPerHour="116.88886123300736" departLane="free"/>
  <flow id="JF202409" begin="0" fromJunction="J3" toJunction="J5" end="60" vehsPerHour="78.69956017089487" departLane="free"/>
  <flow id="JF202410" begin="0" fromJunction="J3" toJunction="J6" end="60" vehsPerHour="48.47255389789128" departLane="free"/>
  <flow id="JF202411" begin="0" fromJunction="J3" toJunction="J7" end="60" vehsPerHour="124.6308510016199" departLane="free"/>
  <flow id="JF202412" begin="0" fromJunction="J4" toJunction="J3" end="60" vehsPerHour="18.657701390808537" departLane="free"/>
  <flow id="JF202413" begin="0" fromJunction="J4" toJunction="J5" end="60" vehsPerHour="21.92176159083585" departLane="free"/>
  <flow id="JF202414" begin="0" fromJunction="J4" toJunction="J6" end="60" vehsPerHour="16.801511925815262" departLane="free"/>
  <flow id="JF202415" begin="0" fromJunction="J4" toJunction="J7" end="60" vehsPerHour="13.685471146594496" departLane="free"/>
  <flow id="JF202416" begin="0" fromJunction="J5" toJunction="J6" end="60" vehsPerHour="38.864938391556656" departLane="free"/>
  <flow id="JF202417" begin="0" fromJunction="J5" toJunction="J7" end="60" vehsPerHour="57.749434191887644" departLane="free"/>
  <flow id="JF202418" begin="0" fromJunction="J6" toJunction="J4" end="60" vehsPerHour="50.74150274234755" departLane="free"/>
  <flow id="JF202419" begin="0" fromJunction="J6" toJunction="J5" end="60" vehsPerHour="18.312959074904104" departLane="free"/>
  <flow id="JF202420" begin="0" fromJunction="J6" toJunction="J7" end="60" vehsPerHour="64.37470608871264" departLane="free"/>
  <flow id="JF202421" begin="0" fromJunction="J7" toJunction="J0" end="60" vehsPerHour="16.551441625575215" departLane="free"/>
  <flow id="JF202422" begin="0" fromJunction="J7" toJunction="J3" end="60" vehsPerHour="25.527402032640985" departLane="free"/>
  <flow id="JF202423" begin="0" fromJunction="J7" toJunction="J4" end="60" vehsPerHour="67.7244655454554" departLane="free"/>
  <flow id="JF202424" begin="0" fromJunction="J7" toJunction="J5" end="60" vehsPerHour="54.997124578596235" departLane="free"/>
  <flow id="JF202425" begin="0" fromJunction="J7" toJunction="J6" end="60" vehsPerHour="2.01016691519521" departLane="free"/>
  <flow id="JF202426" begin="60" fromJunction="J0" toJunction="J3" end="120" vehsPerHour="90.78318276559908" departLane="free"/>
  <flow id="JF202427" begin="60" fromJunction="J0" toJunction="J4" end="120" vehsPerHour="99.9815086644009" departLane="free"/>
  <flow id="JF202428" begin="60" fromJunction="J0" toJunction="J5" end="120" vehsPerHour="76.86526396043543" departLane="free"/>
  <flow id="JF202429" begin="60" fromJunction="J0" toJunction="J6" end="120" vehsPerHour="125.61961811998958" departLane="free"/>
  <flow id="JF202430" begin="60" fromJunction="J0" toJunction="J7" end="120" vehsPerHour="21.210130662228234" departLane="free"/>
  <flow id="JF202431" begin="60" fromJunction="J3" toJunction="J0" end="120" vehsPerHour="109.72763704386824" departLane="free"/>
  <flow id="JF202432" begin="60" fromJunction="J3" toJunction="J5" end="120" vehsPerHour="68.2548249568243" departLane="free"/>
  <flow id="JF202433" begin="60" fromJunction="J3" toJunction="J6" end="120" vehsPerHour="98.72398375834838" departLane="free"/>
  <flow id="JF202434" begin="60" fromJunction="J3" toJunction="J7" end="120" vehsPerHour="112.86002414630518" departLane="free"/>
  <flow id="JF202435" begin="60" fromJunction="J4" toJunction="J3" end="120" vehsPerHour="7.777963137810065" departLane="free"/>
  <flow id="JF202436" begin="60" fromJunction="J4" toJunction="J7" end="120" vehsPerHour="23.29983672538405" departLane="free"/>
  <flow id="JF202437" begin="60" fromJunction="J5" toJunction="J0" end="120" vehsPerHour="0.2327737275107731" departLane="free"/>
  <flow id="JF202438" begin="60" fromJunction="J5" toJunction="J4" end="120" vehsPerHour="51.926693234209445" departLane="free"/>
  <flow id="JF202439" begin="60" fromJunction="J5" toJunction="J6" end="120" vehsPerHour="34.51831197947447" departLane="free"/>
  <flow id="JF202440" begin="60" fromJunction="J5" toJunction="J7" end="120" vehsPerHour="38.99570148077279" departLane="free"/>
  <flow id="JF202441" begin="60" fromJunction="J6" toJunction="J5" end="120" vehsPerHour="52.575634228937666" departLane="free"/>
  <flow id="JF202442" begin="60" fromJunction="J7" toJunction="J0" end="120" vehsPerHour="0.6472500957951678" departLane="free"/>
  <flow id="JF202443" begin="60" fromJunction="J7" toJunction="J4" end="120" vehsPerHour="27.563400838403933" departLane="free"/>
  <flow id="JF202444" begin="60" fromJunction="J7" toJunction="J5" end="120" vehsPerHour="35.27934317423498" departLane="free"/>
  <flow id="JF202445" begin="120" fromJunction="J0" toJunction="J3" end="180" vehsPerHour="87.29267311703761" departLane="free"/>
  <flow id="JF202446" begin="120" fromJunction="J0" toJunction="J4" end="180" vehsPerHour="28.772954849779186" departLane="free"/>
  <flow id="JF202447" begin="120" fromJunction="J0" toJunction="J6" end="180" vehsPerHour="78.83048082967461" departLane="free"/>
  <flow id="JF202448" begin="120" fromJunction="J0" toJunction="J7" end="180" vehsPerHour="119.74923963005847" departLane="free"/>
  <flow id="JF202449" begin="120" fromJunction="J3" toJunction="J0" end="180" vehsPerHour="74.49922009340499" departLane="free"/>
  <flow id="JF202450" begin="120" fromJunction="J3" toJunction="J4" end="180" vehsPerHour="116.03005849963805" departLane="free"/>
  <flow id="JF202451" begin="120" fromJunction="J3" toJunction="J6" end="180" vehsPerHour="96.63847403212625" departLane="free"/>
  <flow id="JF202452" begin="120" fromJunction="J3" toJunction="J7" end="180" vehsPerHour="35.71652606012235" departLane="free"/>
  <flow id="JF202453" begin="120" fromJunction="J4" toJunction="J0" end="180" vehsPerHour="1.3783214068046035" departLane="free"/>
  <flow id="JF202454" begin="120" fromJunction="J4" toJunction="J3" end="180" vehsPerHour="1.6991523925195273" departLane="free"/>
  <flow id="JF202455" begin="120" fromJunction="J4" toJunction="J6" end="180" vehsPerHour="48.4498662052597" departLane="free"/>
  <flow id="JF202456" begin="120" fromJunction="J4" toJunction="J7" end="180" vehsPerHour="28.471312955772156" departLane="free"/>
  <flow id="JF202457" begin="120" fromJunction="J5" toJunction="J0" end="180" vehsPerHour="67.09765869023558" departLane="free"/>
  <flow id="JF202458" begin="120" fromJunction="J5" toJunction="J3" end="180" vehsPerHour="43.11798899271295" departLane="free"/>
  <flow id="JF202459" begin="120" fromJunction="J5" toJunction="J4" end="180" vehsPerHour="3.4180118150001264" departLane="free"/>
  <flow id="JF202460" begin="120" fromJunction="J5" toJunction="J6" end="180" vehsPerHour="57.896198670747694" departLane="free"/>
  <flow id="JF202461" begin="120" fromJunction="J5" toJunction="J7" end="180" vehsPerHour="26.518192968830373" departLane="free"/>
  <flow id="JF202462" begin="120" fromJunction="J6" toJunction="J3" end="180" vehsPerHour="16.369012840577827" departLane="free"/>
  <flow id="JF202463" begin="120" fromJunction="J6" toJunction="J4" end="180" vehsPerHour="21.37394745025821" departLane="free"/>
  <flow id="JF202464" begin="120" fromJunction="J6" toJunction="J5" end="180" vehsPerHour="33.154677280308505" departLane="free"/>
  <flow id="JF202465" begin="120" fromJunction="J6" toJunction="J7" end="180" vehsPerHour="63.20762188170288" departLane="free"/>
  <flow id="JF202466" begin="120" fromJunction="J7" toJunction="J0" end="180" vehsPerHour="25.809075089681375" departLane="free"/>
  <flow id="JF202467" begin="120" fromJunction="J7" toJunction="J3" end="180" vehsPerHour="19.98523584892091" departLane="free"/>
  <flow id="JF202468" begin="120" fromJunction="J7" toJunction="J6" end="180" vehsPerHour="19.04170728796939" departLane="free"/>
  <flow id="JF202469" begin="180" fromJunction="J0" toJunction="J4" end="240" vehsPerHour="99.27975692770949" departLane="free"/>
  <flow id="JF202470" begin="180" fromJunction="J0" toJunction="J6" end="240" vehsPerHour="86.40626032129195" departLane="free"/>
  <flow id="JF202471" begin="180" fromJunction="J0" toJunction="J7" end="240" vehsPerHour="22.677443978440284" departLane="free"/>
  <flow id="JF202472" begin="180" fromJunction="J3" toJunction="J0" end="240" vehsPerHour="132.78072780316202" departLane="free"/>
  <flow id="JF202473" begin="180" fromJunction="J3" toJunction="J5" end="240" vehsPerHour="13.743619215132235" departLane="free"/>
  <flow id="JF202474" begin="180" fromJunction="J3" toJunction="J6" end="240" vehsPerHour="91.66499375921809" departLane="free"/>
  <flow id="JF202475" begin="180" fromJunction="J3" toJunction="J7" end="240" vehsPerHour="15.694557201707184" departLane="free"/>
  <flow id="JF202476" begin="180" fromJunction="J4" toJunction="J0" end="240" vehsPerHour="60.752679616049065" departLane="free"/>
  <flow id="JF202477" begin="180" fromJunction="J4" toJunction="J3" end="240" vehsPerHour="9.346361983329837" departLane="free"/>
  <flow id="JF202478" begin="180" fromJunction="J4" toJunction="J5" end="240" vehsPerHour="64.51351463685957" departLane="free"/>
  <flow id="JF202479" begin="180" fromJunction="J4" toJunction="J6" end="240" vehsPerHour="48.00503177149154" departLane="free"/>
  <flow id="JF202480" begin="180" fromJunction="J4" toJunction="J7" end="240" vehsPerHour="35.9314328659118" departLane="free"/>
  <flow id="JF202481" begin="180" fromJunction="J5" toJunction="J0" end="240" vehsPerHour="27.218267538687307" departLane="free"/>
  <flow id="JF202482" begin="180" fromJunction="J5" toJunction="J4" end="240" vehsPerHour="20.25356121173044" departLane="free"/>
  <flow id="JF202483" begin="180" fromJunction="J5" toJunction="J6" end="240" vehsPerHour="37.174884909535386" departLane="free"/>
  <flow id="JF202484" begin="180" fromJunction="J5" toJunction="J7" end="240" vehsPerHour="13.359240212905956" departLane="free"/>
  <flow id="JF202485" begin="180" fromJunction="J6" toJunction="J0" end="240" vehsPerHour="52.03990310083907" departLane="free"/>
  <flow id="JF202486" begin="180" fromJunction="J6" toJunction="J3" end="240" vehsPerHour="56.8610619304223" departLane="free"/>
  <flow id="JF202487" begin="180" fromJunction="J6" toJunction="J4" end="240" vehsPerHour="4.930203275340208" departLane="free"/>
  <flow id="JF202488" begin="180" fromJunction="J6" toJunction="J5" end="240" vehsPerHour="13.330044367351395" departLane="free"/>
  <flow id="JF202489" begin="180" fromJunction="J7" toJunction="J4" end="240" vehsPerHour="25.018488611860104" departLane="free"/>
  <flow id="JF202490" begin="180" fromJunction="J7" toJunction="J5" end="240" vehsPerHour="35.01431210013323" departLane="free"/>
  <flow id="JF202491" begin="240" fromJunction="J0" toJunction="J5" end="300" vehsPerHour="99.75106162593981" departLane="free"/>
  <flow id="JF202492" begin="240" fromJunction="J0" toJunction="J6" end="300" vehsPerHour="64.66298319406143" departLane="free"/>
  <flow id="JF202493" begin="240" fromJunction="J0" toJunction="J7" end="300" vehsPerHour="115.65547273337003" departLane="free"/>
  <flow id="JF202494" begin="240" fromJunction="J3" toJunction="J0" end="300" vehsPerHour="73.5045763863794" departLane="free"/>
  <flow id="JF202495" begin="240" fromJunction="J3" toJunction="J5" end="300" vehsPerHour="20.303002654299732" departLane="free"/>
  <flow id="JF202496" begin="240" fromJunction="J3" toJunction="J6" end="300" vehsPerHour="28.84985327529468" departLane="free"/>
  <flow id="JF202497" begin="240" fromJunction="J3" toJunction="J7" end="300" vehsPerHour="94.2352496264541" departLane="free"/>
  <flow id="JF202498" begin="240" fromJunction="J4" toJunction="J3" end="300" vehsPerHour="57.78869679309271" departLane="free"/>
  <flow id="JF202499" begin="240" fromJunction="J4" toJunction="J5" end="300" vehsPerHour="63.51027385184383" departLane="free"/>
  <flow id="JF202500" begin="240" fromJunction="J4" toJunction="J6" end="300" vehsPerHour="53.78812670351711" departLane="free"/>
  <flow id="JF202501" begin="240" fromJunction="J4" toJunction="J7" end="300" vehsPerHour="55.588410545198364" departLane="free"/>
  <flow id="JF202502" begin="240" fromJunction="J5" toJunction="J0" end="300" vehsPerHour="11.504602454024807" departLane="free"/>
  <flow id="JF202503" begin="240" fromJunction="J5" toJunction="J4" end="300" vehsPerHour="42.79722462077037" departLane="free"/>
  <flow id="JF202504" begin="240" fromJunction="J5" toJunction="J6" end="300" vehsPerHour="43.12550273940647" departLane="free"/>
  <flow id="JF202505" begin="240" fromJunction="J6" toJunction="J0" end="300" vehsPerHour="23.521031438481202" departLane="free"/>
  <flow id="JF202506" begin="240" fromJunction="J6" toJunction="J3" end="300" vehsPerHour="23.479731957124297" departLane="free"/>
  <flow id="JF202507" begin="240" fromJunction="J6" toJunction="J5" end="300" vehsPerHour="62.9586325580664" departLane="free"/>
  <flow id="JF202508" begin="240" fromJunction="J7" toJunction="J0" end="300" vehsPerHour="42.07588063958186" departLane="free"/>
  <flow id="JF202509" begin="240" fromJunction="J7" toJunction="J3" end="300" vehsPerHour="22.862540693563634" departLane="free"/>
  <flow id="JF202510" begin="240" fromJunction="J7" toJunction="J4" end="300" vehsPerHour="33.72083463937164" departLane="free"/>
  <flow id="JF202511" begin="240" fromJunction="J7" toJunction="J5" end="300" vehsPerHour="23.94326471690503" departLane="free"/>
  <flow id="JF202512" begin="300" fromJunction="J0" toJunction="J3" end="360" vehsPerHour="99.33358565888568" departLane="free"/>
  <flow id="JF202513" begin="300" fromJunction="J0" toJunction="J5" end="360" vehsPerHour="61.62795395007247" departLane="free"/>
  <flow id="JF202514" begin="300" fromJunction="J0" toJunction="J6" end="360" vehsPerHour="92.62554724900761" departLane="free"/>
  <flow id="JF202515" begin="300" fromJunction="J0" toJunction="J7" end="360" vehsPerHour="76.05865575723553" departLane="free"/>
  <flow id="JF202516" begin="300" fromJunction="J3" toJunction="J0" end="360" vehsPerHour="38.01563171788807" departLane="free"/>
  <flow id="JF202517" begin="300" fromJunction="J3" toJunction="J4" end="360" vehsPerHour="65.87342320787054" departLane="free"/>
  <flow id="JF202518" begin="300" fromJunction="J3" toJunction="J6" end="360" vehsPerHour="78.019330315728" departLane="free"/>
  <flow id="JF202519" begin="300" fromJunction="J3" toJunction="J7" end="360" vehsPerHour="4.452596855875452" departLane="free"/>
  <flow id="JF202520" begin="300" fromJunction="J4" toJunction="J3" end="360" vehsPerHour="6.136892124986351" departLane="free"/>
  <flow id="JF202521" begin="300" fromJunction="J4" toJunction="J6" end="360" vehsPerHour="24.174213077831563" departLane="free"/>
  <flow id="JF202522" begin="300" fromJunction="J4" toJunction="J7" end="360" vehsPerHour="32.817081307823216" departLane="free"/>
  <flow id="JF202523" begin="300" fromJunction="J5" toJunction="J0" end="360" vehsPerHour="41.969172685102414" departLane="free"/>
  <flow id="JF202524" begin="300" fromJunction="J5" toJunction="J3" end="360" vehsPerHour="15.064636952320884" departLane="free"/>
  <flow id="JF202525" begin="300" fromJunction="J5" toJunction="J7" end="360" vehsPerHour="60.917018366533924" departLane="free"/>
  <flow id="JF202526" begin="300" fromJunction="J6" toJunction="J3" end="360" vehsPerHour="1.8274343651376717" departLane="free"/>
  <flow id="JF202527" begin="300" fromJunction="J7" toJunction="J0" end="360" vehsPerHour="20.005591030949326" departLane="free"/>
  <flow id="JF202528" begin="300" fromJunction="J7" toJunction="J3" end="360" vehsPerHour="47.35119430683628" departLane="free"/>
  <flow id="JF202529" begin="300" fromJunction="J7" toJunction="J4" end="360" vehsPerHour="50.479909001801275" departLane="free"/>
  <flow id="JF202530" begin="300" fromJunction="J7" toJunction="J6" end="360" vehsPerHour="38.57761128681816" departLane="free"/>
  <flow id="JF202531" begin="360" fromJunction="J0" toJunction="J3" end="420" vehsPerHour="65.44935904442121" departLane="free"/>
  <flow id="JF202532" begin="360" fromJunction="J0" toJunction="J4" end="420" vehsPerHour="46.41545526671346" departLane="free"/>
  <flow id="JF202533" begin="360" fromJunction="J0" toJunction="J5" end="420" vehsPerHour="33.88233992868074" departLane="free"/>
  <flow id="JF202534" begin="360" fromJunction="J0" toJunction="J6" end="420" vehsPerHour="67.27392764045265" departLane="free"/>
  <flow id="JF202535" begin="360" fromJunction="J3" toJunction="J0" end="420" vehsPerHour="111.53270873269447" departLane="free"/>
  <flow id="JF202536" begin="360" fromJunction="J3" toJunction="J4" end="420" vehsPerHour="109.22345488955247" departLane="free"/>
  <flow id="JF202537" begin="360" fromJunction="J3" toJunction="J5" end="420" vehsPerHour="96.87078822021898" departLane="free"/>
  <flow id="JF202538" begin="360" fromJunction="J3" toJunction="J6" end="420" vehsPerHour="113.28943409746947" departLane="free"/>
  <flow id="JF202539" begin="360" fromJunction="J3" toJunction="J7" end="420" vehsPerHour="41.74259049948207" departLane="free"/>
  <flow id="JF202540" begin="360" fromJunction="J4" toJunction="J0" end="420" vehsPerHour="14.99875593954513" departLane="free"/>
  <flow id="JF202541" begin="360" fromJunction="J4" toJunction="J6" end="420" vehsPerHour="17.335241346948056" departLane="free"/>
  <flow id="JF202542" begin="360" fromJunction="J4" toJunction="J7" end="420" vehsPerHour="63.86286347287849" departLane="free"/>
  <flow id="JF202543" begin="360" fromJunction="J5" toJunction="J0" end="420" vehsPerHour="16.09891531927874" departLane="free"/>
  <flow id="JF202544" begin="360" fromJunction="J5" toJunction="J3" end="420" vehsPerHour="51.80772654916505" departLane="free"/>
  <flow id="JF202545" begin="360" fromJunction="J5" toJunction="J4" end="420" vehsPerHour="14.416122526818556" departLane="free"/>
  <flow id="JF202546" begin="360" fromJunction="J5" toJunction="J7" end="420" vehsPerHour="3.7525360991224037" departLane="free"/>
  <flow id="JF202547" begin="360" fromJunction="J6" toJunction="J0" end="420" vehsPerHour="23.419953707203167" departLane="free"/>
  <flow id="JF202548" begin="360" fromJunction="J6" toJunction="J3" end="420" vehsPerHour="41.77114257634706" departLane="free"/>
  <flow id="JF202549" begin="360" fromJunction="J6" toJunction="J5" end="420" vehsPerHour="49.92355347716724" departLane="free"/>
  <flow id="JF202550" begin="360" fromJunction="J6" toJunction="J7" end="420" vehsPerHour="31.975124645681237" departLane="free"/>
  <flow id="JF202551" begin="360" fromJunction="J7" toJunction="J0" end="420" vehsPerHour="65.63938030899796" departLane="free"/>
  <flow id="JF202552" begin="360" fromJunction="J7" toJunction="J4" end="420" vehsPerHour="34.45592942078423" departLane="free"/>
  <flow id="JF202553" begin="360" fromJunction="J7" toJunction="J5" end="420" vehsPerHour="61.41550528177142" departLane="free"/>
  <flow id="JF202554" begin="360" fromJunction="J7" toJunction="J6" end="420" vehsPerHour="20.847413815288554" departLane="free"/>
  <flow id="JF202555" begin="420" fromJunction="J0" toJunction="J3" end="480" vehsPerHour="111.7965776826962" departLane="free"/>
  <flow id="JF202556" begin="420" fromJunction="J0" toJunction="J4" end="480" vehsPerHour="90.20319443324132" departLane="free"/>
  <flow id="JF202557" begin="420" fromJunction="J0" toJunction="J5" end="480" vehsPerHour="105.42468588915811" departLane="free"/>
  <flow id="JF202558" begin="420" fromJunction="J0" toJunction="J7" end="480" vehsPerHour="109.20765701936693" departLane="free"/>
  <flow id="JF202559" begin="420" fromJunction="J3" toJunction="J0" end="480" vehsPerHour="52.72184630717762" departLane="free"/>
  <flow id="JF202560" begin="420" fromJunction="J3" toJunction="J4" end="480" vehsPerHour="65.82875041685062" departLane="free"/>
  <flow id="JF202561" begin="420" fromJunction="J3" toJunction="J5" end="480" vehsPerHour="74.33387586817553" departLane="free"/>
  <flow id="JF202562" begin="420" fromJunction="J3" toJunction="J6" end="480" vehsPerHour="97.2878233714045" departLane="free"/>
  <flow id="JF202563" begin="420" fromJunction="J3" toJunction="J7" end="480" vehsPerHour="94.69981898701305" departLane="free"/>
  <flow id="JF202564" begin="420" fromJunction="J4" toJunction="J0" end="480" vehsPerHour="4.767352576252921" departLane="free"/>
  <flow id="JF202565" begin="420" fromJunction="J4" toJunction="J3" end="480" vehsPerHour="32.281688124682695" departLane="free"/>
  <flow id="JF202566" begin="420" fromJunction="J4" toJunction="J5" end="480" vehsPerHour="3.204543071728051" departLane="free"/>
  <flow id="JF202567" begin="420" fromJunction="J4" toJunction="J6" end="480" vehsPerHour="1.9613470013460392" departLane="free"/>
  <flow id="JF202568" begin="420" fromJunction="J4" toJunction="J7" end="480" vehsPerHour="6.422856165957193" departLane="free"/>
  <flow id="JF202569" begin="420" fromJunction="J5" toJunction="J0" end="480" vehsPerHour="39.3834968496671" departLane="free"/>
  <flow id="JF202570" begin="420" fromJunction="J5" toJunction="J3" end="480" vehsPerHour="7.8464869765204455" departLane="free"/>
  <flow id="JF202571" begin="420" fromJunction="J5" toJunction="J6" end="480" vehsPerHour="5.267333191345476" departLane="free"/>
  <flow id="JF202572" begin="420" fromJunction="J5" toJunction="J7" end="480" vehsPerHour="28.030160213582075" departLane="free"/>
  <flow id="JF202573" begin="420" fromJunction="J6" toJunction="J0" end="480" vehsPerHour="24.5578000837316" departLane="free"/>
  <flow id="JF202574" begin="420" fromJunction="J6" toJunction="J4" end="480" vehsPerHour="41.75744348369444" departLane="free"/>
  <flow id="JF202575" begin="420" fromJunction="J6" toJunction="J5" end="480" vehsPerHour="1.2949352426623808" departLane="free"/>
  <flow id="JF202576" begin="420" fromJunction="J6" toJunction="J7" end="480" vehsPerHour="5.055653236566578" departLane="free"/>
  <flow id="JF202577" begin="420" fromJunction="J7" toJunction="J0" end="480" vehsPerHour="1.8899447569745205" departLane="free"/>
  <flow id="JF202578" begin="420" fromJunction="J7" toJunction="J3" end="480" vehsPerHour="61.313609728711725" departLane="free"/>
  <flow id="JF202579" begin="420" fromJunction="J7" toJunction="J4" end="480" vehsPerHour="41.12141098928754" departLane="free"/>
  <flow id="JF202580" begin="420" fromJunction="J7" toJunction="J5" end="480" vehsPerHour="2.2549440782000096" departLane="free"/>
  <flow id="JF202581" begin="480" fromJunction="J0" toJunction="J3" end="540" vehsPerHour="134.03122501006527" departLane="free"/>
  <flow id="JF202582" begin="480" fromJunction="J0" toJunction="J5" end="540" vehsPerHour="43.697251351370404" departLane="free"/>
  <flow id="JF202583" begin="480" fromJunction="J0" toJunction="J6" end="540" vehsPerHour="123.44754262342286" departLane="free"/>
  <flow id="JF202584" begin="480" fromJunction="J0" toJunction="J7" end="540" vehsPerHour="136.5536756173307" departLane="free"/>
  <flow id="JF202585" begin="480" fromJunction="J3" toJunction="J0" end="540" vehsPerHour="46.34311179486974" departLane="free"/>
  <flow id="JF202586" begin="480" fromJunction="J3" toJunction="J4" end="540" vehsPerHour="136.96035127302068" departLane="free"/>
  <flow id="JF202587" begin="480" fromJunction="J3" toJunction="J5" end="540" vehsPerHour="102.35839808539384" departLane="free"/>
  <flow id="JF202588" begin="480" fromJunction="J3" toJunction="J7" end="540" vehsPerHour="72.11473700355445" departLane="free"/>
  <flow id="JF202589" begin="480" fromJunction="J4" toJunction="J3" end="540" vehsPerHour="17.080280345095655" departLane="free"/>
  <flow id="JF202590" begin="480" fromJunction="J4" toJunction="J5" end="540" vehsPerHour="29.996007324731604" departLane="free"/>
  <flow id="JF202591" begin="480" fromJunction="J4" toJunction="J6" end="540" vehsPerHour="68.30612372175021" departLane="free"/>
  <flow id="JF202592" begin="480" fromJunction="J4" toJunction="J7" end="540" vehsPerHour="63.377528233121254" departLane="free"/>
  <flow id="JF202593" begin="480" fromJunction="J5" toJunction="J0" end="540" vehsPerHour="52.63442004297303" departLane="free"/>
  <flow id="JF202594" begin="480" fromJunction="J5" toJunction="J3" end="540" vehsPerHour="38.152202482386855" departLane="free"/>
  <flow id="JF202595" begin="480" fromJunction="J5" toJunction="J4" end="540" vehsPerHour="31.313526687727848" departLane="free"/>
  <flow id="JF202596" begin="480" fromJunction="J5" toJunction="J6" end="540" vehsPerHour="68.3459750459187" departLane="free"/>
  <flow id="JF202597" begin="480" fromJunction="J5" toJunction="J7" end="540" vehsPerHour="35.96492208538548" departLane="free"/>
  <flow id="JF202598" begin="480" fromJunction="J6" toJunction="J3" end="540" vehsPerHour="46.813129376181045" departLane="free"/>
  <flow id="JF202599" begin="480" fromJunction="J6" toJunction="J4" end="540" vehsPerHour="4.172949791934338" departLane="free"/>
  <flow id="JF202600" begin="480" fromJunction="J6" toJunction="J5" end="540" vehsPerHour="6.078309523213889" departLane="free"/>
  <flow id="JF202601" begin="480" fromJunction="J7" toJunction="J3" end="540" vehsPerHour="46.4496242917356" departLane="free"/>
  <flow id="JF202602" begin="480" fromJunction="J7" toJunction="J4" end="540" vehsPerHour="19.53501268601869" departLane="free"/>
  <flow id="JF202603" begin="480" fromJunction="J7" toJunction="J5" end="540" vehsPerHour="34.1856861896263" departLane="free"/>
  <flow id="JF202604" begin="540" fromJunction="J0" toJunction="J3" end="600" vehsPerHour="28.12431366704818" departLane="free"/>
  <flow id="JF202605" begin="540" fromJunction="J0" toJunction="J5" end="600" vehsPerHour="8.332230846699456" departLane="free"/>
  <flow id="JF202606" begin="540" fromJunction="J0" toJunction="J7" end="600" vehsPerHour="51.294000603411796" departLane="free"/>
  <flow id="JF202607" begin="540" fromJunction="J3" toJunction="J0" end="600" vehsPerHour="102.95405460361972" departLane="free"/>
  <flow id="JF202608" begin="540" fromJunction="J3" toJunction="J4" end="600" vehsPerHour="71.22998039920162" departLane="free"/>
  <flow id="JF202609" begin="540" fromJunction="J3" toJunction="J5" end="600" vehsPerHour="1.7557433972317134" departLane="free"/>
  <flow id="JF202610" begin="540" fromJunction="J3" toJunction="J6" end="600" vehsPerHour="95.1794000988196" departLane="free"/>
  <flow id="JF202611" begin="540" fromJunction="J3" toJunction="J7" end="600" vehsPerHour="117.33522283347664" departLane="free"/>
  <flow id="JF202612" begin="540" fromJunction="J4" toJunction="J3" end="600" vehsPerHour="6.584077828228087" departLane="free"/>
  <flow id="JF202613" begin="540" fromJunction="J4" toJunction="J5" end="600" vehsPerHour="43.24755692247027" departLane="free"/>
  <flow id="JF202614" begin="540" fromJunction="J4" toJunction="J6" end="600" vehsPerHour="5.599888340566577" departLane="free"/>
  <flow id="JF202615" begin="540" fromJunction="J4" toJunction="J7" end="600" vehsPerHour="31.93236915716774" departLane="free"/>
  <flow id="JF202616" begin="540" fromJunction="J5" toJunction="J3" end="600" vehsPerHour="31.182328819672026" departLane="free"/>
  <flow id="JF202617" begin="540" fromJunction="J5" toJunction="J6" end="600" vehsPerHour="23.856667212389095" departLane="free"/>
  <flow id="JF202618" begin="540" fromJunction="J6" toJunction="J0" end="600" vehsPerHour="65.00233559038242" departLane="free"/>
  <flow id="JF202619" begin="540" fromJunction="J6" toJunction="J3" end="600" vehsPerHour="54.40647074799923" departLane="free"/>
  <flow id="JF202620" begin="540" fromJunction="J6" toJunction="J4" end="600" vehsPerHour="18.816923516916315" departLane="free"/>
  <flow id="JF202621" begin="540" fromJunction="J6" toJunction="J5" end="600" vehsPerHour="4.143751123147651" departLane="free"/>
  <flow id="JF202622" begin="540" fromJunction="J7" toJunction="J0" end="600" vehsPerHour="0.7776671110009157" departLane="free"/>
  <flow id="JF202623" begin="540" fromJunction="J7" toJunction="J3" end="600" vehsPerHour="21.590897912761605" departLane="free"/>
  <flow id="JF202624" begin="540" fromJunction="J7" toJunction="J4" end="600" vehsPerHour="39.733606084344075" departLane="free"/>
  <flow id="JF202625" begin="540" fromJunction="J7" toJunction="J6" end="600" vehsPerHour="20.769688047558777" departLane="free"/>
  <flow id="JF202626" begin="600" fromJunction="J0" toJunction="J3" end="660" vehsPerHour="129.2692588094576" departLane="free"/>
  <flow id="JF202627" begin="600" fromJunction="J0" toJunction="J4" end="660" vehsPerHour="136.94525574615986" departLane="free"/>
  <flow id="JF202628" begin="600" fromJunction="J0" toJunction="J5" end="660" vehsPerHour="35.2449116181736" departLane="free"/>
  <flow id="JF202629" begin="600" fromJunction="J0" toJunction="J6" end="660" vehsPerHour="129.93849669835356" departLane="free"/>
  <flow id="JF202630" begin="600" fromJunction="J0" toJunction="J7" end="660" vehsPerHour="20.13743331396759" departLane="free"/>
  <flow id="JF202631" begin="600" fromJunction="J3" toJunction="J0" end="660" vehsPerHour="50.59779449641949" departLane="free"/>
  <flow id="JF202632" begin="600" fromJunction="J3" toJunction="J4" end="660" vehsPerHour="126.10891311718322" departLane="free"/>