<?xml version="1.0" encoding="UTF-8"?>
<routes xmlns:xsi="http://www.w3.org/2001/XMLSchema-instance" xsi:noNamespaceSchemaLocation="http://sumo.dlr.de/xsd/routes_file.xsd">
  <flow id="JF56556" begin="0" fromJunction="J0" toJunction="J15" end="360" vehsPerHour="11.628263543968986" departLane="free" arrivalSpeed="0.0"/>
  <flow id="JF56557" begin="0" fromJunction="J0" toJunction="J2" end="360" vehsPerHour="64.29859939110894" departLane="free" arrivalSpeed="0.0"/>
  <flow id="JF56558" begin="0" fromJunction="J0" toJunction="J3" end="360" vehsPerHour="10.667009996411785" departLane="free" arrivalSpeed="0.0"/>
  <flow id="JF56559" begin="0" fromJunction="J0" toJunction="J6" end="360" vehsPerHour="14.427368933096908" departLane="free" arrivalSpeed="0.0"/>
  <flow id="JF56560" begin="0" fromJunction="J0" toJunction="J7" end="360" vehsPerHour="11.543819201552042" departLane="free" arrivalSpeed="0.0"/>
  <flow id="JF56561" begin="0" fromJunction="J0" toJunction="J9" end="360" vehsPerHour="49.547415398594744" departLane="free" arrivalSpeed="0.0"/>
  <flow id="JF56562" begin="0" fromJunction="J12" toJunction="J0" end="360" vehsPerHour="61.68180884637377" departLane="free" arrivalSpeed="0.0"/>
  <flow id="JF56563" begin="0" fromJunction="J12" toJunction="J13" end="360" vehsPerHour="22.480786128699975" departLane="free" arrivalSpeed="0.0"/>
  <flow id="JF56564" begin="0" fromJunction="J12" toJunction="J14" end="360" vehsPerHour="13.515767281916004" departLane="free" arrivalSpeed="0.0"/>
  <flow id="JF56565" begin="0" fromJunction="J12" toJunction="J16" end="360" vehsPerHour="11.305730594109153" departLane="free" arrivalSpeed="0.0"/>
  <flow id="JF56566" begin="0" fromJunction="J12" toJunction="J6" end="360" vehsPerHour="58.93279766438302" departLane="free" arrivalSpeed="0.0"/>
  <flow id="JF56567" begin="0" fromJunction="J12" toJunction="J8" end="360" vehsPerHour="61.864201436136575" departLane="free" arrivalSpeed="0.0"/>
  <flow id="JF56568" begin="0" fromJunction="J13" toJunction="J15" end="360" vehsPerHour="37.11273502207299" departLane="free" arrivalSpeed="0.0"/>
  <flow id="JF56569" begin="0" fromJunction="J13" toJunction="J16" end="360" vehsPerHour="22.055332688985207" departLane="free" arrivalSpeed="0.0"/>
  <flow id="JF56570" begin="0" fromJunction="J13" toJunction="J3" end="360" vehsPerHour="61.038680716308264" departLane="free" arrivalSpeed="0.0"/>
  <flow id="JF56571" begin="0" fromJunction="J13" toJunction="J6" end="360" vehsPerHour="30.75405185565106" departLane="free" arrivalSpeed="0.0"/>
  <flow id="JF56572" begin="0" fromJunction="J13" toJunction="J8" end="360" vehsPerHour="12.68515731248701" departLane="free" arrivalSpeed="0.0"/>
  <flow id="JF56573" begin="0" fromJunction="J14" toJunction="J0" end="360" vehsPerHour="47.39856003888688" departLane="free" arrivalSpeed="0.0"/>
  <flow id="JF56574" begin="0" fromJunction="J14" toJunction="J15" end="360" vehsPerHour="47.686645434023646" departLane="free" arrivalSpeed="0.0"/>
  <flow id="JF56575" begin="0" fromJunction="J14" toJunction="J16" end="360" vehsPerHour="64.26297586024563" departLane="free" arrivalSpeed="0.0"/>
  <flow id="JF56576" begin="0" fromJunction="J14" toJunction="J2" end="360" vehsPerHour="26.902368844957923" departLane="free" arrivalSpeed="0.0"/>
  <flow id="JF56577" begin="0" fromJunction="J14" toJunction="J7" end="360" vehsPerHour="35.69342441709612" departLane="free" arrivalSpeed="0.0"/>
  <flow id="JF56578" begin="0" fromJunction="J14" toJunction="J8" end="360" vehsPerHour="32.294901086908546" departLane="free" arrivalSpeed="0.0"/>
  <flow id="JF56579" begin="0" fromJunction="J15" toJunction="J0" end="360" vehsPerHour="30.210657152659792" departLane="free" arrivalSpeed="0.0"/>
  <flow id="JF56580" begin="0" fromJunction="J15" toJunction="J12" end="360" vehsPerHour="15.998156690101604" departLane="free" arrivalSpeed="0.0"/>
  <flow id="JF56581" begin="0" fromJunction="J15" toJunction="J13" end="360" vehsPerHour="47.85679571059982" departLane="free" arrivalSpeed="0.0"/>
  <flow id="JF56582" begin="0" fromJunction="J15" toJunction="J16" end="360" vehsPerHour="4.664150635141545" departLane="free" arrivalSpeed="0.0"/>
  <flow id="JF56583" begin="0" fromJunction="J15" toJunction="J6" end="360" vehsPerHour="26.056454528416378" departLane="free" arrivalSpeed="0.0"/>
  <flow id="JF56584" begin="0" fromJunction="J15" toJunction="J7" end="360" vehsPerHour="8.814346637934664" departLane="free" arrivalSpeed="0.0"/>
  <flow id="JF56585" begin="0" fromJunction="J15" toJunction="J8" end="360" vehsPerHour="12.649831011527947" departLane="free" arrivalSpeed="0.0"/>
  <flow id="JF56586" begin="0" fromJunction="J15" toJunction="J9" end="360" vehsPerHour="3.1514456231831973" departLane="free" arrivalSpeed="0.0"/>
  <flow id="JF56587" begin="0" fromJunction="J16" toJunction="J0" end="360" vehsPerHour="7.736144157320119" departLane="free" arrivalSpeed="0.0"/>
  <flow id="JF56588" begin="0" fromJunction="J16" toJunction="J12" end="360" vehsPerHour="94.74928199556024" departLane="free" arrivalSpeed="0.0"/>
  <flow id="JF56589" begin="0" fromJunction="J16" toJunction="J13" end="360" vehsPerHour="34.297723349907926" departLane="free" arrivalSpeed="0.0"/>
  <flow id="JF56590" begin="0" fromJunction="J16" toJunction="J14" end="360" vehsPerHour="131.32755232286553" departLane="free" arrivalSpeed="0.0"/>
  <flow id="JF56591" begin="0" fromJunction="J16" toJunction="J15" end="360" vehsPerHour="12.400183180207032" departLane="free" arrivalSpeed="0.0"/>
  <flow id="JF56592" begin="0" fromJunction="J16" toJunction="J2" end="360" vehsPerHour="89.41232539681295" departLane="free" arrivalSpeed="0.0"/>
  <flow id="JF56593" begin="0" fromJunction="J16" toJunction="J3" end="360" vehsPerHour="62.37977623192785" departLane="free" arrivalSpeed="0.0"/>
  <flow id="JF56594" begin="0" fromJunction="J16" toJunction="J6" end="360" vehsPerHour="29.93217026198182" departLane="free" arrivalSpeed="0.0"/>
  <flow id="JF56595" begin="0" fromJunction="J16" toJunction="J9" end="360" vehsPerHour="122.0320404045558" departLane="free" arrivalSpeed="0.0"/>
  <flow id="JF56596" begin="0" fromJunction="J2" toJunction="J0" end="360" vehsPerHour="107.06808708152614" departLane="free" arrivalSpeed="0.0"/>
  <flow id="JF56597" begin="0" fromJunction="J2" toJunction="J12" end="360" vehsPerHour="66.56388100026791" departLane="free" arrivalSpeed="0.0"/>
  <flow id="JF56598" begin="0" fromJunction="J2" toJunction="J13" end="360" vehsPerHour="127.27616468694914" departLane="free" arrivalSpeed="0.0"/>
  <flow id="JF56599" begin="0" fromJunction="J2" toJunction="J14" end="360" vehsPerHour="19.288582527129044" departLane="free" arrivalSpeed="0.0"/>
  <flow id="JF56600" begin="0" fromJunction="J2" toJunction="J15" end="360" vehsPerHour="28.779200174700108" departLane="free" arrivalSpeed="0.0"/>
  <flow id="JF56601" begin="0" fromJunction="J2" toJunction="J6" end="360" vehsPerHour="49.43133783825097" departLane="free" arrivalSpeed="0.0"/>
  <flow id="JF56602" begin="0" fromJunction="J2" toJunction="J7" end="360" vehsPerHour="37.0316485383348" departLane="free" arrivalSpeed="0.0"/>
  <flow id="JF56603" begin="0" fromJunction="J2" toJunction="J8" end="360" vehsPerHour="54.588598654621" departLane="free" arrivalSpeed="0.0"/>
  <flow id="JF56604" begin="0" fromJunction="J2" toJunction="J9" end="360" vehsPerHour="105.88375304421004" departLane="free" arrivalSpeed="0.0"/>
  <flow id="JF56605" begin="0" fromJunction="J3" toJunction="J13" end="360" vehsPerHour="49.527078412367366" departLane="free" arrivalSpeed="0.0"/>
  <flow id="JF56606" begin="0" fromJunction="J3" toJunction="J14" end="360" vehsPerHour="59.23829067122019" departLane="free" arrivalSpeed="0.0"/>
  <flow id="JF56607" begin="0" fromJunction="J3" toJunction="J15" end="360" vehsPerHour="0.11261312098394201" departLane="free" arrivalSpeed="0.0"/>
  <flow id="JF56608" begin="0" fromJunction="J3" toJunction="J16" end="360" vehsPerHour="27.141216736833083" departLane="free" arrivalSpeed="0.0"/>
  <flow id="JF56609" begin="0" fromJunction="J3" toJunction="J2" end="360" vehsPerHour="57.95824780903649" departLane="free" arrivalSpeed="0.0"/>
  <flow id="JF56610" begin="0" fromJunction="J6" toJunction="J12" end="360" vehsPerHour="23.7064114942023" departLane="free" arrivalSpeed="0.0"/>
  <flow id="JF56611" begin="0" fromJunction="J6" toJunction="J13" end="360" vehsPerHour="39.818254784768634" departLane="free" arrivalSpeed="0.0"/>
  <flow id="JF56612" begin="0" fromJunction="J6" toJunction="J14" end="360" vehsPerHour="42.605922116015705" departLane="free" arrivalSpeed="0.0"/>
  <flow id="JF56613" begin="0" fromJunction="J6" toJunction="J15" end="360" vehsPerHour="16.28085007866206" departLane="free" arrivalSpeed="0.0"/>
  <flow id="JF56614" begin="0" fromJunction="J6" toJunction="J2" end="360" vehsPerHour="5.632538896986555" departLane="free" arrivalSpeed="0.0"/>
  <flow id="JF56615" begin="0" fromJunction="J6" toJunction="J9" end="360" vehsPerHour="15.457423940053857" departLane="free" arrivalSpeed="0.0"/>
  <flow id="JF56616" begin="0" fromJunction="J7" toJunction="J0" end="360" vehsPerHour="3.830461576782854" departLane="free" arrivalSpeed="0.0"/>
  <flow id="JF56617" begin="0" fromJunction="J7" toJunction="J12" end="360" vehsPerHour="41.00443452914584" departLane="free" arrivalSpeed="0.0"/>
  <flow id="JF56618" begin="0" fromJunction="J7" toJunction="J13" end="360" vehsPerHour="51.74089842564709" departLane="free" arrivalSpeed="0.0"/>
  <flow id="JF56619" begin="0" fromJunction="J7" toJunction="J14" end="360" vehsPerHour="37.4520448189367" departLane="free" arrivalSpeed="0.0"/>
  <flow id="JF56620" begin="0" fromJunction="J7" toJunction="J16" end="360" vehsPerHour="11.040095601993771" departLane="free" arrivalSpeed="0.0"/>
  <flow id="JF56621" begin="0" fromJunction="J7" toJunction="J2" end="360" vehsPerHour="18.59153555453401" departLane="free" arrivalSpeed="0.0"/>
  <flow id="JF56622" begin="0" fromJunction="J7" toJunction="J3" end="360" vehsPerHour="1.6588036559639283" departLane="free" arrivalSpeed="0.0"/>
  <flow id="JF56623" begin="0" fromJunction="J7" toJunction="J8" end="360" vehsPerHour="9.58723481252904" departLane="free" arrivalSpeed="0.0"/>
  <flow id="JF56624" begin="0" fromJunction="J7" toJunction="J9" end="360" vehsPerHour="52.80464480173525" departLane="free" arrivalSpeed="0.0"/>
  <flow id="JF56625" begin="0" fromJunction="J8" toJunction="J0" end="360" vehsPerHour="6.7076981787041845" departLane="free" arrivalSpeed="0.0"/>
  <flow id="JF56626" begin="0" fromJunction="J8" toJunction="J12" end="360" vehsPerHour="67.38751905454524" departLane="free" arrivalSpeed="0.0"/>
  <flow id="JF56627" begin="0" fromJunction="J8" toJunction="J13" end="360" vehsPerHour="45.84838759361635" departLane="free" arrivalSpeed="0.0"/>
  <flow id="JF56628" begin="0" fromJunction="J8" toJunction="J16" end="360" vehsPerHour="20.376972055839364" departLane="free" arrivalSpeed="0.0"/>
  <flow id="JF56629" begin="0" fromJunction="J8" toJunction="J3" end="360" vehsPerHour="1.5868441325985143" departLane="free" arrivalSpeed="0.0"/>
  <flow id="JF56630" begin="0" fromJunction="J8" toJunction="J7" end="360" vehsPerHour="35.41389401427649" departLane="free" arrivalSpeed="0.0"/>
  <flow id="JF56631" begin="0" fromJunction="J9" toJunction="J0" end="360" vehsPerHour="38.5901275425945" departLane="free" arrivalSpeed="0.0"/>
  <flow id="JF56632" begin="0" fromJunction="J9" toJunction="J12" end="360" vehsPerHour="21.743923254553508" departLane="free" arrivalSpeed="0.0"/>
  <flow id="JF56633" begin="0" fromJunction="J9" toJunction="J13" end="360" vehsPerHour="11.60825530769364" departLane="free" arrivalSpeed="0.0"/>
  <flow id="JF56634" begin="0" fromJunction="J9" toJunction="J14" end="360" vehsPerHour="47.29253633635546" departLane="free" arrivalSpeed="0.0"/>
  <flow id="JF56635" begin="0" fromJunction="J9" toJunction="J15" end="360" vehsPerHour="9.79660094487676" departLane="free" arrivalSpeed="0.0"/>
  <flow id="JF56636" begin="0" fromJunction="J9" toJunction="J16" end="360" vehsPerHour="11.155270050074813" departLane="free" arrivalSpeed="0.0"/>
  <flow id="JF56637" begin="0" fromJunction="J9" toJunction="J2" end="360" vehsPerHour="38.03370276200552" departLane="free" arrivalSpeed="0.0"/>
  <flow id="JF56638" begin="0" fromJunction="J9" toJunction="J7" end="360" vehsPerHour="56.777845908617344" departLane="free" arrivalSpeed="0.0"/>
  <flow id="JF56639" begin="360" fromJunction="J0" toJunction="J13" end="720" vehsPerHour="45.416976031576006" departLane="free" arrivalSpeed="0.0"/>
  <flow id="JF56640" begin="360" fromJunction="J0" toJunction="J15" end="720" vehsPerHour="26.421014939546836" departLane="free" arrivalSpeed="0.0"/>
  <flow id="JF56641" begin="360" fromJunction="J0" toJunction="J16" end="720" vehsPerHour="23.80052159517328" departLane="free" arrivalSpeed="0.0"/>
  <flow id="JF56642" begin="360" fromJunction="J0" toJunction="J2" end="720" vehsPerHour="66.26732183243122" departLane="free" arrivalSpeed="0.0"/>
  <flow id="JF56643" begin="360" fromJunction="J0" toJunction="J3" end="720" vehsPerHour="51.436536338989804" departLane="free" arrivalSpeed="0.0"/>
  <flow id="JF56644" begin="360" fromJunction="J0" toJunction="J6" end="720" vehsPerHour="56.06189789969926" departLane="free" arrivalSpeed="0.0"/>
  <flow id="JF56645" begin="360" fromJunction="J0" toJunction="J7" end="720" vehsPerHour="21.772273789370256" departLane="free" arrivalSpeed="0.0"/>
  <flow id="JF56646" begin="360" fromJunction="J0" toJunction="J8" end="720" vehsPerHour="49.72447144856057" departLane="free" arrivalSpeed="0.0"/>
  <flow id="JF56647" begin="360" fromJunction="J0" toJunction="J9" end="720" vehsPerHour="53.463121196186016" departLane="free" arrivalSpeed="0.0"/>
  <flow id="JF56648" begin="360" fromJunction="J12" toJunction="J0" end="720" vehsPerHour="67.84971346586232" departLane="free" arrivalSpeed="0.0"/>
  <flow id="JF56649" begin="360" fromJunction="J12" toJunction="J13" end="720" vehsPerHour="55.86231688173913" departLane="free" arrivalSpeed="0.0"/>
  <flow id="JF56650" begin="360" fromJunction="J12" toJunction="J14" end="720" vehsPerHour="28.557921770713467" departLane="free" arrivalSpeed="0.0"/>
  <flow id="JF56651" begin="360" fromJunction="J12" toJunction="J16" end="720" vehsPerHour="47.16349570363849" departLane="free" arrivalSpeed="0.0"/>
  <flow id="JF56652" begin="360" fromJunction="J12" toJunction="J2" end="720" vehsPerHour="68.2264995916979" departLane="free" arrivalSpeed="0.0"/>
  <flow id="JF56653" begin="360" fromJunction="J12" toJunction="J3" end="720" vehsPerHour="26.253136628826887" departLane="free" arrivalSpeed="0.0"/>
  <flow id="JF56654" begin="360" fromJunction="J12" toJunction="J6" end="720" vehsPerHour="67.50520186418562" departLane="free" arrivalSpeed="0.0"/>
  <flow id="JF56655" begin="360" fromJunction="J12" toJunction="J8" end="720" vehsPerHour="13.091583798510548" departLane="free" arrivalSpeed="0.0"/>
  <flow id="JF56656" begin="360" fromJunction="J12" toJunction="J9" end="720" vehsPerHour="52.62406844723348" departLane="free" arrivalSpeed="0.0"/>
  <flow id="JF56657" begin="360" fromJunction="J13" toJunction="J0" end="720" vehsPerHour="63.12040659681281" departLane="free" arrivalSpeed="0.0"/>
  <flow id="JF56658" begin="360" fromJunction="J13" toJunction="J12" end="720" vehsPerHour="48.21452148158875" departLane="free" arrivalSpeed="0.0"/>
  <flow id="JF56659" begin="360" fromJunction="J13" toJunction="J14" end="720" vehsPerHour="16.77305027062859" departLane="free" arrivalSpeed="0.0"/>
  <flow id="JF56660" begin="360" fromJunction="J13" toJunction="J16" end="720" vehsPerHour="12.425056256312192" departLane="free" arrivalSpeed="0.0"/>
  <flow id="JF56661" begin="360" fromJunction="J13" toJunction="J2" end="720" vehsPerHour="3.1152506827241164" departLane="free" arrivalSpeed="0.0"/>
  <flow id="JF56662" begin="360" fromJunction="J13" toJunction="J3" end="720" vehsPerHour="52.183944295766025" departLane="free" arrivalSpeed="0.0"/>
  <flow id="JF56663" begin="360" fromJunction="J13" toJunction="J7" end="720" vehsPerHour="66.7026830104315" departLane="free" arrivalSpeed="0.0"/>
  <flow id="JF56664" begin="360" fromJunction="J13" toJunction="J8" end="720" vehsPerHour="34.36565268372288" departLane="free" arrivalSpeed="0.0"/>
  <flow id="JF56665" begin="360" fromJunction="J13" toJunction="J9" end="720" vehsPerHour="47.98956334548738" departLane="free" arrivalSpeed="0.0"/>
  <flow id="JF56666" begin="360" fromJunction="J14" toJunction="J0" end="720" vehsPerHour="33.355963498138244" departLane="free" arrivalSpeed="0.0"/>
  <flow id="JF56667" begin="360" fromJunction="J14" toJunction="J12" end="720" vehsPerHour="56.12804354246602" departLane="free" arrivalSpeed="0.0"/>
  <flow id="JF56668" begin="360" fromJunction="J14" toJunction="J13" end="720" vehsPerHour="13.561333415898737" departLane="free" arrivalSpeed="0.0"/>
  <flow id="JF56669" begin="360" fromJunction="J14" toJunction="J15" end="720" vehsPerHour="33.07847203847935" departLane="free" arrivalSpeed="0.0"/>
  <flow id="JF56670" begin="360" fromJunction="J14" toJunction="J16" end="720" vehsPerHour="34.652585821792776" departLane="free" arrivalSpeed="0.0"/>
  <flow id="JF56671" begin="360" fromJunction="J14" toJunction="J3" end="720" vehsPerHour="33.28183688902408" departLane="free" arrivalSpeed="0.0"/>
  <flow id="JF56672" begin="360" fromJunction="J14" toJunction="J7" end="720" vehsPerHour="41.27033594169638" departLane="free" arrivalSpeed="0.0"/>
  <flow id="JF56673" begin="360" fromJunction="J14" toJunction="J8" end="720" vehsPerHour="55.11680498228184" departLane="free" arrivalSpeed="0.0"/>
  <flow id="JF56674" begin="360" fromJunction="J14" toJunction="J9" end="720" vehsPerHour="45.149820350808106" departLane="free" arrivalSpeed="0.0"/>
  <flow id="JF56675" begin="360" fromJunction="J15" toJunction="J0" end="720" vehsPerHour="27.773545813777915" departLane="free" arrivalSpeed="0.0"/>
  <flow id="JF56676" begin="360" fromJunction="J15" toJunction="J12" end="720" vehsPerHour="62.04732208438065" departLane="free" arrivalSpeed="0.0"/>
  <flow id="JF56677" begin="360" fromJunction="J15" toJunction="J13" end="720" vehsPerHour="33.268447485263785" departLane="free" arrivalSpeed="0.0"/>
  <flow id="JF56678" begin="360" fromJunction="J15" toJunction="J16" end="720" vehsPerHour="51.77013897727284" departLane="free" arrivalSpeed="0.0"/>
  <flow id="JF56679" begin="360" fromJunction="J15" toJunction="J2" end="720" vehsPerHour="17.162300563906232" departLane="free" arrivalSpeed="0.0"/>
  <flow id="JF56680" begin="360" fromJunction="J15" toJunction="J3" end="720" vehsPerHour="40.55271319901632" departLane="free" arrivalSpeed="0.0"/>
  <flow id="JF56681" begin="360" fromJunction="J15" toJunction="J6" end="720" vehsPerHour="9.338822434589208" departLane="free" arrivalSpeed="0.0"/>
  <flow id="JF56682" begin="360" fromJunction="J15" toJunction="J7" end="720" vehsPerHour="53.68515496986018" departLane="free" arrivalSpeed="0.0"/>
  <flow id="JF56683" begin="360" fromJunction="J15" toJunction="J8" end="720" vehsPerHour="23.717512935973325" departLane="free" arrivalSpeed="0.0"/>
  <flow id="JF56684" begin="360" fromJunction="J15" toJunction="J9" end="720" vehsPerHour="0.5906908213233646" departLane="free" arrivalSpeed="0.0"/>
  <flow id="JF56685" begin="360" fromJunction="J16" toJunction="J0" end="720" vehsPerHour="113.65870886845661" departLane="free" arrivalSpeed="0.0"/>
  <flow id="JF56686" begin="360" fromJunction="J16" toJunction="J12" end="720" vehsPerHour="135.46650131346328" departLane="free" arrivalSpeed="0.0"/>
  <flow id="JF56687" begin="360" fromJunction="J16" toJunction="J13" end="720" vehsPerHour="35.807121922713065" departLane="free" arrivalSpeed="0.0"/>
  <flow id="JF56688" begin="360" fromJunction="J16" toJunction="J14" end="720" vehsPerHour="53.791383145747766" departLane="free" arrivalSpeed="0.0"/>
  <flow id="JF56689" begin="360" fromJunction="J16" toJunction="J15" end="720" vehsPerHour="76.85134040509931" departLane="free" arrivalSpeed="0.0"/>
  <flow id="JF56690" begin="360" fromJunction="J16" toJunction="J2" end="720" vehsPerHour="115.45294806616378" departLane="free" arrivalSpeed="0.0"/>
  <flow id="JF56691" begin="360" fromJunction="J16" toJunction="J3" end="720" vehsPerHour="62.60636381595881" departLane="free" arrivalSpeed="0.0"/>
  <flow id="JF56692" begin="360" fromJunction="J16" toJunction="J7" end="720" vehsPerHour="116.0956674711132" departLane="free" arrivalSpeed="0.0"/>
  <flow id="JF56693" begin="360" fromJunction="J2" toJunction="J0" end="720" vehsPerHour="57.526890414466415" departLane="free" arrivalSpeed="0.0"/>
  <flow id="JF56694" begin="360" fromJunction="J2" toJunction="J15" end="720" vehsPerHour="35.38113038809434" departLane="free" arrivalSpeed="0.0"/>
  <flow id="JF56695" begin="360" fromJunction="J2" toJunction="J6" end="720" vehsPerHour="67.90107275188856" departLane="free" arrivalSpeed="0.0"/>
  <flow id="JF56696" begin="360" fromJunction="J2" toJunction="J8" end="720" vehsPerHour="47.06370361652524" departLane="free" arrivalSpeed="0.0"/>
  <flow id="JF56697" begin="360" fromJunction="J3" toJunction="J0" end="720" vehsPerHour="17.735062697859977" departLane="free" arrivalSpeed="0.0"/>
  <flow id="JF56698" begin="360" fromJunction="J3" toJunction="J15" end="720" vehsPerHour="14.295239610447808" departLane="free" arrivalSpeed="0.0"/>
  <flow id="JF56699" begin="360" fromJunction="J3" toJunction="J2" end="720" vehsPerHour="41.84052227063823" departLane="free" arrivalSpeed="0.0"/>
  <flow id="JF56700" begin="360" fromJunction="J3" toJunction="J6" end="720" vehsPerHour="32.816344777476175" departLane="free" arrivalSpeed="0.0"/>
  <flow id="JF56701" begin="360" fromJunction="J3" toJunction="J7" end="720" vehsPerHour="6.761057375189571" departLane="free" arrivalSpeed="0.0"/>
  <flow id="JF56702" begin="360" fromJunction="J3" toJunction="J8" end="720" vehsPerHour="16.45899224092707" departLane="free" arrivalSpeed="0.0"/>
  <flow id="JF56703" begin="360" fromJunction="J3" toJunction="J9" end="720" vehsPerHour="65.97397268358867" departLane="free" arrivalSpeed="0.0"/>
  <flow id="JF56704" begin="360" fromJunction="J6" toJunction="J12" end="720" vehsPerHour="45.103220941296" departLane="free" arrivalSpeed="0.0"/>
  <flow id="JF56705" begin="360" fromJunction="J6" toJunction="J13" end="720" vehsPerHour="56.52220828544511" departLane="free" arrivalSpeed="0.0"/>
  <flow id="JF56706" begin="360" fromJunction="J6" toJunction="J14" end="720" vehsPerHour="60.96813361112614" departLane="free" arrivalSpeed="0.0"/>
  <flow id="JF56707" begin="360" fromJunction="J6" toJunction="J15" end="720" vehsPerHour="58.56874834885871" departLane="free" arrivalSpeed="0.0"/>
  <flow id="JF56708" begin="360" fromJunction="J6" toJunction="J16" end="720" vehsPerHour="65.83860821946539" departLane="free" arrivalSpeed="0.0"/>
  <flow id="JF56709" begin="360" fromJunction="J6" toJunction="J2" end="720" vehsPerHour="14.053492203354274" departLane="free" arrivalSpeed="0.0"/>
  <flow id="JF56710" begin="360" fromJunction="J6" toJunction="J3" end="720" vehsPerHour="8.66426350904268" departLane="free" arrivalSpeed="0.0"/>
  <flow id="JF56711" begin="360" fromJunction="J6" toJunction="J9" end="720" vehsPerHour="45.16350854719649" departLane="free" arrivalSpeed="0.0"/>
  <flow id="JF56712" begin="360" fromJunction="J7" toJunction="J13" end="720" vehsPerHour="6.032023737097017" departLane="free" arrivalSpeed="0.0"/>
  <flow id="JF56713" begin="360" fromJunction="J7" toJunction="J14" end="720" vehsPerHour="16.11856868130555" departLane="free" arrivalSpeed="0.0"/>
  <flow id="JF56714" begin="360" fromJunction="J7" toJunction="J2" end="720" vehsPerHour="16.99509617982467" departLane="free" arrivalSpeed="0.0"/>
  <flow id="JF56715" begin="360" fromJunction="J7" toJunction="J6" end="720" vehsPerHour="62.07422184359612" departLane="free" arrivalSpeed="0.0"/>
  <flow id="JF56716" begin="360" fromJunction="J7" toJunction="J8" end="720" vehsPerHour="0.1404407625439531" departLane="free" arrivalSpeed="0.0"/>
  <flow id="JF56717" begin="360" fromJunction="J8" toJunction="J0" end="720" vehsPerHour="2.9561545478193714" departLane="free" arrivalSpeed="0.0"/>
  <flow id="JF56718" begin="360" fromJunction="J8" toJunction="J12" end="720" vehsPerHour="28.376215819441917" departLane="free" arrivalSpeed="0.0"/>
  <flow id="JF56719" begin="360" fromJunction="J8" toJunction="J13" end="720" vehsPerHour="20.86934919826189" departLane="free" arrivalSpeed="0.0"/>
  <flow id="JF56720" begin="360" fromJunction="J8" toJunction="J14" end="720" vehsPerHour="23.062444066558033" departLane="free" arrivalSpeed="0.0"/>
  <flow id="JF56721" begin="360" fromJunction="J8" toJunction="J16" end="720" vehsPerHour="58.362728242992524" departLane="free" arrivalSpeed="0.0"/>
  <flow id="JF56722" begin="360" fromJunction="J8" toJunction="J2" end="720" vehsPerHour="45.17813856073852" departLane="free" arrivalSpeed="0.0"/>
  <flow id="JF56723" begin="360" fromJunction="J8" toJunction="J6" end="720" vehsPerHour="9.945772788639907" departLane="free" arrivalSpeed="0.0"/>
  <flow id="JF56724" begin="360" fromJunction="J8" toJunction="J7" end="720" vehsPerHour="48.23311511456059" departLane="free" arrivalSpeed="0.0"/>
  <flow id="JF56725" begin="360" fromJunction="J9" toJunction="J0" end="720" vehsPerHour="43.68423079852765" departLane="free" arrivalSpeed="0.0"/>
  <flow id="JF56726" begin="360" fromJunction="J9" toJunction="J13" end="720" vehsPerHour="13.745125121752997" departLane="free" arrivalSpeed="0.0"/>
  <flow id="JF56727" begin="360" fromJunction="J9" toJunction="J14" end="720" vehsPerHour="7.760995548733961" departLane="free" arrivalSpeed="0.0"/>
  <flow id="JF56728" begin="360" fromJunction="J9" toJunction="J16" end="720" vehsPerHour="59.11368239477049" departLane="free" arrivalSpeed="0.0"/>
  <flow id="JF56729" begin="360" fromJunction="J9" toJunction="J3" end="720" vehsPerHour="20.280850588899597" departLane="free" arrivalSpeed="0.0"/>
  <flow id="JF56730" begin="360" fromJunction="J9" toJunction="J7" end="720" vehsPerHour="30.46424351753644" departLane="free" arrivalSpeed="0.0"/>
  <flow id="JF56731" begin="720" fromJunction="J0" toJunction="J14" end="1080" vehsPerHour="47.84421266468152" departLane="free" arrivalSpeed="0.0"/>
  <flow id="JF56732" begin="720" fromJunction="J0" toJunction="J15" end="1080" vehsPerHour="43.05001992458637" departLane="free" arrivalSpeed="0.0"/>
  <flow id="JF56733" begin="720" fromJunction="J0" toJunction="J16" end="1080" vehsPerHour="27.246900327520223" departLane="free" arrivalSpeed="0.0"/>
  <flow id="JF56734" begin="720" fromJunction="J0" toJunction="J3" end="1080" vehsPerHour="41.95836019738787" departLane="free" arrivalSpeed="0.0"/>
  <flow id="JF56735" begin="720" fromJunction="J0" toJunction="J6" end="1080" vehsPerHour="15.147600065643092" departLane="free" arrivalSpeed="0.0"/>
  <flow id="JF56736" begin="720" fromJunction="J0" toJunction="J7" end="1080" vehsPerHour="47.13976064880367" departLane="free" arrivalSpeed="0.0"/>
  <flow id="JF56737" begin="720" fromJunction="J0" toJunction="J8" end="1080" vehsPerHour="57.412048798283955" departLane="free" arrivalSpeed="0.0"/>
  <flow id="JF56738" begin="720" fromJunction="J0" toJunction="J9" end="1080" vehsPerHour="36.91123343382907" departLane="free" arrivalSpeed="0.0"/>
  <flow id="JF56739" begin="720" fromJunction="J12" toJunction="J0" end="1080" vehsPerHour="65.8769925213719" departLane="free" arrivalSpeed="0.0"/>
  <flow id="JF56740" begin="720" fromJunction="J12" toJunction="J15" end="1080" vehsPerHour="57.46152783700622" departLane="free" arrivalSpeed="0.0"/>
  <flow id="JF56741" begin="720" fromJunction="J12" toJunction="J2" end="1080" vehsPerHour="12.39965962663851" departLane="free" arrivalSpeed="0.0"/>
  <flow id="JF56742" begin="720" fromJunction="J12" toJunction="J6" end="1080" vehsPerHour="68.184180310827" departLane="free" arrivalSpeed="0.0"/>
  <flow id="JF56743" begin="720" fromJunction="J12" toJunction="J9" end="1080" vehsPerHour="26.004439727154363" departLane="free" arrivalSpeed="0.0"/>
  <flow id="JF56744" begin="720" fromJunction="J13" toJunction="J0" end="1080" vehsPerHour="64.2004689132101" departLane="free" arrivalSpeed="0.0"/>
  <flow id="JF56745" begin="720" fromJunction="J13" toJunction="J15" end="1080" vehsPerHour="57.653329204626" departLane="free" arrivalSpeed="0.0"/>
  <flow id="JF56746" begin="720" fromJunction="J13" toJunction="J16" end="1080" vehsPerHour="53.10276769497685" departLane="free" arrivalSpeed="0.0"/>
  <flow id="JF56747" begin="720" fromJunction="J13" toJunction="J2" end="1080" vehsPerHour="47.027325394673596" departLane="free" arrivalSpeed="0.0"/>
  <flow id="JF56748" begin="720" fromJunction="J13" toJunction="J3" end="1080" vehsPerHour="42.65161399191811" departLane="free" arrivalSpeed="0.0"/>
  <flow id="JF56749" begin="720" fromJunction="J13" toJunction="J6" end="1080" vehsPerHour="6.754689624314808" departLane="free" arrivalSpeed="0.0"/>
  <flow id="JF56750" begin="720" fromJunction="J13" toJunction="J7" end="1080" vehsPerHour="0.06083483171860291" departLane="free" arrivalSpeed="0.0"/>
  <flow id="JF56751" begin="720" fromJunction="J13" toJunction="J8" end="1080" vehsPerHour="58.138123791428235" departLane="free" arrivalSpeed="0.0"/>
  <flow id="JF56752" begin="720" fromJunction="J13" toJunction="J9" end="1080" vehsPerHour="68.14658678583832" departLane="free" arrivalSpeed="0.0"/>
  <flow id="JF56753" begin="720" fromJunction="J14" toJunction="J0" end="1080" vehsPerHour="53.19700173277906" departLane="free" arrivalSpeed="0.0"/>
  <flow id="JF56754" begin="720" fromJunction="J14" toJunction="J12" end="1080" vehsPerHour="56.15324776750771" departLane="free" arrivalSpeed="0.0"/>
  <flow id="JF56755" begin="720" fromJunction="J14" toJunction="J13" end="1080" vehsPerHour="6.235458033372947" departLane="free" arrivalSpeed="0.0"/>