<?xml version="1.0" encoding="UTF-8"?>
<routes xmlns:xsi="http://www.w3.org/2001/XMLSchema-instance" xsi:noNamespaceSchemaLocation="http://sumo.dlr.de/xsd/routes_file.xsd">
  <flow id="JF13277" begin="0" fromJunction="J0" toJunction="J4" end="360" vehsPerHour="122.43549472488456" departLane="free"/>
  <flow id="JF13278" begin="0" fromJunction="J0" toJunction="J5" end="360" vehsPerHour="101.98776812079318" departLane="free"/>
  <flow id="JF13279" begin="0" fromJunction="J0" toJunction="J6" end="360" vehsPerHour="50.91909628727204" departLane="free"/>
  <flow id="JF13280" begin="0" fromJunction="J0" toJunction="J7" end="360" vehsPerHour="54.705079641944764" departLane="free"/>
  <flow id="JF13281" begin="0" fromJunction="J3" toJunction="J0" end="360" vehsPerHour="44.39156073088746" departLane="free"/>
  <flow id="JF13282" begin="0" fromJunction="J3" toJunction="J4" end="360" vehsPerHour="63.087868117017486" departLane="free"/>
  <flow id="JF13283" begin="0" fromJunction="J3" toJunction="J5" end="360" vehsPerHour="85.88303124147822" departLane="free"/>
  <flow id="JF13284" begin="0" fromJunction="J3" toJunction="J6" end="360" vehsPerHour="21.504097482030765" departLane="free"/>
  <flow id="JF13285" begin="0" fromJunction="J3" toJunction="J7" end="360" vehsPerHour="67.97332628399771" departLane="free"/>
  <flow id="JF13286" begin="0" fromJunction="J4" toJunction="J0" end="360" vehsPerHour="50.99028326141638" departLane="free"/>
  <flow id="JF13287" begin="0" fromJunction="J4" toJunction="J3" end="360" vehsPerHour="52.559493345276934" departLane="free"/>
  <flow id="JF13288" begin="0" fromJunction="J4" toJunction="J5" end="360" vehsPerHour="1.273704597415288" departLane="free"/>
  <flow id="JF13289" begin="0" fromJunction="J4" toJunction="J7" end="360" vehsPerHour="42.29472802510075" departLane="free"/>
  <flow id="JF13290" begin="0" fromJunction="J5" toJunction="J7" end="360" vehsPerHour="28.111109403596892" departLane="free"/>
  <flow id="JF13291" begin="0" fromJunction="J6" toJunction="J3" end="360" vehsPerHour="8.027408494358571" departLane="free"/>
  <flow id="JF13292" begin="0" fromJunction="J6" toJunction="J5" end="360" vehsPerHour="42.24772488325185" departLane="free"/>
  <flow id="JF13293" begin="0" fromJunction="J6" toJunction="J7" end="360" vehsPerHour="67.9474317968674" departLane="free"/>
  <flow id="JF13294" begin="0" fromJunction="J7" toJunction="J4" end="360" vehsPerHour="24.5169212489269" departLane="free"/>
  <flow id="JF13295" begin="0" fromJunction="J7" toJunction="J6" end="360" vehsPerHour="30.32408503809076" departLane="free"/>
  <flow id="JF13296" begin="360" fromJunction="J0" toJunction="J3" end="720" vehsPerHour="70.93577231957212" departLane="free"/>
  <flow id="JF13297" begin="360" fromJunction="J0" toJunction="J4" end="720" vehsPerHour="107.09694533460151" departLane="free"/>
  <flow id="JF13298" begin="360" fromJunction="J0" toJunction="J5" end="720" vehsPerHour="38.17371957652556" departLane="free"/>
  <flow id="JF13299" begin="360" fromJunction="J0" toJunction="J6" end="720" vehsPerHour="41.191408376672236" departLane="free"/>
  <flow id="JF13300" begin="360" fromJunction="J3" toJunction="J0" end="720" vehsPerHour="0.010825596120585269" departLane="free"/>
  <flow id="JF13301" begin="360" fromJunction="J3" toJunction="J5" end="720" vehsPerHour="81.74738728456883" departLane="free"/>
  <flow id="JF13302" begin="360" fromJunction="J3" toJunction="J6" end="720" vehsPerHour="136.9987138704825" departLane="free"/>
  <flow id="JF13303" begin="360" fromJunction="J3" toJunction="J7" end="720" vehsPerHour="79.98677992016813" departLane="free"/>
  <flow id="JF13304" begin="360" fromJunction="J4" toJunction="J0" end="720" vehsPerHour="12.130597924757344" departLane="free"/>
  <flow id="JF13305" begin="360" fromJunction="J4" toJunction="J3" end="720" vehsPerHour="20.653964532370182" departLane="free"/>
  <flow id="JF13306" begin="360" fromJunction="J4" toJunction="J5" end="720" vehsPerHour="55.49299476138992" departLane="free"/>
  <flow id="JF13307" begin="360" fromJunction="J4" toJunction="J6" end="720" vehsPerHour="7.582124258562185" departLane="free"/>
  <flow id="JF13308" begin="360" fromJunction="J4" toJunction="J7" end="720" vehsPerHour="56.735444220817854" departLane="free"/>
  <flow id="JF13309" begin="360" fromJunction="J5" toJunction="J0" end="720" vehsPerHour="5.412466780783707" departLane="free"/>
  <flow id="JF13310" begin="360" fromJunction="J5" toJunction="J3" end="720" vehsPerHour="34.38079799945384" departLane="free"/>
  <flow id="JF13311" begin="360" fromJunction="J5" toJunction="J4" end="720" vehsPerHour="55.79804455587797" departLane="free"/>
  <flow id="JF13312" begin="360" fromJunction="J5" toJunction="J7" end="720" vehsPerHour="6.854809688963033" departLane="free"/>
  <flow id="JF13313" begin="360" fromJunction="J6" toJunction="J0" end="720" vehsPerHour="63.57922657136696" departLane="free"/>
  <flow id="JF13314" begin="360" fromJunction="J6" toJunction="J4" end="720" vehsPerHour="10.606856140046485" departLane="free"/>
  <flow id="JF13315" begin="360" fromJunction="J6" toJunction="J5" end="720" vehsPerHour="19.773843660631243" departLane="free"/>
  <flow id="JF13316" begin="360" fromJunction="J6" toJunction="J7" end="720" vehsPerHour="48.003871243152666" departLane="free"/>
  <flow id="JF13317" begin="360" fromJunction="J7" toJunction="J0" end="720" vehsPerHour="45.67658188190754" departLane="free"/>
  <flow id="JF13318" begin="360" fromJunction="J7" toJunction="J4" end="720" vehsPerHour="16.02675367089423" departLane="free"/>
  <flow id="JF13319" begin="360" fromJunction="J7" toJunction="J5" end="720" vehsPerHour="18.2741981289537" departLane="free"/>
  <flow id="JF13320" begin="360" fromJunction="J7" toJunction="J6" end="720" vehsPerHour="44.19534052741932" departLane="free"/>
  <flow id="JF13321" begin="720" fromJunction="J0" toJunction="J3" end="1080" vehsPerHour="75.83913627420613" departLane="free"/>
  <flow id="JF13322" begin="720" fromJunction="J0" toJunction="J4" end="1080" vehsPerHour="103.00478695468568" departLane="free"/>
  <flow id="JF13323" begin="720" fromJunction="J0" toJunction="J5" end="1080" vehsPerHour="57.334917672859504" departLane="free"/>
  <flow id="JF13324" begin="720" fromJunction="J0" toJunction="J6" end="1080" vehsPerHour="85.13414299720053" departLane="free"/>
  <flow id="JF13325" begin="720" fromJunction="J3" toJunction="J5" end="1080" vehsPerHour="4.378416210320608" departLane="free"/>
  <flow id="JF13326" begin="720" fromJunction="J3" toJunction="J7" end="1080" vehsPerHour="46.246196592190486" departLane="free"/>
  <flow id="JF13327" begin="720" fromJunction="J4" toJunction="J0" end="1080" vehsPerHour="14.50893554145827" departLane="free"/>
  <flow id="JF13328" begin="720" fromJunction="J4" toJunction="J3" end="1080" vehsPerHour="20.176517670203122" departLane="free"/>
  <flow id="JF13329" begin="720" fromJunction="J4" toJunction="J5" end="1080" vehsPerHour="30.436761922825685" departLane="free"/>
  <flow id="JF13330" begin="720" fromJunction="J4" toJunction="J6" end="1080" vehsPerHour="16.57210400665046" departLane="free"/>
  <flow id="JF13331" begin="720" fromJunction="J4" toJunction="J7" end="1080" vehsPerHour="32.865421747184776" departLane="free"/>
  <flow id="JF13332" begin="720" fromJunction="J5" toJunction="J0" end="1080" vehsPerHour="8.59003030937435" departLane="free"/>
  <flow id="JF13333" begin="720" fromJunction="J5" toJunction="J4" end="1080" vehsPerHour="39.846097879862405" departLane="free"/>
  <flow id="JF13334" begin="720" fromJunction="J5" toJunction="J7" end="1080" vehsPerHour="20.79907984082465" departLane="free"/>
  <flow id="JF13335" begin="720" fromJunction="J6" toJunction="J3" end="1080" vehsPerHour="20.09508276343101" departLane="free"/>
  <flow id="JF13336" begin="720" fromJunction="J6" toJunction="J4" end="1080" vehsPerHour="27.86232140228495" departLane="free"/>
  <flow id="JF13337" begin="720" fromJunction="J6" toJunction="J7" end="1080" vehsPerHour="64.28081300040286" departLane="free"/>
  <flow id="JF13338" begin="720" fromJunction="J7" toJunction="J3" end="1080" vehsPerHour="13.589880916066997" departLane="free"/>
  <flow id="JF13339" begin="720" fromJunction="J7" toJunction="J4" end="1080" vehsPerHour="46.210690026379105" departLane="free"/>
  <flow id="JF13340" begin="1080" fromJunction="J0" toJunction="J3" end="1440" vehsPerHour="36.02442623161758" departLane="free"/>
  <flow id="JF13341" begin="1080" fromJunction="J0" toJunction="J4" end="1440" vehsPerHour="15.096637061173553" departLane="free"/>
  <flow id="JF13342" begin="1080" fromJunction="J0" toJunction="J5" end="1440" vehsPerHour="98.26276908499281" departLane="free"/>
  <flow id="JF13343" begin="1080" fromJunction="J0" toJunction="J6" end="1440" vehsPerHour="118.19686160346927" departLane="free"/>
  <flow id="JF13344" begin="1080" fromJunction="J0" toJunction="J7" end="1440" vehsPerHour="19.184401488303536" departLane="free"/>
  <flow id="JF13345" begin="1080" fromJunction="J3" toJunction="J0" end="1440" vehsPerHour="92.84463602353027" departLane="free"/>
  <flow id="JF13346" begin="1080" fromJunction="J3" toJunction="J4" end="1440" vehsPerHour="22.601587882038263" departLane="free"/>
  <flow id="JF13347" begin="1080" fromJunction="J3" toJunction="J6" end="1440" vehsPerHour="78.67073382261873" departLane="free"/>
  <flow id="JF13348" begin="1080" fromJunction="J3" toJunction="J7" end="1440" vehsPerHour="136.57054495128364" departLane="free"/>
  <flow id="JF13349" begin="1080" fromJunction="J4" toJunction="J0" end="1440" vehsPerHour="0.7812651078326652" departLane="free"/>
  <flow id="JF13350" begin="1080" fromJunction="J4" toJunction="J3" end="1440" vehsPerHour="56.45446390045161" departLane="free"/>
  <flow id="JF13351" begin="1080" fromJunction="J4" toJunction="J5" end="1440" vehsPerHour="38.67182755129586" departLane="free"/>
  <flow id="JF13352" begin="1080" fromJunction="J4" toJunction="J6" end="1440" vehsPerHour="9.019690674068272" departLane="free"/>
  <flow id="JF13353" begin="1080" fromJunction="J4" toJunction="J7" end="1440" vehsPerHour="53.44402997306989" departLane="free"/>
  <flow id="JF13354" begin="1080" fromJunction="J5" toJunction="J3" end="1440" vehsPerHour="24.25107809986614" departLane="free"/>
  <flow id="JF13355" begin="1080" fromJunction="J5" toJunction="J4" end="1440" vehsPerHour="56.926729466184874" departLane="free"/>
  <flow id="JF13356" begin="1080" fromJunction="J5" toJunction="J6" end="1440" vehsPerHour="58.66141125302645" departLane="free"/>
  <flow id="JF13357" begin="1080" fromJunction="J5" toJunction="J7" end="1440" vehsPerHour="28.101261394151923" departLane="free"/>
  <flow id="JF13358" begin="1080" fromJunction="J6" toJunction="J0" end="1440" vehsPerHour="31.125692699373" departLane="free"/>
  <flow id="JF13359" begin="1080" fromJunction="J6" toJunction="J4" end="1440" vehsPerHour="23.217069563443896" departLane="free"/>
  <flow id="JF13360" begin="1080" fromJunction="J6" toJunction="J5" end="1440" vehsPerHour="55.67953724073619" departLane="free"/>
  <flow id="JF13361" begin="1080" fromJunction="J6" toJunction="J7" end="1440" vehsPerHour="68.03281397848683" departLane="free"/>
  <flow id="JF13362" begin="1080" fromJunction="J7" toJunction="J0" end="1440" vehsPerHour="53.38370495823165" departLane="free"/>
  <flow id="JF13363" begin="1080" fromJunction="J7" toJunction="J5" end="1440" vehsPerHour="6.773983953652149" departLane="free"/>
  <flow id="JF13364" begin="1440" fromJunction="J0" toJunction="J3" end="1800" vehsPerHour="103.97922611808838" departLane="free"/>
  <flow id="JF13365" begin="1440" fromJunction="J0" toJunction="J4" end="1800" vehsPerHour="23.148086305921016" departLane="free"/>
  <flow id="JF13366" begin="1440" fromJunction="J0" toJunction="J5" end="1800" vehsPerHour="73.56263426656832" departLane="free"/>
  <flow id="JF13367" begin="1440" fromJunction="J0" toJunction="J6" end="1800" vehsPerHour="120.5830865057578" departLane="free"/>
  <flow id="JF13368" begin="1440" fromJunction="J3" toJunction="J0" end="1800" vehsPerHour="12.742337862416111" departLane="free"/>
  <flow id="JF13369" begin="1440" fromJunction="J3" toJunction="J5" end="1800" vehsPerHour="57.24507801453035" departLane="free"/>
  <flow id="JF13370" begin="1440" fromJunction="J3" toJunction="J6" end="1800" vehsPerHour="120.36531259737885" departLane="free"/>
  <flow id="JF13371" begin="1440" fromJunction="J3" toJunction="J7" end="1800" vehsPerHour="107.39990785505002" departLane="free"/>
  <flow id="JF13372" begin="1440" fromJunction="J4" toJunction="J3" end="1800" vehsPerHour="45.18248809273735" departLane="free"/>
  <flow id="JF13373" begin="1440" fromJunction="J4" toJunction="J6" end="1800" vehsPerHour="38.732914662039974" departLane="free"/>
  <flow id="JF13374" begin="1440" fromJunction="J4" toJunction="J7" end="1800" vehsPerHour="36.88871602465925" departLane="free"/>
  <flow id="JF13375" begin="1440" fromJunction="J5" toJunction="J0" end="1800" vehsPerHour="33.81673233371992" departLane="free"/>
  <flow id="JF13376" begin="1440" fromJunction="J5" toJunction="J3" end="1800" vehsPerHour="36.409606356932834" departLane="free"/>
  <flow id="JF13377" begin="1440" fromJunction="J5" toJunction="J4" end="1800" vehsPerHour="31.497533749731133" departLane="free"/>
  <flow id="JF13378" begin="1440" fromJunction="J5" toJunction="J7" end="1800" vehsPerHour="27.6310370018027" departLane="free"/>
  <flow id="JF13379" begin="1440" fromJunction="J6" toJunction="J0" end="1800" vehsPerHour="14.23502324313107" departLane="free"/>
  <flow id="JF13380" begin="1440" fromJunction="J6" toJunction="J3" end="1800" vehsPerHour="57.459826891961924" departLane="free"/>
  <flow id="JF13381" begin="1440" fromJunction="J6" toJunction="J4" end="1800" vehsPerHour="43.66164122190018" departLane="free"/>
  <flow id="JF13382" begin="1440" fromJunction="J6" toJunction="J5" end="1800" vehsPerHour="67.74665551950928" departLane="free"/>
  <flow id="JF13383" begin="1440" fromJunction="J6" toJunction="J7" end="1800" vehsPerHour="50.2085427541941" departLane="free"/>
  <flow id="JF13384" begin="1440" fromJunction="J7" toJunction="J0" end="1800" vehsPerHour="19.427591539938817" departLane="free"/>
  <flow id="JF13385" begin="1440" fromJunction="J7" toJunction="J3" end="1800" vehsPerHour="52.45540566899765" departLane="free"/>
  <flow id="JF13386" begin="1440" fromJunction="J7" toJunction="J4" end="1800" vehsPerHour="16.228267281269154" departLane="free"/>
  <flow id="JF13387" begin="1440" fromJunction="J7" toJunction="J6" end="1800" vehsPerHour="10.30254211471593" departLane="free"/>
  <flow id="JF13388" begin="1800" fromJunction="J0" toJunction="J3" end="2160" vehsPerHour="0.9635689626225162" departLane="free"/>
  <flow id="JF13389" begin="1800" fromJunction="J0" toJunction="J4" end="2160" vehsPerHour="35.79236441362598" departLane="free"/>
  <flow id="JF13390" begin="1800" fromJunction="J0" toJunction="J5" end="2160" vehsPerHour="61.76141456751599" departLane="free"/>
  <flow id="JF13391" begin="1800" fromJunction="J0" toJunction="J6" end="2160" vehsPerHour="123.30085955375168" departLane="free"/>
  <flow id="JF13392" begin="1800" fromJunction="J3" toJunction="J4" end="2160" vehsPerHour="3.3834502604600223" departLane="free"/>
  <flow id="JF13393" begin="1800" fromJunction="J3" toJunction="J5" end="2160" vehsPerHour="4.274010603782378" departLane="free"/>
  <flow id="JF13394" begin="1800" fromJunction="J3" toJunction="J6" end="2160" vehsPerHour="126.77449971700366" departLane="free"/>
  <flow id="JF13395" begin="1800" fromJunction="J3" toJunction="J7" end="2160" vehsPerHour="106.56594996359044" departLane="free"/>
  <flow id="JF13396" begin="1800" fromJunction="J4" toJunction="J0" end="2160" vehsPerHour="25.16686578714355" departLane="free"/>
  <flow id="JF13397" begin="1800" fromJunction="J4" toJunction="J5" end="2160" vehsPerHour="21.613757643310926" departLane="free"/>
  <flow id="JF13398" begin="1800" fromJunction="J4" toJunction="J6" end="2160" vehsPerHour="9.883240004126595" departLane="free"/>
  <flow id="JF13399" begin="1800" fromJunction="J5" toJunction="J0" end="2160" vehsPerHour="14.115594166695956" departLane="free"/>
  <flow id="JF13400" begin="1800" fromJunction="J5" toJunction="J3" end="2160" vehsPerHour="7.271784884373123" departLane="free"/>
  <flow id="JF13401" begin="1800" fromJunction="J5" toJunction="J7" end="2160" vehsPerHour="40.35586920646447" departLane="free"/>
  <flow id="JF13402" begin="1800" fromJunction="J6" toJunction="J0" end="2160" vehsPerHour="32.418959486350445" departLane="free"/>
  <flow id="JF13403" begin="1800" fromJunction="J6" toJunction="J3" end="2160" vehsPerHour="1.873724973150639" departLane="free"/>
  <flow id="JF13404" begin="1800" fromJunction="J6" toJunction="J4" end="2160" vehsPerHour="12.180547839133403" departLane="free"/>
  <flow id="JF13405" begin="1800" fromJunction="J6" toJunction="J7" end="2160" vehsPerHour="49.01186243500425" departLane="free"/>
  <flow id="JF13406" begin="1800" fromJunction="J7" toJunction="J0" end="2160" vehsPerHour="12.33800464042059" departLane="free"/>
  <flow id="JF13407" begin="1800" fromJunction="J7" toJunction="J4" end="2160" vehsPerHour="47.235527035147385" departLane="free"/>
  <flow id="JF13408" begin="1800" fromJunction="J7" toJunction="J5" end="2160" vehsPerHour="39.71754112812" departLane="free"/>
  <flow id="JF13409" begin="1800" fromJunction="J7" toJunction="J6" end="2160" vehsPerHour="60.868057034275296" departLane="free"/>
  <flow id="JF13410" begin="2160" fromJunction="J0" toJunction="J3" end="2520" vehsPerHour="83.47989834951473" departLane="free"/>
  <flow id="JF13411" begin="2160" fromJunction="J0" toJunction="J4" end="2520" vehsPerHour="54.28206039829982" departLane="free"/>
  <flow id="JF13412" begin="2160" fromJunction="J0" toJunction="J5" end="2520" vehsPerHour="20.878039133123877" departLane="free"/>
  <flow id="JF13413" begin="2160" fromJunction="J0" toJunction="J7" end="2520" vehsPerHour="126.27968963191715" departLane="free"/>
  <flow id="JF13414" begin="2160" fromJunction="J3" toJunction="J0" end="2520" vehsPerHour="97.84394715755961" departLane="free"/>
  <flow id="JF13415" begin="2160" fromJunction="J3" toJunction="J4" end="2520" vehsPerHour="119.32980700417731" departLane="free"/>
  <flow id="JF13416" begin="2160" fromJunction="J3" toJunction="J7" end="2520" vehsPerHour="76.5424250351141" departLane="free"/>
  <flow id="JF13417" begin="2160" fromJunction="J4" toJunction="J3" end="2520" vehsPerHour="30.766849767035808" departLane="free"/>
  <flow id="JF13418" begin="2160" fromJunction="J4" toJunction="J5" end="2520" vehsPerHour="27.00847543295683" departLane="free"/>
  <flow id="JF13419" begin="2160" fromJunction="J4" toJunction="J6" end="2520" vehsPerHour="50.31602419377592" departLane="free"/>
  <flow id="JF13420" begin="2160" fromJunction="J4" toJunction="J7" end="2520" vehsPerHour="30.76620002621074" departLane="free"/>
  <flow id="JF13421" begin="2160" fromJunction="J5" toJunction="J0" end="2520" vehsPerHour="10.72563361507251" departLane="free"/>
  <flow id="JF13422" begin="2160" fromJunction="J5" toJunction="J4" end="2520" vehsPerHour="24.42621392495406" departLane="free"/>
  <flow id="JF13423" begin="2160" fromJunction="J5" toJunction="J6" end="2520" vehsPerHour="8.620468303954508" departLane="free"/>
  <flow id="JF13424" begin="2160" fromJunction="J5" toJunction="J7" end="2520" vehsPerHour="62.815499079742715" departLane="free"/>
  <flow id="JF13425" begin="2160" fromJunction="J6" toJunction="J4" end="2520" vehsPerHour="17.996059789982148" departLane="free"/>
  <flow id="JF13426" begin="2160" fromJunction="J7" toJunction="J0" end="2520" vehsPerHour="66.51274598371319" departLane="free"/>
  <flow id="JF13427" begin="2160" fromJunction="J7" toJunction="J3" end="2520" vehsPerHour="63.89587476442443" departLane="free"/>
  <flow id="JF13428" begin="2160" fromJunction="J7" toJunction="J5" end="2520" vehsPerHour="29.903780349926706" departLane="free"/>
  <flow id="JF13429" begin="2520" fromJunction="J0" toJunction="J3" end="2880" vehsPerHour="62.64646705076171" departLane="free"/>
  <flow id="JF13430" begin="2520" fromJunction="J0" toJunction="J4" end="2880" vehsPerHour="111.58411683628741" departLane="free"/>
  <flow id="JF13431" begin="2520" fromJunction="J0" toJunction="J7" end="2880" vehsPerHour="32.007920544636285" departLane="free"/>
  <flow id="JF13432" begin="2520" fromJunction="J3" toJunction="J4" end="2880" vehsPerHour="93.37997832203536" departLane="free"/>
  <flow id="JF13433" begin="2520" fromJunction="J3" toJunction="J5" end="2880" vehsPerHour="104.59398411743054" departLane="free"/>
  <flow id="JF13434" begin="2520" fromJunction="J3" toJunction="J7" end="2880" vehsPerHour="72.80714472417922" departLane="free"/>
  <flow id="JF13435" begin="2520" fromJunction="J4" toJunction="J0" end="2880" vehsPerHour="56.38773399970551" departLane="free"/>
  <flow id="JF13436" begin="2520" fromJunction="J4" toJunction="J3" end="2880" vehsPerHour="48.47046557666744" departLane="free"/>
  <flow id="JF13437" begin="2520" fromJunction="J4" toJunction="J5" end="2880" vehsPerHour="33.84963412897735" departLane="free"/>
  <flow id="JF13438" begin="2520" fromJunction="J4" toJunction="J6" end="2880" vehsPerHour="17.074549342936027" departLane="free"/>
  <flow id="JF13439" begin="2520" fromJunction="J5" toJunction="J4" end="2880" vehsPerHour="62.828569934202115" departLane="free"/>
  <flow id="JF13440" begin="2520" fromJunction="J5" toJunction="J6" end="2880" vehsPerHour="8.829144508696489" departLane="free"/>
  <flow id="JF13441" begin="2520" fromJunction="J6" toJunction="J3" end="2880" vehsPerHour="58.82818623697531" departLane="free"/>
  <flow id="JF13442" begin="2520" fromJunction="J6" toJunction="J4" end="2880" vehsPerHour="8.325966847924457" departLane="free"/>
  <flow id="JF13443" begin="2520" fromJunction="J6" toJunction="J5" end="2880" vehsPerHour="1.3574420752888896" departLane="free"/>
  <flow id="JF13444" begin="2520" fromJunction="J6" toJunction="J7" end="2880" vehsPerHour="11.927092736884928" departLane="free"/>
  <flow id="JF13445" begin="2520" fromJunction="J7" toJunction="J4" end="2880" vehsPerHour="19.2677222057102" departLane="free"/>
  <flow id="JF13446" begin="2520" fromJunction="J7" toJunction="J5" end="2880" vehsPerHour="45.339323773793815" departLane="free"/>
  <flow id="JF13447" begin="2880" fromJunction="J0" toJunction="J3" end="3240" vehsPerHour="51.069486444316105" departLane="free"/>
  <flow id="JF13448" begin="2880" fromJunction="J0" toJunction="J6" end="3240" vehsPerHour="92.51635404144716" departLane="free"/>
  <flow id="JF13449" begin="2880" fromJunction="J0" toJunction="J7" end="3240" vehsPerHour="7.539325782149877" departLane="free"/>
  <flow id="JF13450" begin="2880" fromJunction="J3" toJunction="J0" end="3240" vehsPerHour="110.43240564490264" departLane="free"/>
  <flow id="JF13451" begin="2880" fromJunction="J3" toJunction="J4" end="3240" vehsPerHour="79.08968559930285" departLane="free"/>
  <flow id="JF13452" begin="2880" fromJunction="J3" toJunction="J6" end="3240" vehsPerHour="27.637257434304384" departLane="free"/>
  <flow id="JF13453" begin="2880" fromJunction="J3" toJunction="J7" end="3240" vehsPerHour="79.88247759233138" departLane="free"/>
  <flow id="JF13454" begin="2880" fromJunction="J4" toJunction="J0" end="3240" vehsPerHour="22.365743186426027" departLane="free"/>
  <flow id="JF13455" begin="2880" fromJunction="J4" toJunction="J3" end="3240" vehsPerHour="47.32512140401799" departLane="free"/>
  <flow id="JF13456" begin="2880" fromJunction="J4" toJunction="J5" end="3240" vehsPerHour="56.7417152696845" departLane="free"/>
  <flow id="JF13457" begin="2880" fromJunction="J4" toJunction="J6" end="3240" vehsPerHour="19.68968358048718" departLane="free"/>
  <flow id="JF13458" begin="2880" fromJunction="J5" toJunction="J0" end="3240" vehsPerHour="34.43250415049536" departLane="free"/>
  <flow id="JF13459" begin="2880" fromJunction="J5" toJunction="J3" end="3240" vehsPerHour="46.97187278011839" departLane="free"/>
  <flow id="JF13460" begin="2880" fromJunction="J5" toJunction="J4" end="3240" vehsPerHour="61.371488291324624" departLane="free"/>
  <flow id="JF13461" begin="2880" fromJunction="J5" toJunction="J6" end="3240" vehsPerHour="47.283541384004295" departLane="free"/>
  <flow id="JF13462" begin="2880" fromJunction="J6" toJunction="J0" end="3240" vehsPerHour="16.766584894764758" departLane="free"/>
  <flow id="JF13463" begin="2880" fromJunction="J6" toJunction="J3" end="3240" vehsPerHour="45.634417677501666" departLane="free"/>
  <flow id="JF13464" begin="2880" fromJunction="J6" toJunction="J4" end="3240" vehsPerHour="22.55514916310603" departLane="free"/>
  <flow id="JF13465" begin="2880" fromJunction="J7" toJunction="J4" end="3240" vehsPerHour="35.601829985719505" departLane="free"/>
  <flow id="JF13466" begin="2880" fromJunction="J7" toJunction="J5" end="3240" vehsPerHour="46.76355791233208" departLane="free"/>
  <flow id="JF13467" begin="2880" fromJunction="J7" toJunction="J6" end="3240" vehsPerHour="47.2731055560051" departLane="free"/>
  <flow id="JF13468" begin="3240" fromJunction="J0" toJunction="J4" end="3600" vehsPerHour="119.55821701619622" departLane="free"/>
  <flow id="JF13469" begin="3240" fromJunction="J0" toJunction="J5" end="3600" vehsPerHour="112.83425611647424" departLane="free"/>
  <flow id="JF13470" begin="3240" fromJunction="J0" toJunction="J6" end="3600" vehsPerHour="5.580682687384449" departLane="free"/>
  <flow id="JF13471" begin="3240" fromJunction="J0" toJunction="J7" end="3600" vehsPerHour="116.81274726458629" departLane="free"/>
  <flow id="JF13472" begin="3240" fromJunction="J3" toJunction="J4" end="3600" vehsPerHour="107.5956215973263" departLane="free"/>
  <flow id="JF13473" begin="3240" fromJunction="J3" toJunction="J5" end="3600" vehsPerHour="86.6806928484048" departLane="free"/>
  <flow id="JF13474" begin="3240" fromJunction="J3" toJunction="J6" end="3600" vehsPerHour="39.485258044373715" departLane="free"/>
  <flow id="JF13475" begin="3240" fromJunction="J4" toJunction="J3" end="3600" vehsPerHour="50.35007127611951" departLane="free"/>
  <flow id="JF13476" begin="3240" fromJunction="J4" toJunction="J5" end="3600" vehsPerHour="52.19484042138778" departLane="free"/>
  <flow id="JF13477" begin="3240" fromJunction="J4" toJunction="J6" end="3600" vehsPerHour="36.08354807814107" departLane="free"/>
  <flow id="JF13478" begin="3240" fromJunction="J4" toJunction="J7" end="3600" vehsPerHour="27.566141235125833" departLane="free"/>
  <flow id="JF13479" begin="3240" fromJunction="J5" toJunction="J4" end="3600" vehsPerHour="35.40180459222756" departLane="free"/>
  <flow id="JF13480" begin="3240" fromJunction="J5" toJunction="J6" end="3600" vehsPerHour="29.445551526984794" departLane="free"/>
  <flow id="JF13481" begin="3240" fromJunction="J5" toJunction="J7" end="3600" vehsPerHour="41.9952632901257" departLane="free"/>
  <flow id="JF13482" begin="3240" fromJunction="J6" toJunction="J4" end="3600" vehsPerHour="59.90038773261887" departLane="free"/>
  <flow id="JF13483" begin="3240" fromJunction="J6" toJunction="J5" end="3600" vehsPerHour="59.28774647851082" departLane="free"/>
  <flow id="JF13484" begin="3240" fromJunction="J6" toJunction="J7" end="3600" vehsPerHour="18.00298344316775" departLane="free"/>
  <flow id="JF13485" begin="3240" fromJunction="J7" toJunction="J0" end="3600" vehsPerHour="38.777018233066386" departLane="free"/>
  <flow id="JF13486" begin="3240" fromJunction="J7" toJunction="J4" end="3600" vehsPerHour="42.445908698242455" departLane="free"/>
  <flow id="JF13487" begin="3240" fromJunction="J7" toJunction="J5" end="3600" vehsPerHour="66.41763610139036" departLane="free"/>
  <flow id="JF13488" begin="3240" fromJunction="J7" toJunction="J6" end="3600" vehsPerHour="36.577085244331535" departLane="free"/>
  <flow id="JF13489" begin="3600" fromJunction="J0" toJunction="J3" end="3960" vehsPerHour="115.89223001977759" departLane="free"/>
  <flow id="JF13490" begin="3600" fromJunction="J0" toJunction="J4" end="3960" vehsPerHour="131.26516761942108" departLane="free"/>
  <flow id="JF13491" begin="3600" fromJunction="J0" toJunction="J5" end="3960" vehsPerHour="117.11068693060334" departLane="free"/>
  <flow id="JF13492" begin="3600" fromJunction="J0" toJunction="J6" end="3960" vehsPerHour="53.27220371164466" departLane="free"/>
  <flow id="JF13493" begin="3600" fromJunction="J3" toJunction="J0" end="3960" vehsPerHour="31.931316460714847" departLane="free"/>
  <flow id="JF13494" begin="3600" fromJunction="J3" toJunction="J4" end="3960" vehsPerHour="82.7947351733917" departLane="free"/>
  <flow id="JF13495" begin="3600" fromJunction="J3" toJunction="J6" end="3960" vehsPerHour="25.435378067812817" departLane="free"/>
  <flow id="JF13496" begin="3600" fromJunction="J3" toJunction="J7" end="3960" vehsPerHour="11.898212574845997" departLane="free"/>
  <flow id="JF13497" begin="3600" fromJunction="J4" toJunction="J0" end="3960" vehsPerHour="37.24012794671155" departLane="free"/>
  <flow id="JF13498" begin="3600" fromJunction="J4" toJunction="J3" end="3960" vehsPerHour="41.08809047512353" departLane="free"/>
  <flow id="JF13499" begin="3600" fromJunction="J4" toJunction="J5" end="3960" vehsPerHour="21.74214368943242" departLane="free"/>
  <flow id="JF13500" begin="3600" fromJunction="J4" toJunction="J6" end="3960" vehsPerHour="54.29321404924702" departLane="free"/>
  <flow id="JF13501" begin="3600" fromJunction="J4" toJunction="J7" end="3960" vehsPerHour="43.51950038239839" departLane="free"/>
  <flow id="JF13502" begin="3600" fromJunction="J5" toJunction="J0" end="3960" vehsPerHour="0.9943374125725889" departLane="free"/>
  <flow id="JF13503" begin="3600" fromJunction="J5" toJunction="J4" end="3960" vehsPerHour="7.789248219891175" departLane="free"/>
  <flow id="JF13504" begin="3600" fromJunction="J5" toJunction="J7" end="3960" vehsPerHour="10.590305302501386" departLane="free"/>