<?xml version="1.0" encoding="UTF-8"?>
<routes xmlns:xsi="http://www.w3.org/2001/XMLSchema-instance" xsi:noNamespaceSchemaLocation="http://sumo.dlr.de/xsd/routes_file.xsd">
  <flow id="JF9520" begin="0" fromJunction="J0" toJunction="J6" end="360" vehsPerHour="19.0870045410009" departLane="free" arrivalSpeed="0.0"/>
  <flow id="JF9521" begin="0" fromJunction="J0" toJunction="J7" end="360" vehsPerHour="125.66504514138921" departLane="free" arrivalSpeed="0.0"/>
  <flow id="JF9522" begin="0" fromJunction="J3" toJunction="J0" end="360" vehsPerHour="52.212588297448384" departLane="free" arrivalSpeed="0.0"/>
  <flow id="JF9523" begin="0" fromJunction="J3" toJunction="J4" end="360" vehsPerHour="36.65072042215802" departLane="free" arrivalSpeed="0.0"/>
  <flow id="JF9524" begin="0" fromJunction="J3" toJunction="J5" end="360" vehsPerHour="27.436076524818798" departLane="free" arrivalSpeed="0.0"/>
  <flow id="JF9525" begin="0" fromJunction="J3" toJunction="J6" end="360" vehsPerHour="31.731636538284324" departLane="free" arrivalSpeed="0.0"/>
  <flow id="JF9526" begin="0" fromJunction="J3" toJunction="J7" end="360" vehsPerHour="66.30955313099436" departLane="free" arrivalSpeed="0.0"/>
  <flow id="JF9527" begin="0" fromJunction="J4" toJunction="J0" end="360" vehsPerHour="15.284267740325614" departLane="free" arrivalSpeed="0.0"/>
  <flow id="JF9528" begin="0" fromJunction="J4" toJunction="J3" end="360" vehsPerHour="67.21266585288758" departLane="free" arrivalSpeed="0.0"/>
  <flow id="JF9529" begin="0" fromJunction="J4" toJunction="J5" end="360" vehsPerHour="31.05654932459456" departLane="free" arrivalSpeed="0.0"/>
  <flow id="JF9530" begin="0" fromJunction="J4" toJunction="J6" end="360" vehsPerHour="33.87034846969497" departLane="free" arrivalSpeed="0.0"/>
  <flow id="JF9531" begin="0" fromJunction="J5" toJunction="J0" end="360" vehsPerHour="46.352206133803236" departLane="free" arrivalSpeed="0.0"/>
  <flow id="JF9532" begin="0" fromJunction="J5" toJunction="J3" end="360" vehsPerHour="63.5756674882581" departLane="free" arrivalSpeed="0.0"/>
  <flow id="JF9533" begin="0" fromJunction="J5" toJunction="J4" end="360" vehsPerHour="14.727700200044579" departLane="free" arrivalSpeed="0.0"/>
  <flow id="JF9534" begin="0" fromJunction="J5" toJunction="J6" end="360" vehsPerHour="30.666930298426493" departLane="free" arrivalSpeed="0.0"/>
  <flow id="JF9535" begin="0" fromJunction="J5" toJunction="J7" end="360" vehsPerHour="42.919374688054056" departLane="free" arrivalSpeed="0.0"/>
  <flow id="JF9536" begin="0" fromJunction="J6" toJunction="J0" end="360" vehsPerHour="33.02417346801457" departLane="free" arrivalSpeed="0.0"/>
  <flow id="JF9537" begin="0" fromJunction="J6" toJunction="J3" end="360" vehsPerHour="2.0739219666786624" departLane="free" arrivalSpeed="0.0"/>
  <flow id="JF9538" begin="0" fromJunction="J6" toJunction="J4" end="360" vehsPerHour="38.214737299301774" departLane="free" arrivalSpeed="0.0"/>
  <flow id="JF9539" begin="0" fromJunction="J6" toJunction="J5" end="360" vehsPerHour="10.02765506357475" departLane="free" arrivalSpeed="0.0"/>
  <flow id="JF9540" begin="0" fromJunction="J6" toJunction="J7" end="360" vehsPerHour="37.1121024576509" departLane="free" arrivalSpeed="0.0"/>
  <flow id="JF9541" begin="0" fromJunction="J7" toJunction="J0" end="360" vehsPerHour="26.1043301057186" departLane="free" arrivalSpeed="0.0"/>
  <flow id="JF9542" begin="0" fromJunction="J7" toJunction="J3" end="360" vehsPerHour="62.66949904067747" departLane="free" arrivalSpeed="0.0"/>
  <flow id="JF9543" begin="0" fromJunction="J7" toJunction="J4" end="360" vehsPerHour="16.170175145680233" departLane="free" arrivalSpeed="0.0"/>
  <flow id="JF9544" begin="0" fromJunction="J7" toJunction="J5" end="360" vehsPerHour="16.873535864569288" departLane="free" arrivalSpeed="0.0"/>
  <flow id="JF9545" begin="0" fromJunction="J7" toJunction="J6" end="360" vehsPerHour="46.825396996982995" departLane="free" arrivalSpeed="0.0"/>
  <flow id="JF9546" begin="360" fromJunction="J0" toJunction="J3" end="720" vehsPerHour="10.356232806002197" departLane="free" arrivalSpeed="0.0"/>
  <flow id="JF9547" begin="360" fromJunction="J0" toJunction="J4" end="720" vehsPerHour="120.02698856137665" departLane="free" arrivalSpeed="0.0"/>
  <flow id="JF9548" begin="360" fromJunction="J0" toJunction="J6" end="720" vehsPerHour="79.12576032582406" departLane="free" arrivalSpeed="0.0"/>
  <flow id="JF9549" begin="360" fromJunction="J0" toJunction="J7" end="720" vehsPerHour="35.37822653803132" departLane="free" arrivalSpeed="0.0"/>
  <flow id="JF9550" begin="360" fromJunction="J3" toJunction="J0" end="720" vehsPerHour="36.24064391148023" departLane="free" arrivalSpeed="0.0"/>
  <flow id="JF9551" begin="360" fromJunction="J3" toJunction="J5" end="720" vehsPerHour="45.11455848224332" departLane="free" arrivalSpeed="0.0"/>
  <flow id="JF9552" begin="360" fromJunction="J3" toJunction="J6" end="720" vehsPerHour="91.29658956155005" departLane="free" arrivalSpeed="0.0"/>
  <flow id="JF9553" begin="360" fromJunction="J4" toJunction="J0" end="720" vehsPerHour="61.799961402646794" departLane="free" arrivalSpeed="0.0"/>
  <flow id="JF9554" begin="360" fromJunction="J4" toJunction="J3" end="720" vehsPerHour="33.37767367672996" departLane="free" arrivalSpeed="0.0"/>
  <flow id="JF9555" begin="360" fromJunction="J4" toJunction="J5" end="720" vehsPerHour="27.8585595389706" departLane="free" arrivalSpeed="0.0"/>
  <flow id="JF9556" begin="360" fromJunction="J5" toJunction="J0" end="720" vehsPerHour="4.438510364961494" departLane="free" arrivalSpeed="0.0"/>
  <flow id="JF9557" begin="360" fromJunction="J5" toJunction="J4" end="720" vehsPerHour="55.38328276086069" departLane="free" arrivalSpeed="0.0"/>
  <flow id="JF9558" begin="360" fromJunction="J5" toJunction="J6" end="720" vehsPerHour="40.71429197901101" departLane="free" arrivalSpeed="0.0"/>
  <flow id="JF9559" begin="360" fromJunction="J5" toJunction="J7" end="720" vehsPerHour="4.293085326107623" departLane="free" arrivalSpeed="0.0"/>
  <flow id="JF9560" begin="360" fromJunction="J6" toJunction="J0" end="720" vehsPerHour="58.37939454011274" departLane="free" arrivalSpeed="0.0"/>
  <flow id="JF9561" begin="360" fromJunction="J6" toJunction="J3" end="720" vehsPerHour="50.53017975465964" departLane="free" arrivalSpeed="0.0"/>
  <flow id="JF9562" begin="360" fromJunction="J6" toJunction="J4" end="720" vehsPerHour="28.599034946332086" departLane="free" arrivalSpeed="0.0"/>
  <flow id="JF9563" begin="360" fromJunction="J6" toJunction="J5" end="720" vehsPerHour="8.805819079868753" departLane="free" arrivalSpeed="0.0"/>
  <flow id="JF9564" begin="360" fromJunction="J7" toJunction="J0" end="720" vehsPerHour="53.41149274861801" departLane="free" arrivalSpeed="0.0"/>
  <flow id="JF9565" begin="360" fromJunction="J7" toJunction="J3" end="720" vehsPerHour="4.859428554520662" departLane="free" arrivalSpeed="0.0"/>
  <flow id="JF9566" begin="360" fromJunction="J7" toJunction="J4" end="720" vehsPerHour="62.19178828895873" departLane="free" arrivalSpeed="0.0"/>
  <flow id="JF9567" begin="360" fromJunction="J7" toJunction="J5" end="720" vehsPerHour="10.51099214152076" departLane="free" arrivalSpeed="0.0"/>
  <flow id="JF9568" begin="720" fromJunction="J0" toJunction="J3" end="1080" vehsPerHour="49.9692364649394" departLane="free" arrivalSpeed="0.0"/>
  <flow id="JF9569" begin="720" fromJunction="J0" toJunction="J4" end="1080" vehsPerHour="40.36718231001246" departLane="free" arrivalSpeed="0.0"/>
  <flow id="JF9570" begin="720" fromJunction="J0" toJunction="J5" end="1080" vehsPerHour="1.6582273059398522" departLane="free" arrivalSpeed="0.0"/>
  <flow id="JF9571" begin="720" fromJunction="J0" toJunction="J6" end="1080" vehsPerHour="115.91792545332292" departLane="free" arrivalSpeed="0.0"/>
  <flow id="JF9572" begin="720" fromJunction="J0" toJunction="J7" end="1080" vehsPerHour="108.82036959222506" departLane="free" arrivalSpeed="0.0"/>
  <flow id="JF9573" begin="720" fromJunction="J3" toJunction="J0" end="1080" vehsPerHour="30.913746043389978" departLane="free" arrivalSpeed="0.0"/>
  <flow id="JF9574" begin="720" fromJunction="J3" toJunction="J4" end="1080" vehsPerHour="119.20822400821129" departLane="free" arrivalSpeed="0.0"/>
  <flow id="JF9575" begin="720" fromJunction="J3" toJunction="J5" end="1080" vehsPerHour="51.54208050057482" departLane="free" arrivalSpeed="0.0"/>
  <flow id="JF9576" begin="720" fromJunction="J3" toJunction="J6" end="1080" vehsPerHour="86.22584943232533" departLane="free" arrivalSpeed="0.0"/>
  <flow id="JF9577" begin="720" fromJunction="J4" toJunction="J3" end="1080" vehsPerHour="52.23001727603891" departLane="free" arrivalSpeed="0.0"/>
  <flow id="JF9578" begin="720" fromJunction="J4" toJunction="J6" end="1080" vehsPerHour="32.440685421927355" departLane="free" arrivalSpeed="0.0"/>
  <flow id="JF9579" begin="720" fromJunction="J4" toJunction="J7" end="1080" vehsPerHour="40.10121970790493" departLane="free" arrivalSpeed="0.0"/>
  <flow id="JF9580" begin="720" fromJunction="J5" toJunction="J0" end="1080" vehsPerHour="9.240528669163504" departLane="free" arrivalSpeed="0.0"/>
  <flow id="JF9581" begin="720" fromJunction="J5" toJunction="J3" end="1080" vehsPerHour="27.050047146742653" departLane="free" arrivalSpeed="0.0"/>
  <flow id="JF9582" begin="720" fromJunction="J5" toJunction="J4" end="1080" vehsPerHour="48.40733997337231" departLane="free" arrivalSpeed="0.0"/>
  <flow id="JF9583" begin="720" fromJunction="J5" toJunction="J7" end="1080" vehsPerHour="2.578294842716274" departLane="free" arrivalSpeed="0.0"/>
  <flow id="JF9584" begin="720" fromJunction="J6" toJunction="J0" end="1080" vehsPerHour="35.16070809288121" departLane="free" arrivalSpeed="0.0"/>
  <flow id="JF9585" begin="720" fromJunction="J6" toJunction="J3" end="1080" vehsPerHour="4.2765780202712" departLane="free" arrivalSpeed="0.0"/>
  <flow id="JF9586" begin="720" fromJunction="J6" toJunction="J5" end="1080" vehsPerHour="36.912097842212106" departLane="free" arrivalSpeed="0.0"/>
  <flow id="JF9587" begin="720" fromJunction="J7" toJunction="J4" end="1080" vehsPerHour="20.706619221900898" departLane="free" arrivalSpeed="0.0"/>
  <flow id="JF9588" begin="1080" fromJunction="J0" toJunction="J3" end="1440" vehsPerHour="109.5221052929357" departLane="free" arrivalSpeed="0.0"/>
  <flow id="JF9589" begin="1080" fromJunction="J0" toJunction="J4" end="1440" vehsPerHour="94.89614194971922" departLane="free" arrivalSpeed="0.0"/>
  <flow id="JF9590" begin="1080" fromJunction="J0" toJunction="J5" end="1440" vehsPerHour="3.415541917559608" departLane="free" arrivalSpeed="0.0"/>
  <flow id="JF9591" begin="1080" fromJunction="J0" toJunction="J7" end="1440" vehsPerHour="101.55941468621856" departLane="free" arrivalSpeed="0.0"/>
  <flow id="JF9592" begin="1080" fromJunction="J3" toJunction="J0" end="1440" vehsPerHour="89.35912556383424" departLane="free" arrivalSpeed="0.0"/>
  <flow id="JF9593" begin="1080" fromJunction="J3" toJunction="J5" end="1440" vehsPerHour="27.612981947897016" departLane="free" arrivalSpeed="0.0"/>
  <flow id="JF9594" begin="1080" fromJunction="J3" toJunction="J6" end="1440" vehsPerHour="116.04704248638424" departLane="free" arrivalSpeed="0.0"/>
  <flow id="JF9595" begin="1080" fromJunction="J3" toJunction="J7" end="1440" vehsPerHour="78.5231433787403" departLane="free" arrivalSpeed="0.0"/>
  <flow id="JF9596" begin="1080" fromJunction="J4" toJunction="J3" end="1440" vehsPerHour="12.470249794716539" departLane="free" arrivalSpeed="0.0"/>
  <flow id="JF9597" begin="1080" fromJunction="J4" toJunction="J5" end="1440" vehsPerHour="10.154512012236246" departLane="free" arrivalSpeed="0.0"/>
  <flow id="JF9598" begin="1080" fromJunction="J4" toJunction="J6" end="1440" vehsPerHour="8.354596804347755" departLane="free" arrivalSpeed="0.0"/>
  <flow id="JF9599" begin="1080" fromJunction="J4" toJunction="J7" end="1440" vehsPerHour="55.72959903753988" departLane="free" arrivalSpeed="0.0"/>
  <flow id="JF9600" begin="1080" fromJunction="J5" toJunction="J0" end="1440" vehsPerHour="20.823004718226013" departLane="free" arrivalSpeed="0.0"/>
  <flow id="JF9601" begin="1080" fromJunction="J5" toJunction="J3" end="1440" vehsPerHour="63.64713279245947" departLane="free" arrivalSpeed="0.0"/>
  <flow id="JF9602" begin="1080" fromJunction="J5" toJunction="J4" end="1440" vehsPerHour="45.25029553138821" departLane="free" arrivalSpeed="0.0"/>
  <flow id="JF9603" begin="1080" fromJunction="J5" toJunction="J6" end="1440" vehsPerHour="47.35620326653657" departLane="free" arrivalSpeed="0.0"/>
  <flow id="JF9604" begin="1080" fromJunction="J5" toJunction="J7" end="1440" vehsPerHour="19.981558209893894" departLane="free" arrivalSpeed="0.0"/>
  <flow id="JF9605" begin="1080" fromJunction="J6" toJunction="J0" end="1440" vehsPerHour="9.753324270887484" departLane="free" arrivalSpeed="0.0"/>
  <flow id="JF9606" begin="1080" fromJunction="J6" toJunction="J3" end="1440" vehsPerHour="34.33033480635903" departLane="free" arrivalSpeed="0.0"/>
  <flow id="JF9607" begin="1080" fromJunction="J6" toJunction="J4" end="1440" vehsPerHour="61.40975813855665" departLane="free" arrivalSpeed="0.0"/>
  <flow id="JF9608" begin="1080" fromJunction="J6" toJunction="J5" end="1440" vehsPerHour="47.825916301158706" departLane="free" arrivalSpeed="0.0"/>
  <flow id="JF9609" begin="1080" fromJunction="J6" toJunction="J7" end="1440" vehsPerHour="61.5877090903977" departLane="free" arrivalSpeed="0.0"/>
  <flow id="JF9610" begin="1080" fromJunction="J7" toJunction="J3" end="1440" vehsPerHour="4.133348960255092" departLane="free" arrivalSpeed="0.0"/>
  <flow id="JF9611" begin="1080" fromJunction="J7" toJunction="J4" end="1440" vehsPerHour="28.391486714552883" departLane="free" arrivalSpeed="0.0"/>
  <flow id="JF9612" begin="1080" fromJunction="J7" toJunction="J5" end="1440" vehsPerHour="29.835548343555118" departLane="free" arrivalSpeed="0.0"/>
  <flow id="JF9613" begin="1080" fromJunction="J7" toJunction="J6" end="1440" vehsPerHour="53.828099333274224" departLane="free" arrivalSpeed="0.0"/>
  <flow id="JF9614" begin="1440" fromJunction="J0" toJunction="J3" end="1800" vehsPerHour="84.11743524098273" departLane="free" arrivalSpeed="0.0"/>
  <flow id="JF9615" begin="1440" fromJunction="J0" toJunction="J4" end="1800" vehsPerHour="85.98711252985844" departLane="free" arrivalSpeed="0.0"/>
  <flow id="JF9616" begin="1440" fromJunction="J0" toJunction="J5" end="1800" vehsPerHour="97.55977017113433" departLane="free" arrivalSpeed="0.0"/>
  <flow id="JF9617" begin="1440" fromJunction="J0" toJunction="J6" end="1800" vehsPerHour="103.91520299597224" departLane="free" arrivalSpeed="0.0"/>
  <flow id="JF9618" begin="1440" fromJunction="J0" toJunction="J7" end="1800" vehsPerHour="24.284334769515528" departLane="free" arrivalSpeed="0.0"/>
  <flow id="JF9619" begin="1440" fromJunction="J3" toJunction="J0" end="1800" vehsPerHour="57.523774833276924" departLane="free" arrivalSpeed="0.0"/>
  <flow id="JF9620" begin="1440" fromJunction="J3" toJunction="J5" end="1800" vehsPerHour="78.48916837907326" departLane="free" arrivalSpeed="0.0"/>
  <flow id="JF9621" begin="1440" fromJunction="J3" toJunction="J6" end="1800" vehsPerHour="5.766891780753466" departLane="free" arrivalSpeed="0.0"/>
  <flow id="JF9622" begin="1440" fromJunction="J3" toJunction="J7" end="1800" vehsPerHour="73.95156691765823" departLane="free" arrivalSpeed="0.0"/>
  <flow id="JF9623" begin="1440" fromJunction="J4" toJunction="J3" end="1800" vehsPerHour="13.635200071256257" departLane="free" arrivalSpeed="0.0"/>
  <flow id="JF9624" begin="1440" fromJunction="J4" toJunction="J6" end="1800" vehsPerHour="41.73135133725522" departLane="free" arrivalSpeed="0.0"/>
  <flow id="JF9625" begin="1440" fromJunction="J4" toJunction="J7" end="1800" vehsPerHour="17.57505465495639" departLane="free" arrivalSpeed="0.0"/>
  <flow id="JF9626" begin="1440" fromJunction="J5" toJunction="J0" end="1800" vehsPerHour="37.07328980994606" departLane="free" arrivalSpeed="0.0"/>
  <flow id="JF9627" begin="1440" fromJunction="J5" toJunction="J3" end="1800" vehsPerHour="65.07368195924644" departLane="free" arrivalSpeed="0.0"/>
  <flow id="JF9628" begin="1440" fromJunction="J5" toJunction="J6" end="1800" vehsPerHour="28.58770177804831" departLane="free" arrivalSpeed="0.0"/>
  <flow id="JF9629" begin="1440" fromJunction="J6" toJunction="J3" end="1800" vehsPerHour="52.713183386529174" departLane="free" arrivalSpeed="0.0"/>
  <flow id="JF9630" begin="1440" fromJunction="J6" toJunction="J5" end="1800" vehsPerHour="32.75114700635747" departLane="free" arrivalSpeed="0.0"/>
  <flow id="JF9631" begin="1440" fromJunction="J6" toJunction="J7" end="1800" vehsPerHour="32.73838384980035" departLane="free" arrivalSpeed="0.0"/>
  <flow id="JF9632" begin="1440" fromJunction="J7" toJunction="J0" end="1800" vehsPerHour="3.920324686862948" departLane="free" arrivalSpeed="0.0"/>
  <flow id="JF9633" begin="1440" fromJunction="J7" toJunction="J3" end="1800" vehsPerHour="36.05208637029854" departLane="free" arrivalSpeed="0.0"/>
  <flow id="JF9634" begin="1440" fromJunction="J7" toJunction="J4" end="1800" vehsPerHour="58.20780510680183" departLane="free" arrivalSpeed="0.0"/>
  <flow id="JF9635" begin="1440" fromJunction="J7" toJunction="J6" end="1800" vehsPerHour="11.301732366583835" departLane="free" arrivalSpeed="0.0"/>
  <flow id="JF9636" begin="1800" fromJunction="J0" toJunction="J6" end="2160" vehsPerHour="69.02357759335607" departLane="free" arrivalSpeed="0.0"/>
  <flow id="JF9637" begin="1800" fromJunction="J3" toJunction="J0" end="2160" vehsPerHour="59.74326861412841" departLane="free" arrivalSpeed="0.0"/>
  <flow id="JF9638" begin="1800" fromJunction="J3" toJunction="J4" end="2160" vehsPerHour="40.296784815406404" departLane="free" arrivalSpeed="0.0"/>
  <flow id="JF9639" begin="1800" fromJunction="J3" toJunction="J6" end="2160" vehsPerHour="45.36874530951556" departLane="free" arrivalSpeed="0.0"/>
  <flow id="JF9640" begin="1800" fromJunction="J3" toJunction="J7" end="2160" vehsPerHour="79.58469422749496" departLane="free" arrivalSpeed="0.0"/>
  <flow id="JF9641" begin="1800" fromJunction="J4" toJunction="J0" end="2160" vehsPerHour="49.80202305553528" departLane="free" arrivalSpeed="0.0"/>
  <flow id="JF9642" begin="1800" fromJunction="J4" toJunction="J3" end="2160" vehsPerHour="41.63332918177525" departLane="free" arrivalSpeed="0.0"/>
  <flow id="JF9643" begin="1800" fromJunction="J4" toJunction="J5" end="2160" vehsPerHour="45.12295800408567" departLane="free" arrivalSpeed="0.0"/>
  <flow id="JF9644" begin="1800" fromJunction="J4" toJunction="J7" end="2160" vehsPerHour="9.795604091996903" departLane="free" arrivalSpeed="0.0"/>
  <flow id="JF9645" begin="1800" fromJunction="J5" toJunction="J0" end="2160" vehsPerHour="28.908082177297466" departLane="free" arrivalSpeed="0.0"/>
  <flow id="JF9646" begin="1800" fromJunction="J5" toJunction="J3" end="2160" vehsPerHour="57.871997825982724" departLane="free" arrivalSpeed="0.0"/>
  <flow id="JF9647" begin="1800" fromJunction="J5" toJunction="J4" end="2160" vehsPerHour="3.5803546748328996" departLane="free" arrivalSpeed="0.0"/>
  <flow id="JF9648" begin="1800" fromJunction="J5" toJunction="J6" end="2160" vehsPerHour="1.0347923064503657" departLane="free" arrivalSpeed="0.0"/>
  <flow id="JF9649" begin="1800" fromJunction="J5" toJunction="J7" end="2160" vehsPerHour="9.919841756470984" departLane="free" arrivalSpeed="0.0"/>
  <flow id="JF9650" begin="1800" fromJunction="J6" toJunction="J0" end="2160" vehsPerHour="14.917623994626016" departLane="free" arrivalSpeed="0.0"/>
  <flow id="JF9651" begin="1800" fromJunction="J6" toJunction="J3" end="2160" vehsPerHour="28.19372646058403" departLane="free" arrivalSpeed="0.0"/>
  <flow id="JF9652" begin="1800" fromJunction="J6" toJunction="J4" end="2160" vehsPerHour="51.85595454767424" departLane="free" arrivalSpeed="0.0"/>
  <flow id="JF9653" begin="1800" fromJunction="J6" toJunction="J5" end="2160" vehsPerHour="62.83171443989939" departLane="free" arrivalSpeed="0.0"/>
  <flow id="JF9654" begin="1800" fromJunction="J7" toJunction="J3" end="2160" vehsPerHour="46.294636271007136" departLane="free" arrivalSpeed="0.0"/>
  <flow id="JF9655" begin="1800" fromJunction="J7" toJunction="J6" end="2160" vehsPerHour="36.75192866285455" departLane="free" arrivalSpeed="0.0"/>
  <flow id="JF9656" begin="2160" fromJunction="J0" toJunction="J4" end="2520" vehsPerHour="77.45881921842226" departLane="free" arrivalSpeed="0.0"/>
  <flow id="JF9657" begin="2160" fromJunction="J0" toJunction="J5" end="2520" vehsPerHour="108.06493800212942" departLane="free" arrivalSpeed="0.0"/>
  <flow id="JF9658" begin="2160" fromJunction="J0" toJunction="J7" end="2520" vehsPerHour="13.292574910611535" departLane="free" arrivalSpeed="0.0"/>
  <flow id="JF9659" begin="2160" fromJunction="J3" toJunction="J0" end="2520" vehsPerHour="46.225951538175735" departLane="free" arrivalSpeed="0.0"/>
  <flow id="JF9660" begin="2160" fromJunction="J3" toJunction="J4" end="2520" vehsPerHour="72.54662274013447" departLane="free" arrivalSpeed="0.0"/>
  <flow id="JF9661" begin="2160" fromJunction="J3" toJunction="J5" end="2520" vehsPerHour="9.158972849105957" departLane="free" arrivalSpeed="0.0"/>
  <flow id="JF9662" begin="2160" fromJunction="J3" toJunction="J6" end="2520" vehsPerHour="89.65825789812835" departLane="free" arrivalSpeed="0.0"/>
  <flow id="JF9663" begin="2160" fromJunction="J3" toJunction="J7" end="2520" vehsPerHour="13.191603364526387" departLane="free" arrivalSpeed="0.0"/>
  <flow id="JF9664" begin="2160" fromJunction="J4" toJunction="J0" end="2520" vehsPerHour="56.9642989506829" departLane="free" arrivalSpeed="0.0"/>
  <flow id="JF9665" begin="2160" fromJunction="J4" toJunction="J5" end="2520" vehsPerHour="19.216870402456102" departLane="free" arrivalSpeed="0.0"/>
  <flow id="JF9666" begin="2160" fromJunction="J4" toJunction="J6" end="2520" vehsPerHour="6.332525541309959" departLane="free" arrivalSpeed="0.0"/>
  <flow id="JF9667" begin="2160" fromJunction="J5" toJunction="J0" end="2520" vehsPerHour="65.88434215786931" departLane="free" arrivalSpeed="0.0"/>
  <flow id="JF9668" begin="2160" fromJunction="J5" toJunction="J4" end="2520" vehsPerHour="67.20882647598845" departLane="free" arrivalSpeed="0.0"/>
  <flow id="JF9669" begin="2160" fromJunction="J5" toJunction="J7" end="2520" vehsPerHour="62.10647475598423" departLane="free" arrivalSpeed="0.0"/>
  <flow id="JF9670" begin="2160" fromJunction="J6" toJunction="J0" end="2520" vehsPerHour="44.845823230515215" departLane="free" arrivalSpeed="0.0"/>
  <flow id="JF9671" begin="2160" fromJunction="J6" toJunction="J3" end="2520" vehsPerHour="19.987476846595424" departLane="free" arrivalSpeed="0.0"/>
  <flow id="JF9672" begin="2160" fromJunction="J6" toJunction="J4" end="2520" vehsPerHour="30.526536925737823" departLane="free" arrivalSpeed="0.0"/>
  <flow id="JF9673" begin="2160" fromJunction="J6" toJunction="J5" end="2520" vehsPerHour="54.14309889944917" departLane="free" arrivalSpeed="0.0"/>
  <flow id="JF9674" begin="2160" fromJunction="J7" toJunction="J0" end="2520" vehsPerHour="41.235810675821675" departLane="free" arrivalSpeed="0.0"/>
  <flow id="JF9675" begin="2160" fromJunction="J7" toJunction="J3" end="2520" vehsPerHour="1.5506116518773392" departLane="free" arrivalSpeed="0.0"/>
  <flow id="JF9676" begin="2160" fromJunction="J7" toJunction="J4" end="2520" vehsPerHour="44.487016701113085" departLane="free" arrivalSpeed="0.0"/>
  <flow id="JF9677" begin="2160" fromJunction="J7" toJunction="J6" end="2520" vehsPerHour="11.83186741066606" departLane="free" arrivalSpeed="0.0"/>
  <flow id="JF9678" begin="2520" fromJunction="J0" toJunction="J3" end="2880" vehsPerHour="118.98365515237815" departLane="free" arrivalSpeed="0.0"/>
  <flow id="JF9679" begin="2520" fromJunction="J0" toJunction="J4" end="2880" vehsPerHour="86.30207288296867" departLane="free" arrivalSpeed="0.0"/>
  <flow id="JF9680" begin="2520" fromJunction="J0" toJunction="J5" end="2880" vehsPerHour="32.650773445339695" departLane="free" arrivalSpeed="0.0"/>
  <flow id="JF9681" begin="2520" fromJunction="J0" toJunction="J6" end="2880" vehsPerHour="114.84691013150314" departLane="free" arrivalSpeed="0.0"/>
  <flow id="JF9682" begin="2520" fromJunction="J0" toJunction="J7" end="2880" vehsPerHour="37.62519523964899" departLane="free" arrivalSpeed="0.0"/>
  <flow id="JF9683" begin="2520" fromJunction="J3" toJunction="J0" end="2880" vehsPerHour="2.0827459853447468" departLane="free" arrivalSpeed="0.0"/>
  <flow id="JF9684" begin="2520" fromJunction="J3" toJunction="J4" end="2880" vehsPerHour="35.57773588028849" departLane="free" arrivalSpeed="0.0"/>
  <flow id="JF9685" begin="2520" fromJunction="J3" toJunction="J6" end="2880" vehsPerHour="39.860890141722486" departLane="free" arrivalSpeed="0.0"/>
  <flow id="JF9686" begin="2520" fromJunction="J3" toJunction="J7" end="2880" vehsPerHour="89.38306712214296" departLane="free" arrivalSpeed="0.0"/>
  <flow id="JF9687" begin="2520" fromJunction="J4" toJunction="J0" end="2880" vehsPerHour="61.08782346667136" departLane="free" arrivalSpeed="0.0"/>
  <flow id="JF9688" begin="2520" fromJunction="J4" toJunction="J3" end="2880" vehsPerHour="54.611678879621984" departLane="free" arrivalSpeed="0.0"/>
  <flow id="JF9689" begin="2520" fromJunction="J4" toJunction="J5" end="2880" vehsPerHour="67.2983262860811" departLane="free" arrivalSpeed="0.0"/>
  <flow id="JF9690" begin="2520" fromJunction="J4" toJunction="J6" end="2880" vehsPerHour="18.09354962317432" departLane="free" arrivalSpeed="0.0"/>
  <flow id="JF9691" begin="2520" fromJunction="J5" toJunction="J3" end="2880" vehsPerHour="4.442017841583191" departLane="free" arrivalSpeed="0.0"/>
  <flow id="JF9692" begin="2520" fromJunction="J5" toJunction="J4" end="2880" vehsPerHour="10.73795284319951" departLane="free" arrivalSpeed="0.0"/>
  <flow id="JF9693" begin="2520" fromJunction="J5" toJunction="J7" end="2880" vehsPerHour="39.335911587621716" departLane="free" arrivalSpeed="0.0"/>
  <flow id="JF9694" begin="2520" fromJunction="J6" toJunction="J3" end="2880" vehsPerHour="8.613770634710693" departLane="free" arrivalSpeed="0.0"/>
  <flow id="JF9695" begin="2520" fromJunction="J6" toJunction="J4" end="2880" vehsPerHour="22.03006327425105" departLane="free" arrivalSpeed="0.0"/>
  <flow id="JF9696" begin="2520" fromJunction="J6" toJunction="J5" end="2880" vehsPerHour="18.26101055123797" departLane="free" arrivalSpeed="0.0"/>
  <flow id="JF9697" begin="2520" fromJunction="J7" toJunction="J3" end="2880" vehsPerHour="0.7932446511582425" departLane="free" arrivalSpeed="0.0"/>
  <flow id="JF9698" begin="2520" fromJunction="J7" toJunction="J4" end="2880" vehsPerHour="51.74190494305505" departLane="free" arrivalSpeed="0.0"/>
  <flow id="JF9699" begin="2520" fromJunction="J7" toJunction="J5" end="2880" vehsPerHour="32.304120163675904" departLane="free" arrivalSpeed="0.0"/>
  <flow id="JF9700" begin="2880" fromJunction="J0" toJunction="J4" end="3240" vehsPerHour="51.86894323967851" departLane="free" arrivalSpeed="0.0"/>
  <flow id="JF9701" begin="2880" fromJunction="J0" toJunction="J5" end="3240" vehsPerHour="122.44825918902521" departLane="free" arrivalSpeed="0.0"/>
  <flow id="JF9702" begin="2880" fromJunction="J0" toJunction="J7" end="3240" vehsPerHour="57.4454070805727" departLane="free" arrivalSpeed="0.0"/>
  <flow id="JF9703" begin="2880" fromJunction="J3" toJunction="J0" end="3240" vehsPerHour="64.78350720180691" departLane="free" arrivalSpeed="0.0"/>
  <flow id="JF9704" begin="2880" fromJunction="J3" toJunction="J5" end="3240" vehsPerHour="88.87649343243349" departLane="free" arrivalSpeed="0.0"/>
  <flow id="JF9705" begin="2880" fromJunction="J3" toJunction="J6" end="3240" vehsPerHour="56.73040473051497" departLane="free" arrivalSpeed="0.0"/>
  <flow id="JF9706" begin="2880" fromJunction="J4" toJunction="J3" end="3240" vehsPerHour="27.64039051523268" departLane="free" arrivalSpeed="0.0"/>
  <flow id="JF9707" begin="2880" fromJunction="J4" toJunction="J5" end="3240" vehsPerHour="21.926268090320214" departLane="free" arrivalSpeed="0.0"/>
  <flow id="JF9708" begin="2880" fromJunction="J4" toJunction="J6" end="3240" vehsPerHour="27.035325195118265" departLane="free" arrivalSpeed="0.0"/>
  <flow id="JF9709" begin="2880" fromJunction="J4" toJunction="J7" end="3240" vehsPerHour="16.72950150116374" departLane="free" arrivalSpeed="0.0"/>
  <flow id="JF9710" begin="2880" fromJunction="J5" toJunction="J3" end="3240" vehsPerHour="65.23080385702818" departLane="free" arrivalSpeed="0.0"/>
  <flow id="JF9711" begin="2880" fromJunction="J5" toJunction="J4" end="3240" vehsPerHour="66.5377262664603" departLane="free" arrivalSpeed="0.0"/>
  <flow id="JF9712" begin="2880" fromJunction="J5" toJunction="J7" end="3240" vehsPerHour="5.908087035125276" departLane="free" arrivalSpeed="0.0"/>
  <flow id="JF9713" begin="2880" fromJunction="J6" toJunction="J0" end="3240" vehsPerHour="38.397439368832416" departLane="free" arrivalSpeed="0.0"/>
  <flow id="JF9714" begin="2880" fromJunction="J6" toJunction="J3" end="3240" vehsPerHour="1.341071451178427" departLane="free" arrivalSpeed="0.0"/>
  <flow id="JF9715" begin="2880" fromJunction="J7" toJunction="J4" end="3240" vehsPerHour="24.739508109076414" departLane="free" arrivalSpeed="0.0"/>
  <flow id="JF9716" begin="2880" fromJunction="J7" toJunction="J5" end="3240" vehsPerHour="27.78844480651342" departLane="free" arrivalSpeed="0.0"/>
  <flow id="JF9717" begin="2880" fromJunction="J7" toJunction="J6" end="3240" vehsPerHour="30.818631926046045" departLane="free" arrivalSpeed="0.0"/>
  <flow id="JF9718" begin="3240" fromJunction="J0" toJunction="J3" end="3600" vehsPerHour="77.64443087327443" departLane="free" arrivalSpeed="0.0"/>
  <flow id="JF9719" begin="3240" fromJunction="J0" toJunction="J4" end="3600" vehsPerHour="60.67880186559998" departLane="free" arrivalSpeed="0.0"/>