<?xml version="1.0" encoding="UTF-8"?>

<!-- generated on 2025-03-25 09:44:35 by Eclipse SUMO netedit Version 1.20.0
<configuration xmlns:xsi="http://www.w3.org/2001/XMLSchema-instance" xsi:noNamespaceSchemaLocation="http://sumo.dlr.de/xsd/neteditConfiguration.xsd">

    <input>
        <sumocfg-file value="/home/refo/Documents/Github/sumo-rl/scenarios/aq/simulation.sumocfg"/>
        <additional-files value=""/>
        <route-files value="/home/refo/Documents/Github/sumo-rl/scenarios/aq/routes.rou.xml"/>
        <sumo-net-file value="/home/refo/Documents/Github/sumo-rl/scenarios/aq/network.net.xml"/>
    </input>

    <output>
        <output-file value="/home/refo/Documents/Github/sumo-rl/scenarios/aq/network.net.xml"/>
    </output>

    <processing>
        <geometry.min-radius.fix.railways value="false"/>
        <geometry.max-grade.fix value="false"/>
        <offset.disable-normalization value="true"/>
        <lefthand value="0"/>
    </processing>

    <junctions>
        <no-turnarounds value="true"/>
        <junctions.corner-detail value="5"/>
        <junctions.limit-turn-speed value="5.50"/>
        <rectangular-lane-cut value="0"/>
    </junctions>

    <pedestrian>
        <walkingareas value="0"/>
    </pedestrian>

</configuration>
-->

<net version="1.20" junctionCornerDetail="5" limitTurnSpeed="5.50" xmlns:xsi="http://www.w3.org/2001/XMLSchema-instance" xsi:noNamespaceSchemaLocation="http://sumo.dlr.de/xsd/net_file.xsd">

    <location netOffset="0.00,0.00" convBoundary="-10.82,-10.46,172.87,119.01" origBoundary="-10000000000.00,-10000000000.00,10000000000.00,10000000000.00" projParameter="!"/>

    <edge id=":J0_0" function="internal">
        <lane id=":J0_0_0" index="0" speed="6.48" length="9.04" shape="66.50,61.34 64.04,61.64 62.28,62.65 61.21,64.39 60.83,66.84"/>
    </edge>
    <edge id=":J0_1" function="internal">
        <lane id=":J0_1_0" index="0" speed="13.89" length="33.82" shape="66.50,61.34 32.80,61.04"/>
        <lane id=":J0_1_1" index="1" speed="13.89" length="33.82" shape="66.57,58.14 32.79,57.84"/>
        <lane id=":J0_1_2" index="2" speed="13.89" length="33.82" shape="66.64,54.94 32.78,54.64"/>
        <lane id=":J0_1_3" index="3" speed="13.89" length="33.82" shape="66.71,51.74 32.77,51.44"/>
    </edge>
    <edge id=":J0_5" function="internal">
        <lane id=":J0_5_0" index="0" speed="11.64" length="4.63" shape="66.71,51.74 62.14,50.99"/>
    </edge>
    <edge id=":J0_24" function="internal">
        <lane id=":J0_24_0" index="0" speed="11.64" length="25.59" shape="62.14,50.99 58.60,50.41 52.75,46.81 49.16,40.94 47.84,32.80"/>
    </edge>
    <edge id=":J0_6" function="internal">
        <lane id=":J0_6_0" index="0" speed="6.98" length="10.20" shape="60.63,32.53 61.08,35.29 62.28,37.27 64.25,38.49 66.98,38.94"/>
    </edge>
    <edge id=":J0_7" function="internal">
        <lane id=":J0_7_0" index="0" speed="13.89" length="34.17" shape="60.63,32.53 60.83,66.84"/>
        <lane id=":J0_7_1" index="1" speed="13.89" length="34.17" shape="57.43,32.60 57.63,66.81"/>
        <lane id=":J0_7_2" index="2" speed="13.89" length="34.17" shape="54.23,32.67 54.43,66.78"/>
        <lane id=":J0_7_3" index="3" speed="13.89" length="34.17" shape="51.03,32.73 51.23,66.75"/>
    </edge>
    <edge id=":J0_11" function="internal">
        <lane id=":J0_11_0" index="0" speed="11.33" length="5.53" shape="51.03,32.73 50.36,38.22"/>
    </edge>
    <edge id=":J0_25" function="internal">
        <lane id=":J0_25_0" index="0" speed="11.33" length="24.40" shape="50.36,38.22 50.04,40.89 46.66,46.73 40.91,50.24 32.77,51.44"/>
    </edge>
    <edge id=":J0_12" function="internal">
        <lane id=":J0_12_0" index="0" speed="6.47" length="9.03" shape="32.73,38.64 35.18,38.28 36.92,37.22 37.94,35.46 38.24,33.00"/>
    </edge>
    <edge id=":J0_13" function="internal">
        <lane id=":J0_13_0" index="0" speed="13.89" length="34.14" shape="32.73,38.64 66.98,38.94"/>
        <lane id=":J0_13_1" index="1" speed="13.89" length="34.14" shape="32.74,41.84 66.91,42.14"/>
        <lane id=":J0_13_2" index="2" speed="13.89" length="34.14" shape="32.75,45.04 66.85,45.34"/>
        <lane id=":J0_13_3" index="3" speed="13.89" length="34.14" shape="32.76,48.24 66.78,48.54"/>
    </edge>
    <edge id=":J0_17" function="internal">
        <lane id=":J0_17_0" index="0" speed="11.35" length="5.44" shape="32.76,48.24 38.15,48.99"/>
    </edge>
    <edge id=":J0_26" function="internal">
        <lane id=":J0_26_0" index="0" speed="11.35" length="24.47" shape="38.15,48.99 40.91,49.37 46.70,52.84 50.14,58.63 51.23,66.75"/>
    </edge>
    <edge id=":J0_18" function="internal">
        <lane id=":J0_18_0" index="0" speed="6.50" length="9.09" shape="38.44,66.64 38.11,64.18 37.05,62.43 35.29,61.38 32.80,61.04"/>
    </edge>
    <edge id=":J0_19" function="internal">
        <lane id=":J0_19_0" index="0" speed="13.89" length="33.78" shape="38.44,66.64 38.24,33.00"/>
        <lane id=":J0_19_1" index="1" speed="13.89" length="33.78" shape="41.64,66.67 41.44,32.93"/>
        <lane id=":J0_19_2" index="2" speed="13.89" length="33.78" shape="44.84,66.70 44.64,32.86"/>
        <lane id=":J0_19_3" index="3" speed="13.89" length="33.78" shape="48.04,66.73 47.84,32.80"/>
    </edge>
    <edge id=":J0_23" function="internal">
        <lane id=":J0_23_0" index="0" speed="11.34" length="4.52" shape="48.04,66.73 48.72,62.26"/>
    </edge>
    <edge id=":J0_27" function="internal">
        <lane id=":J0_27_0" index="0" speed="11.34" length="25.34" shape="48.72,62.26 49.27,58.62 52.81,52.89 58.64,49.53 66.78,48.54"/>
    </edge>
    <edge id=":J2_0" function="internal">
        <lane id=":J2_0_0" index="0" speed="6.68" length="9.45" shape="135.57,62.48 132.97,62.83 131.10,63.91 129.96,65.70 129.54,68.21"/>
    </edge>
    <edge id=":J2_1" function="internal">
        <lane id=":J2_1_0" index="0" speed="13.89" length="33.94" shape="135.57,62.48 101.54,62.08"/>
        <lane id=":J2_1_1" index="1" speed="13.89" length="33.94" shape="135.58,59.28 101.61,58.88"/>
        <lane id=":J2_1_2" index="2" speed="13.89" length="33.94" shape="135.59,56.08 101.68,55.68"/>
        <lane id=":J2_1_3" index="3" speed="13.89" length="33.94" shape="135.60,52.88 101.75,52.48"/>
    </edge>
    <edge id=":J2_5" function="internal">
        <lane id=":J2_5_0" index="0" speed="11.34" length="5.27" shape="135.60,52.88 130.39,52.12"/>
    </edge>
    <edge id=":J2_24" function="internal">
        <lane id=":J2_24_0" index="0" speed="11.34" length="24.57" shape="130.39,52.12 127.49,51.70 121.74,48.21 118.35,42.40 117.31,34.27"/>
    </edge>
    <edge id=":J2_6" function="internal">
        <lane id=":J2_6_0" index="0" speed="6.48" length="9.03" shape="130.10,34.46 130.42,36.92 131.44,38.68 133.18,39.73 135.64,40.09"/>
    </edge>
    <edge id=":J2_7" function="internal">
        <lane id=":J2_7_0" index="0" speed="13.89" length="33.74" shape="130.10,34.46 129.54,68.21"/>
        <lane id=":J2_7_1" index="1" speed="13.89" length="33.74" shape="126.90,34.41 126.35,68.15"/>
        <lane id=":J2_7_2" index="2" speed="13.89" length="33.74" shape="123.70,34.36 123.15,68.09"/>
        <lane id=":J2_7_3" index="3" speed="13.89" length="33.74" shape="120.50,34.32 119.95,68.03"/>
    </edge>
    <edge id=":J2_11" function="internal">
        <lane id=":J2_11_0" index="0" speed="11.36" length="5.06" shape="120.50,34.32 119.72,39.32"/>
    </edge>
    <edge id=":J2_25" function="internal">
        <lane id=":J2_25_0" index="0" speed="11.36" length="24.76" shape="119.72,39.32 119.23,42.41 115.68,48.13 109.85,51.49 101.75,52.48"/>
    </edge>
    <edge id=":J2_12" function="internal">
        <lane id=":J2_12_0" index="0" speed="6.51" length="9.09" shape="102.02,39.69 104.48,39.39 106.24,38.36 107.32,36.61 107.71,34.13"/>
    </edge>
    <edge id=":J2_13" function="internal">
        <lane id=":J2_13_0" index="0" speed="13.89" length="33.71" shape="102.02,39.69 135.64,40.09"/>
        <lane id=":J2_13_1" index="1" speed="13.89" length="33.71" shape="101.95,42.89 135.63,43.29"/>
        <lane id=":J2_13_2" index="2" speed="13.89" length="33.71" shape="101.88,46.09 135.62,46.49"/>
        <lane id=":J2_13_3" index="3" speed="13.89" length="33.71" shape="101.81,49.29 135.61,49.69"/>
    </edge>
    <edge id=":J2_17" function="internal">
        <lane id=":J2_17_0" index="0" speed="11.38" length="4.66" shape="101.81,49.29 106.42,50.04"/>
    </edge>
    <edge id=":J2_26" function="internal">
        <lane id=":J2_26_0" index="0" speed="11.38" length="25.06" shape="106.42,50.04 109.88,50.61 115.59,54.17 118.94,59.98 119.95,68.03"/>
    </edge>
    <edge id=":J2_18" function="internal">
        <lane id=":J2_18_0" index="0" speed="6.54" length="9.13" shape="107.15,67.79 106.84,65.34 105.80,63.56 104.04,62.48 101.54,62.08"/>
    </edge>
    <edge id=":J2_19" function="internal">
        <lane id=":J2_19_0" index="0" speed="13.89" length="33.69" shape="107.15,67.79 107.71,34.13"/>
        <lane id=":J2_19_1" index="1" speed="13.89" length="33.69" shape="110.35,67.85 110.91,34.18"/>
        <lane id=":J2_19_2" index="2" speed="13.89" length="33.69" shape="113.55,67.91 114.11,34.22"/>
        <lane id=":J2_19_3" index="3" speed="13.89" length="33.69" shape="116.75,67.97 117.31,34.27"/>
    </edge>
    <edge id=":J2_23" function="internal">
        <lane id=":J2_23_0" index="0" speed="11.46" length="4.89" shape="116.75,67.97 117.54,63.15"/>
    </edge>
    <edge id=":J2_27" function="internal">
        <lane id=":J2_27_0" index="0" speed="11.46" length="24.96" shape="117.54,63.15 118.06,59.95 121.63,54.23 127.48,50.81 135.61,49.69"/>
    </edge>

    <edge id="-E0" from="J1" to="J0" priority="-1" spreadType="center" shape="42.78,118.34 43.39,49.73">
        <lane id="-E0_0" index="0" speed="13.89" length="51.29" shape="37.98,117.93 38.44,66.64"/>
        <lane id="-E0_1" index="1" speed="13.89" length="51.29" shape="41.18,117.96 41.64,66.67"/>
        <lane id="-E0_2" index="2" speed="13.89" length="51.29" shape="44.38,117.99 44.84,66.70"/>
        <lane id="-E0_3" index="3" speed="13.89" length="51.29" shape="47.58,118.02 48.04,66.73"/>
    </edge>
    <edge id="-E1" from="J2" to="J0" priority="-1" spreadType="center" shape="118.89,57.64 49.66,56.18">
        <lane id="-E1_0" index="0" speed="13.89" length="35.05" shape="101.54,62.08 66.50,61.34"/>
        <lane id="-E1_1" index="1" speed="13.89" length="35.05" shape="101.61,58.88 66.57,58.14"/>
        <lane id="-E1_2" index="2" speed="13.89" length="35.05" shape="101.68,55.68 66.64,54.94"/>
        <lane id="-E1_3" index="3" speed="13.89" length="35.05" shape="101.75,52.48 66.71,51.74"/>
    </edge>
    <edge id="-E2" from="J3" to="J0" priority="-1" spreadType="center" shape="54.92,-10.11 56.19,49.65">
        <lane id="-E2_0" index="0" speed="13.89" length="42.32" shape="59.73,-9.78 60.63,32.53"/>
        <lane id="-E2_1" index="1" speed="13.89" length="42.32" shape="56.53,-9.71 57.43,32.60"/>
        <lane id="-E2_2" index="2" speed="13.89" length="42.32" shape="53.33,-9.64 54.23,32.67"/>
        <lane id="-E2_3" index="3" speed="13.89" length="42.32" shape="50.13,-9.57 51.03,32.73"/>
    </edge>
    <edge id="-E3" from="J4" to="J0" priority="-1" spreadType="center" shape="-10.82,43.61 49.76,43.38">
        <lane id="-E3_0" index="0" speed="13.89" length="43.14" shape="-10.41,38.80 32.73,38.64"/>
        <lane id="-E3_1" index="1" speed="13.89" length="43.14" shape="-10.40,42.00 32.74,41.84"/>
        <lane id="-E3_2" index="2" speed="13.89" length="43.14" shape="-10.39,45.20 32.75,45.04"/>
        <lane id="-E3_3" index="3" speed="13.89" length="43.14" shape="-10.38,48.40 32.76,48.24"/>
    </edge>
    <edge id="-E4" from="J5" to="J2" priority="-1" spreadType="center" shape="111.02,118.77 112.26,51.12">
        <lane id="-E4_0" index="0" speed="13.89" length="50.52" shape="106.22,118.30 107.15,67.79"/>
        <lane id="-E4_1" index="1" speed="13.89" length="50.52" shape="109.42,118.36 110.35,67.85"/>
        <lane id="-E4_2" index="2" speed="13.89" length="50.52" shape="112.62,118.42 113.55,67.91"/>
        <lane id="-E4_3" index="3" speed="13.89" length="50.52" shape="115.82,118.48 116.75,67.97"/>
    </edge>
    <edge id="-E5" from="J6" to="J2" priority="-1" spreadType="center" shape="125.93,-10.29 125.06,51.33">
        <lane id="-E5_0" index="0" speed="13.89" length="44.26" shape="130.73,-9.80 130.10,34.46"/>
        <lane id="-E5_1" index="1" speed="13.89" length="44.26" shape="127.53,-9.85 126.90,34.41"/>
        <lane id="-E5_2" index="2" speed="13.89" length="44.26" shape="124.33,-9.89 123.70,34.36"/>
        <lane id="-E5_3" index="3" speed="13.89" length="44.26" shape="121.13,-9.94 120.50,34.32"/>
    </edge>
    <edge id="-E6" from="J7" to="J2" priority="-1" spreadType="center" shape="172.83,57.77 118.65,57.64">
        <lane id="-E6_0" index="0" speed="13.89" length="36.78" shape="172.35,62.57 135.57,62.48"/>
        <lane id="-E6_1" index="1" speed="13.89" length="36.78" shape="172.36,59.37 135.58,59.28"/>
        <lane id="-E6_2" index="2" speed="13.89" length="36.78" shape="172.37,56.17 135.59,56.08"/>
        <lane id="-E6_3" index="3" speed="13.89" length="36.78" shape="172.38,52.97 135.60,52.88"/>
    </edge>
    <edge id="E0" from="J0" to="J1" priority="-1" spreadType="center" shape="56.19,49.83 55.56,118.46">
        <lane id="E0_0" index="0" speed="13.89" length="51.29" shape="60.83,66.84 60.36,118.13"/>
        <lane id="E0_1" index="1" speed="13.89" length="51.29" shape="57.63,66.81 57.16,118.10"/>
        <lane id="E0_2" index="2" speed="13.89" length="51.29" shape="54.43,66.78 53.96,118.07"/>
        <lane id="E0_3" index="3" speed="13.89" length="51.29" shape="51.23,66.75 50.76,118.04"/>
    </edge>
    <edge id="E1" from="J0" to="J2" priority="-1" spreadType="center" shape="49.92,43.38 119.16,44.86">
        <lane id="E1_0" index="0" speed="13.89" length="35.04" shape="66.98,38.94 102.02,39.69"/>
        <lane id="E1_1" index="1" speed="13.89" length="35.04" shape="66.91,42.14 101.95,42.89"/>
        <lane id="E1_2" index="2" speed="13.89" length="35.04" shape="66.85,45.34 101.88,46.09"/>
        <lane id="E1_3" index="3" speed="13.89" length="35.04" shape="66.78,48.54 101.81,49.29"/>
    </edge>
    <edge id="E2" from="J0" to="J3" priority="-1" spreadType="center" shape="43.39,49.91 42.16,-9.84">
        <lane id="E2_0" index="0" speed="13.89" length="42.31" shape="38.24,33.00 37.37,-9.31"/>
        <lane id="E2_1" index="1" speed="13.89" length="42.31" shape="41.44,32.93 40.57,-9.38"/>
        <lane id="E2_2" index="2" speed="13.89" length="42.31" shape="44.64,32.86 43.77,-9.44"/>
        <lane id="E2_3" index="3" speed="13.89" length="42.31" shape="47.84,32.80 46.96,-9.51"/>
    </edge>
    <edge id="E3" from="J0" to="J4" priority="-1" spreadType="center" shape="49.82,56.18 -10.77,56.38">
        <lane id="E3_0" index="0" speed="13.89" length="43.14" shape="32.80,61.04 -10.33,61.18"/>
        <lane id="E3_1" index="1" speed="13.89" length="43.14" shape="32.79,57.84 -10.34,57.98"/>
        <lane id="E3_2" index="2" speed="13.89" length="43.14" shape="32.78,54.64 -10.35,54.78"/>
        <lane id="E3_3" index="3" speed="13.89" length="43.14" shape="32.77,51.44 -10.36,51.58"/>
    </edge>
    <edge id="E4" from="J2" to="J5" priority="-1" spreadType="center" shape="125.06,51.36 123.79,119.01">
        <lane id="E4_0" index="0" speed="13.89" length="50.52" shape="129.54,68.21 128.60,118.72"/>
        <lane id="E4_1" index="1" speed="13.89" length="50.52" shape="126.35,68.15 125.40,118.66"/>
        <lane id="E4_2" index="2" speed="13.89" length="50.52" shape="123.15,68.09 122.20,118.60"/>
        <lane id="E4_3" index="3" speed="13.89" length="50.52" shape="119.95,68.03 119.00,118.54"/>
    </edge>
    <edge id="E5" from="J2" to="J6" priority="-1" spreadType="center" shape="112.26,51.15 113.16,-10.46">
        <lane id="E5_0" index="0" speed="13.89" length="44.26" shape="107.71,34.13 108.35,-10.12"/>
        <lane id="E5_1" index="1" speed="13.89" length="44.26" shape="110.91,34.18 111.55,-10.08"/>
        <lane id="E5_2" index="2" speed="13.89" length="44.26" shape="114.11,34.22 114.75,-10.03"/>
        <lane id="E5_3" index="3" speed="13.89" length="44.26" shape="117.31,34.27 117.95,-9.98"/>
    </edge>
    <edge id="E6" from="J2" to="J7" priority="-1" spreadType="center" shape="118.67,44.84 172.87,45.01">
        <lane id="E6_0" index="0" speed="13.89" length="36.78" shape="135.64,40.09 172.41,40.21"/>
        <lane id="E6_1" index="1" speed="13.89" length="36.78" shape="135.63,43.29 172.40,43.41"/>
        <lane id="E6_2" index="2" speed="13.89" length="36.78" shape="135.62,46.49 172.39,46.61"/>
        <lane id="E6_3" index="3" speed="13.89" length="36.78" shape="135.61,49.69 172.38,49.81"/>
    </edge>

    <tlLogic id="J0" type="static" programID="0" offset="0">
        <phase duration="42" state="GGGGGgrrrrrrGGGGGgrrrrrr"/>
        <phase duration="3"  state="yyyyyyrrrrrryyyyyyrrrrrr"/>
        <phase duration="42" state="rrrrrrGGGGGgrrrrrrGGGGGg"/>
        <phase duration="3"  state="rrrrrryyyyyyrrrrrryyyyyy"/>
    </tlLogic>
    <tlLogic id="J2" type="static" programID="0" offset="0">
        <phase duration="42" state="rrrrrrGGGGGgrrrrrrGGGGGg"/>
        <phase duration="3"  state="rrrrrryyyyyyrrrrrryyyyyy"/>
        <phase duration="42" state="GGGGGgrrrrrrGGGGGgrrrrrr"/>
        <phase duration="3"  state="yyyyyyrrrrrryyyyyyrrrrrr"/>
    </tlLogic>

    <junction id="J0" type="traffic_light" x="49.79" y="49.78" incLanes="-E1_0 -E1_1 -E1_2 -E1_3 -E2_0 -E2_1 -E2_2 -E2_3 -E3_0 -E3_1 -E3_2 -E3_3 -E0_0 -E0_1 -E0_2 -E0_3" intLanes=":J0_0_0 :J0_1_0 :J0_1_1 :J0_1_2 :J0_1_3 :J0_24_0 :J0_6_0 :J0_7_0 :J0_7_1 :J0_7_2 :J0_7_3 :J0_25_0 :J0_12_0 :J0_13_0 :J0_13_1 :J0_13_2 :J0_13_3 :J0_26_0 :J0_18_0 :J0_19_0 :J0_19_1 :J0_19_2 :J0_19_3 :J0_27_0" shape="66.47,62.94 67.02,37.34 64.40,36.76 63.48,36.08 62.80,35.15 62.39,33.95 62.23,32.50 36.64,33.03 36.24,35.25 35.70,36.03 34.94,36.59 33.94,36.93 32.72,37.04 32.81,62.64 35.06,63.07 35.85,63.63 36.41,64.40 36.74,65.40 36.84,66.62 62.43,66.86 62.90,64.64 63.46,63.87 64.24,63.33 65.25,63.02">
        <request index="0"  response="000000000000000000000000" foes="000000000000011110000000" cont="0"/>
        <request index="1"  response="100000000000100000000000" foes="111111100000111110000000" cont="0"/>
        <request index="2"  response="100000000000100000000000" foes="111111100000111110000000" cont="0"/>
        <request index="3"  response="100000000000100000000000" foes="111111100000111110000000" cont="0"/>
        <request index="4"  response="100000000000100000000000" foes="111111100000111110000000" cont="0"/>
        <request index="5"  response="100000011110100000000000" foes="111110011110111110000000" cont="1"/>
        <request index="6"  response="000000011110000000000000" foes="000000011110000000000000" cont="0"/>
        <request index="7"  response="000000111110000000111111" foes="100000111110000000111111" cont="0"/>
        <request index="8"  response="000000111110000000111111" foes="100000111110000000111111" cont="0"/>
        <request index="9"  response="000000111110000000111111" foes="100000111110000000111111" cont="0"/>
        <request index="10" response="000000111110000000111111" foes="100000111110000000111111" cont="0"/>
        <request index="11" response="011110111110000000111110" foes="011110111110000000111110" cont="1"/>
        <request index="12" response="000000000000000000000000" foes="011110000000000000000000" cont="0"/>
        <request index="13" response="100000000000100000000000" foes="111110000000111111100000" cont="0"/>
        <request index="14" response="100000000000100000000000" foes="111110000000111111100000" cont="0"/>
        <request index="15" response="100000000000100000000000" foes="111110000000111111100000" cont="0"/>
        <request index="16" response="100000000000100000000000" foes="111110000000111111100000" cont="0"/>
        <request index="17" response="100000000000100000011110" foes="111110000000111110011110" cont="1"/>
        <request index="18" response="000000000000000000011110" foes="000000000000000000011110" cont="0"/>
        <request index="19" response="000000111111000000111110" foes="000000111111100000111110" cont="0"/>
        <request index="20" response="000000111111000000111110" foes="000000111111100000111110" cont="0"/>
        <request index="21" response="000000111111000000111110" foes="000000111111100000111110" cont="0"/>
        <request index="22" response="000000111111000000111110" foes="000000111111100000111110" cont="0"/>
        <request index="23" response="000000111110011110111110" foes="000000111110011110111110" cont="1"/>
    </junction>
    <junction id="J1" type="dead_end" x="49.17" y="118.03" incLanes="E0_0 E0_1 E0_2 E0_3" intLanes="" shape="49.18,118.03 36.38,117.92 61.96,118.15"/>
    <junction id="J2" type="traffic_light" x="118.66" y="51.24" incLanes="-E6_0 -E6_1 -E6_2 -E6_3 -E5_0 -E5_1 -E5_2 -E5_3 E1_0 E1_1 E1_2 E1_3 -E4_0 -E4_1 -E4_2 -E4_3" intLanes=":J2_0_0 :J2_1_0 :J2_1_1 :J2_1_2 :J2_1_3 :J2_24_0 :J2_6_0 :J2_7_0 :J2_7_1 :J2_7_2 :J2_7_3 :J2_25_0 :J2_12_0 :J2_13_0 :J2_13_1 :J2_13_2 :J2_13_3 :J2_26_0 :J2_18_0 :J2_19_0 :J2_19_1 :J2_19_2 :J2_19_3 :J2_27_0" shape="135.56,64.08 135.64,38.49 133.43,38.04 132.66,37.48 132.11,36.70 131.79,35.70 131.70,34.48 106.11,34.11 105.63,36.36 105.06,37.14 104.28,37.69 103.27,38.01 102.05,38.09 101.51,63.67 103.79,64.17 104.58,64.74 105.14,65.53 105.46,66.54 105.55,67.76 131.14,68.24 131.67,65.93 132.29,65.12 133.14,64.54 134.23,64.19">
        <request index="0"  response="000000000000011110000000" foes="000000000000011110000000" cont="0"/>
        <request index="1"  response="111111000000111110000000" foes="111111100000111110000000" cont="0"/>
        <request index="2"  response="111111000000111110000000" foes="111111100000111110000000" cont="0"/>
        <request index="3"  response="111111000000111110000000" foes="111111100000111110000000" cont="0"/>
        <request index="4"  response="111111000000111110000000" foes="111111100000111110000000" cont="0"/>
        <request index="5"  response="111110011110111110000000" foes="111110011110111110000000" cont="1"/>
        <request index="6"  response="000000000000000000000000" foes="000000011110000000000000" cont="0"/>
        <request index="7"  response="000000100000000000100000" foes="100000111110000000111111" cont="0"/>
        <request index="8"  response="000000100000000000100000" foes="100000111110000000111111" cont="0"/>
        <request index="9"  response="000000100000000000100000" foes="100000111110000000111111" cont="0"/>
        <request index="10" response="000000100000000000100000" foes="100000111110000000111111" cont="0"/>
        <request index="11" response="011110100000000000100000" foes="011110111110000000111110" cont="1"/>
        <request index="12" response="011110000000000000000000" foes="011110000000000000000000" cont="0"/>
        <request index="13" response="111110000000111111000000" foes="111110000000111111100000" cont="0"/>
        <request index="14" response="111110000000111111000000" foes="111110000000111111100000" cont="0"/>
        <request index="15" response="111110000000111111000000" foes="111110000000111111100000" cont="0"/>
        <request index="16" response="111110000000111111000000" foes="111110000000111111100000" cont="0"/>
        <request index="17" response="111110000000111110011110" foes="111110000000111110011110" cont="1"/>
        <request index="18" response="000000000000000000000000" foes="000000000000000000011110" cont="0"/>
        <request index="19" response="000000100000000000100000" foes="000000111111100000111110" cont="0"/>
        <request index="20" response="000000100000000000100000" foes="000000111111100000111110" cont="0"/>
        <request index="21" response="000000100000000000100000" foes="000000111111100000111110" cont="0"/>
        <request index="22" response="000000100000000000100000" foes="000000111111100000111110" cont="0"/>
        <request index="23" response="000000100000011110100000" foes="000000111110011110111110" cont="1"/>
    </junction>
    <junction id="J3" type="dead_end" x="48.55" y="-9.54" incLanes="E2_0 E2_1 E2_2 E2_3" intLanes="" shape="48.54,-9.54 61.33,-9.81 35.77,-9.28"/>
    <junction id="J4" type="dead_end" x="-10.37" y="49.99" incLanes="E3_0 E3_1 E3_2 E3_3" intLanes="" shape="-10.37,50.00 -10.42,37.20 -10.33,62.78"/>
    <junction id="J5" type="dead_end" x="117.41" y="118.51" incLanes="E4_0 E4_1 E4_2 E4_3" intLanes="" shape="117.42,118.51 104.62,118.27 130.20,118.75"/>
    <junction id="J6" type="dead_end" x="119.54" y="-9.96" incLanes="E5_0 E5_1 E5_2 E5_3" intLanes="" shape="119.53,-9.96 132.32,-9.78 106.75,-10.15"/>
    <junction id="J7" type="dead_end" x="172.38" y="51.39" incLanes="E6_0 E6_1 E6_2 E6_3" intLanes="" shape="172.38,51.37 172.35,64.17 172.42,38.61"/>

    <junction id=":J0_24_0" type="internal" x="62.14" y="50.99" incLanes=":J0_5_0 -E3_0 -E3_1 -E3_2 -E3_3" intLanes=":J0_7_0 :J0_7_1 :J0_7_2 :J0_7_3 :J0_11_0 :J0_12_0 :J0_13_0 :J0_13_1 :J0_13_2 :J0_13_3 :J0_19_0 :J0_19_1 :J0_19_2 :J0_19_3 :J0_23_0"/>
    <junction id=":J0_25_0" type="internal" x="50.36" y="38.22" incLanes=":J0_11_0 -E0_0 -E0_1 -E0_2 -E0_3" intLanes=":J0_1_0 :J0_1_1 :J0_1_2 :J0_1_3 :J0_5_0 :J0_13_0 :J0_13_1 :J0_13_2 :J0_13_3 :J0_17_0 :J0_18_0 :J0_19_0 :J0_19_1 :J0_19_2 :J0_19_3"/>
    <junction id=":J0_26_0" type="internal" x="38.15" y="48.99" incLanes=":J0_17_0 -E1_0 -E1_1 -E1_2 -E1_3" intLanes=":J0_0_0 :J0_1_0 :J0_1_1 :J0_1_2 :J0_1_3 :J0_7_0 :J0_7_1 :J0_7_2 :J0_7_3 :J0_11_0 :J0_19_0 :J0_19_1 :J0_19_2 :J0_19_3 :J0_23_0"/>
    <junction id=":J0_27_0" type="internal" x="48.72" y="62.26" incLanes=":J0_23_0 -E2_0 -E2_1 -E2_2 -E2_3" intLanes=":J0_1_0 :J0_1_1 :J0_1_2 :J0_1_3 :J0_5_0 :J0_6_0 :J0_7_0 :J0_7_1 :J0_7_2 :J0_7_3 :J0_13_0 :J0_13_1 :J0_13_2 :J0_13_3 :J0_17_0"/>
    <junction id=":J2_24_0" type="internal" x="130.39" y="52.12" incLanes=":J2_5_0 E1_0 E1_1 E1_2 E1_3" intLanes=":J2_7_0 :J2_7_1 :J2_7_2 :J2_7_3 :J2_11_0 :J2_12_0 :J2_13_0 :J2_13_1 :J2_13_2 :J2_13_3 :J2_19_0 :J2_19_1 :J2_19_2 :J2_19_3 :J2_23_0"/>
    <junction id=":J2_25_0" type="internal" x="119.72" y="39.32" incLanes=":J2_11_0 -E4_0 -E4_1 -E4_2 -E4_3" intLanes=":J2_1_0 :J2_1_1 :J2_1_2 :J2_1_3 :J2_5_0 :J2_13_0 :J2_13_1 :J2_13_2 :J2_13_3 :J2_17_0 :J2_18_0 :J2_19_0 :J2_19_1 :J2_19_2 :J2_19_3"/>
    <junction id=":J2_26_0" type="internal" x="106.42" y="50.04" incLanes=":J2_17_0 -E6_0 -E6_1 -E6_2 -E6_3" intLanes=":J2_0_0 :J2_1_0 :J2_1_1 :J2_1_2 :J2_1_3 :J2_7_0 :J2_7_1 :J2_7_2 :J2_7_3 :J2_11_0 :J2_19_0 :J2_19_1 :J2_19_2 :J2_19_3 :J2_23_0"/>
    <junction id=":J2_27_0" type="internal" x="117.54" y="63.15" incLanes=":J2_23_0 -E5_0 -E5_1 -E5_2 -E5_3" intLanes=":J2_1_0 :J2_1_1 :J2_1_2 :J2_1_3 :J2_5_0 :J2_6_0 :J2_7_0 :J2_7_1 :J2_7_2 :J2_7_3 :J2_13_0 :J2_13_1 :J2_13_2 :J2_13_3 :J2_17_0"/>

    <connection from="-E0" to="E3" fromLane="0" toLane="0" via=":J0_18_0" tl="J0" linkIndex="18" dir="r" state="o"/>
    <connection from="-E0" to="E2" fromLane="0" toLane="0" via=":J0_19_0" tl="J0" linkIndex="19" dir="s" state="o"/>
    <connection from="-E0" to="E2" fromLane="1" toLane="1" via=":J0_19_1" tl="J0" linkIndex="20" dir="s" state="o"/>
    <connection from="-E0" to="E2" fromLane="2" toLane="2" via=":J0_19_2" tl="J0" linkIndex="21" dir="s" state="o"/>
    <connection from="-E0" to="E2" fromLane="3" toLane="3" via=":J0_19_3" tl="J0" linkIndex="22" dir="s" state="o"/>
    <connection from="-E0" to="E1" fromLane="3" toLane="3" via=":J0_23_0" tl="J0" linkIndex="23" dir="l" state="o"/>
    <connection from="-E1" to="E0" fromLane="0" toLane="0" via=":J0_0_0" tl="J0" linkIndex="0" dir="r" state="O"/>
    <connection from="-E1" to="E3" fromLane="0" toLane="0" via=":J0_1_0" tl="J0" linkIndex="1" dir="s" state="O"/>
    <connection from="-E1" to="E3" fromLane="1" toLane="1" via=":J0_1_1" tl="J0" linkIndex="2" dir="s" state="O"/>
    <connection from="-E1" to="E3" fromLane="2" toLane="2" via=":J0_1_2" tl="J0" linkIndex="3" dir="s" state="O"/>
    <connection from="-E1" to="E3" fromLane="3" toLane="3" via=":J0_1_3" tl="J0" linkIndex="4" dir="s" state="O"/>
    <connection from="-E1" to="E2" fromLane="3" toLane="3" via=":J0_5_0" tl="J0" linkIndex="5" dir="l" state="o"/>
    <connection from="-E2" to="E1" fromLane="0" toLane="0" via=":J0_6_0" tl="J0" linkIndex="6" dir="r" state="o"/>
    <connection from="-E2" to="E0" fromLane="0" toLane="0" via=":J0_7_0" tl="J0" linkIndex="7" dir="s" state="o"/>
    <connection from="-E2" to="E0" fromLane="1" toLane="1" via=":J0_7_1" tl="J0" linkIndex="8" dir="s" state="o"/>
    <connection from="-E2" to="E0" fromLane="2" toLane="2" via=":J0_7_2" tl="J0" linkIndex="9" dir="s" state="o"/>
    <connection from="-E2" to="E0" fromLane="3" toLane="3" via=":J0_7_3" tl="J0" linkIndex="10" dir="s" state="o"/>
    <connection from="-E2" to="E3" fromLane="3" toLane="3" via=":J0_11_0" tl="J0" linkIndex="11" dir="l" state="o"/>
    <connection from="-E3" to="E2" fromLane="0" toLane="0" via=":J0_12_0" tl="J0" linkIndex="12" dir="r" state="O"/>
    <connection from="-E3" to="E1" fromLane="0" toLane="0" via=":J0_13_0" tl="J0" linkIndex="13" dir="s" state="O"/>
    <connection from="-E3" to="E1" fromLane="1" toLane="1" via=":J0_13_1" tl="J0" linkIndex="14" dir="s" state="O"/>
    <connection from="-E3" to="E1" fromLane="2" toLane="2" via=":J0_13_2" tl="J0" linkIndex="15" dir="s" state="O"/>
    <connection from="-E3" to="E1" fromLane="3" toLane="3" via=":J0_13_3" tl="J0" linkIndex="16" dir="s" state="O"/>
    <connection from="-E3" to="E0" fromLane="3" toLane="3" via=":J0_17_0" tl="J0" linkIndex="17" dir="l" state="o"/>
    <connection from="-E4" to="-E1" fromLane="0" toLane="0" via=":J2_18_0" tl="J2" linkIndex="18" dir="r" state="O"/>
    <connection from="-E4" to="E5" fromLane="0" toLane="0" via=":J2_19_0" tl="J2" linkIndex="19" dir="s" state="O"/>