<?xml version="1.0" encoding="UTF-8"?>

<!-- generated on 2025-03-25 09:44:35 by Eclipse SUMO netedit Version 1.20.0
-->

<routes xmlns:xsi="http://www.w3.org/2001/XMLSchema-instance" xsi:noNamespaceSchemaLocation="http://sumo.dlr.de/xsd/routes_file.xsd">
    <!-- Vehicles, persons and containers (sorted by depart) -->
    <flow id="f_0" begin="0.00" departLane="free" arrivalSpeed="0.0" fromJunction="J4" toJunction="J7" end="3600.00" vehsPerHour="3600"/>
    <flow id="f_1" begin="0.00" departLane="free" arrivalSpeed="0.0" fromJunction="J3" toJunction="J1" end="3600.00" vehsPerHour="3600"/>
    <flow id="f_2" begin="0.00" departLane="free" arrivalSpeed="0.0" fromJunction="J6" toJunction="J5" end="3600.00" vehsPerHour="3600"/>
    <flow id="f_3" begin="0.00" departLane="free" arrivalSpeed="0.0" fromJunction="J1" toJunction="J3" end="3600.00" vehsPerHour="3600"/>
    <flow id="f_4" begin="0.00" departLane="free" arrivalSpeed="0.0" fromJunction="J5" toJunction="J6" end="3600.00" vehsPerHour="3600"/>
    <flow id="f_5" begin="0.00" departLane="free" arrivalSpeed="0.0" fromJunction="J7" toJunction="J4" end="3600.00" vehsPerHour="3600"/>
</routes>
