<?xml version="1.0" encoding="UTF-8"?>
<routes xmlns:xsi="http://www.w3.org/2001/XMLSchema-instance" xsi:noNamespaceSchemaLocation="http://sumo.dlr.de/xsd/routes_file.xsd">
  <flow id="JF89830" begin="0" fromJunction="J0" toJunction="J3" end="10000" vehsPerHour="37.28335458726216" departLane="free"/>
  <flow id="JF89831" begin="0" fromJunction="J3" toJunction="J0" end="10000" vehsPerHour="60.1271250971701" departLane="free"/>
  <flow id="JF89832" begin="0" fromJunction="J0" toJunction="J6" end="10000" vehsPerHour="139.88971314091563" departLane="free"/>
  <flow id="JF89833" begin="0" fromJunction="J0" toJunction="J4" end="10000" vehsPerHour="220.46130803411054" departLane="free"/>
  <flow id="JF89834" begin="0" fromJunction="J0" toJunction="J5" end="10000" vehsPerHour="106.59835751737089" departLane="free"/>
  <flow id="JF89835" begin="0" fromJunction="J0" toJunction="J7" end="10000" vehsPerHour="270.79997130282305" departLane="free"/>
  <flow id="JF89836" begin="0" fromJunction="J3" toJunction="J6" end="10000" vehsPerHour="154.9113116701202" departLane="free"/>
  <flow id="JF89837" begin="0" fromJunction="J3" toJunction="J4" end="10000" vehsPerHour="172.44877373928642" departLane="free"/>
  <flow id="JF89838" begin="0" fromJunction="J3" toJunction="J5" end="10000" vehsPerHour="53.32708300306817" departLane="free"/>
  <flow id="JF89839" begin="0" fromJunction="J3" toJunction="J7" end="10000" vehsPerHour="103.82828787027991" departLane="free"/>
  <flow id="JF89840" begin="0" fromJunction="J6" toJunction="J4" end="10000" vehsPerHour="49.560879192488976" departLane="free"/>
  <flow id="JF89841" begin="0" fromJunction="J6" toJunction="J5" end="10000" vehsPerHour="15.766687393566771" departLane="free"/>
  <flow id="JF89842" begin="0" fromJunction="J6" toJunction="J7" end="10000" vehsPerHour="24.540900997608738" departLane="free"/>
  <flow id="JF89843" begin="0" fromJunction="J4" toJunction="J6" end="10000" vehsPerHour="12.922087012642857" departLane="free"/>
  <flow id="JF89844" begin="0" fromJunction="J4" toJunction="J5" end="10000" vehsPerHour="28.141198363403106" departLane="free"/>
  <flow id="JF89845" begin="0" fromJunction="J4" toJunction="J7" end="10000" vehsPerHour="14.456042175317732" departLane="free"/>
  <flow id="JF89846" begin="0" fromJunction="J5" toJunction="J6" end="10000" vehsPerHour="3.2548876462687972" departLane="free"/>
  <flow id="JF89847" begin="0" fromJunction="J5" toJunction="J4" end="10000" vehsPerHour="40.86319915721949" departLane="free"/>
  <flow id="JF89848" begin="0" fromJunction="J5" toJunction="J7" end="10000" vehsPerHour="28.946376830791383" departLane="free"/>
  <flow id="JF89849" begin="0" fromJunction="J7" toJunction="J6" end="10000" vehsPerHour="31.115483087899378" departLane="free"/>
  <flow id="JF89850" begin="0" fromJunction="J7" toJunction="J4" end="10000" vehsPerHour="40.70949676546057" departLane="free"/>
  <flow id="JF89851" begin="0" fromJunction="J7" toJunction="J5" end="10000" vehsPerHour="51.113890751875154" departLane="free"/>
  <flow id="JF89852" begin="0" fromJunction="J6" toJunction="J0" end="10000" vehsPerHour="63.195719352121" departLane="free"/>
  <flow id="JF89853" begin="0" fromJunction="J6" toJunction="J3" end="10000" vehsPerHour="186.76370333248005" departLane="free"/>
  <flow id="JF89854" begin="0" fromJunction="J4" toJunction="J0" end="10000" vehsPerHour="117.04378508707646" departLane="free"/>
  <flow id="JF89855" begin="0" fromJunction="J4" toJunction="J3" end="10000" vehsPerHour="57.862059262357626" departLane="free"/>
  <flow id="JF89856" begin="0" fromJunction="J5" toJunction="J0" end="10000" vehsPerHour="40.7253471245953" departLane="free"/>
  <flow id="JF89857" begin="0" fromJunction="J5" toJunction="J3" end="10000" vehsPerHour="84.1898727490538" departLane="free"/>
  <flow id="JF89858" begin="0" fromJunction="J7" toJunction="J0" end="10000" vehsPerHour="71.1857396426561" departLane="free"/>
  <flow id="JF89859" begin="0" fromJunction="J7" toJunction="J3" end="10000" vehsPerHour="89.94759610171361" departLane="free"/>
</routes>