<?xml version="1.0" encoding="UTF-8"?>
<routes xmlns:xsi="http://www.w3.org/2001/XMLSchema-instance" xsi:noNamespaceSchemaLocation="http://sumo.dlr.de/xsd/routes_file.xsd">
  <flow id="JF89740" begin="0" fromJunction="J0" toJunction="J3" end="10000" vehsPerHour="16.778025864851468" departLane="free"/>
  <flow id="JF89741" begin="0" fromJunction="J3" toJunction="J0" end="10000" vehsPerHour="2.4455411874133715" departLane="free"/>
  <flow id="JF89742" begin="0" fromJunction="J0" toJunction="J6" end="10000" vehsPerHour="213.7553337080949" departLane="free"/>
  <flow id="JF89743" begin="0" fromJunction="J0" toJunction="J4" end="10000" vehsPerHour="146.37969334974827" departLane="free"/>
  <flow id="JF89744" begin="0" fromJunction="J0" toJunction="J5" end="10000" vehsPerHour="242.9126416689249" departLane="free"/>
  <flow id="JF89745" begin="0" fromJunction="J0" toJunction="J7" end="10000" vehsPerHour="100.0670864436526" departLane="free"/>
  <flow id="JF89746" begin="0" fromJunction="J3" toJunction="J6" end="10000" vehsPerHour="189.30815751145502" departLane="free"/>
  <flow id="JF89747" begin="0" fromJunction="J3" toJunction="J4" end="10000" vehsPerHour="17.0827611181471" departLane="free"/>
  <flow id="JF89748" begin="0" fromJunction="J3" toJunction="J5" end="10000" vehsPerHour="25.413648133277878" departLane="free"/>
  <flow id="JF89749" begin="0" fromJunction="J3" toJunction="J7" end="10000" vehsPerHour="193.36289501410636" departLane="free"/>
  <flow id="JF89750" begin="0" fromJunction="J6" toJunction="J4" end="10000" vehsPerHour="25.186348742432514" departLane="free"/>
  <flow id="JF89751" begin="0" fromJunction="J6" toJunction="J5" end="10000" vehsPerHour="63.140080484027266" departLane="free"/>
  <flow id="JF89752" begin="0" fromJunction="J6" toJunction="J7" end="10000" vehsPerHour="11.073403229818922" departLane="free"/>
  <flow id="JF89753" begin="0" fromJunction="J4" toJunction="J6" end="10000" vehsPerHour="26.580581493650307" departLane="free"/>
  <flow id="JF89754" begin="0" fromJunction="J4" toJunction="J5" end="10000" vehsPerHour="28.001047610817842" departLane="free"/>
  <flow id="JF89755" begin="0" fromJunction="J4" toJunction="J7" end="10000" vehsPerHour="12.30497024223045" departLane="free"/>
  <flow id="JF89756" begin="0" fromJunction="J5" toJunction="J6" end="10000" vehsPerHour="26.335467306907503" departLane="free"/>
  <flow id="JF89757" begin="0" fromJunction="J5" toJunction="J4" end="10000" vehsPerHour="57.20399874477833" departLane="free"/>
  <flow id="JF89758" begin="0" fromJunction="J5" toJunction="J7" end="10000" vehsPerHour="14.225270585013737" departLane="free"/>
  <flow id="JF89759" begin="0" fromJunction="J7" toJunction="J6" end="10000" vehsPerHour="33.90319513325917" departLane="free"/>
  <flow id="JF89760" begin="0" fromJunction="J7" toJunction="J4" end="10000" vehsPerHour="18.41343297234992" departLane="free"/>
  <flow id="JF89761" begin="0" fromJunction="J7" toJunction="J5" end="10000" vehsPerHour="65.81354637278623" departLane="free"/>
  <flow id="JF89762" begin="0" fromJunction="J6" toJunction="J0" end="10000" vehsPerHour="154.56136346086836" departLane="free"/>
  <flow id="JF89763" begin="0" fromJunction="J6" toJunction="J3" end="10000" vehsPerHour="77.12477253123866" departLane="free"/>
  <flow id="JF89764" begin="0" fromJunction="J4" toJunction="J0" end="10000" vehsPerHour="214.68321756421204" departLane="free"/>
  <flow id="JF89765" begin="0" fromJunction="J4" toJunction="J3" end="10000" vehsPerHour="16.644774220924088" departLane="free"/>
  <flow id="JF89766" begin="0" fromJunction="J5" toJunction="J0" end="10000" vehsPerHour="265.3744275434269" departLane="free"/>
  <flow id="JF89767" begin="0" fromJunction="J5" toJunction="J3" end="10000" vehsPerHour="28.902998169863473" departLane="free"/>
  <flow id="JF89768" begin="0" fromJunction="J7" toJunction="J0" end="10000" vehsPerHour="3.6662548868938987" departLane="free"/>
  <flow id="JF89769" begin="0" fromJunction="J7" toJunction="J3" end="10000" vehsPerHour="51.543239395144234" departLane="free"/>
</routes>