<?xml version="1.0" encoding="UTF-8"?>
<routes xmlns:xsi="http://www.w3.org/2001/XMLSchema-instance" xsi:noNamespaceSchemaLocation="http://sumo.dlr.de/xsd/routes_file.xsd">
  <flow id="JF14020" begin="0" fromJunction="J0" toJunction="J3" end="10000" vehsPerHour="16.962204433914486"/>
  <flow id="JF14021" begin="0" fromJunction="J3" toJunction="J0" end="10000" vehsPerHour="283.1193351603919"/>
  <flow id="JF14022" begin="0" fromJunction="J0" toJunction="J4" end="10000" vehsPerHour="97.40143581831128"/>
  <flow id="JF14023" begin="0" fromJunction="J0" toJunction="J2" end="10000" vehsPerHour="91.89939542670294"/>
  <flow id="JF14024" begin="0" fromJunction="J3" toJunction="J4" end="10000" vehsPerHour="68.72516035495171"/>
  <flow id="JF14025" begin="0" fromJunction="J3" toJunction="J2" end="10000" vehsPerHour="56.193862974483345"/>
  <flow id="JF14026" begin="0" fromJunction="J4" toJunction="J2" end="10000" vehsPerHour="167.47370444618218"/>
  <flow id="JF14027" begin="0" fromJunction="J2" toJunction="J4" end="10000" vehsPerHour="494.77829830640445"/>
  <flow id="JF14028" begin="0" fromJunction="J4" toJunction="J0" end="10000" vehsPerHour="106.61761757198266"/>
  <flow id="JF14029" begin="0" fromJunction="J4" toJunction="J3" end="10000" vehsPerHour="12.466798367680418"/>
  <flow id="JF14030" begin="0" fromJunction="J2" toJunction="J0" end="10000" vehsPerHour="97.97283265975057"/>
  <flow id="JF14031" begin="0" fromJunction="J2" toJunction="J3" end="10000" vehsPerHour="35.99559759672305"/>
</routes>