<?xml version="1.0" encoding="UTF-8"?>
<routes xmlns:xsi="http://www.w3.org/2001/XMLSchema-instance" xsi:noNamespaceSchemaLocation="http://sumo.dlr.de/xsd/routes_file.xsd">
  <flow id="JF79610" begin="0" fromJunction="J3" toJunction="J0" end="10000" vehsPerHour="28.013287847632597" departLane="free"/>
  <flow id="JF79611" begin="0" fromJunction="J0" toJunction="J3" end="10000" vehsPerHour="67.76480930535608" departLane="free"/>
  <flow id="JF79612" begin="0" fromJunction="J3" toJunction="J5" end="10000" vehsPerHour="448.31717731428154" departLane="free"/>
  <flow id="JF79613" begin="0" fromJunction="J3" toJunction="J7" end="10000" vehsPerHour="186.47782668712264" departLane="free"/>
  <flow id="JF79614" begin="0" fromJunction="J3" toJunction="J6" end="10000" vehsPerHour="283.8486443811227" departLane="free"/>
  <flow id="JF79615" begin="0" fromJunction="J3" toJunction="J4" end="10000" vehsPerHour="126.34871977202326" departLane="free"/>
  <flow id="JF79616" begin="0" fromJunction="J0" toJunction="J5" end="10000" vehsPerHour="116.26970356551153" departLane="free"/>
  <flow id="JF79617" begin="0" fromJunction="J0" toJunction="J7" end="10000" vehsPerHour="108.27253693624496" departLane="free"/>
  <flow id="JF79618" begin="0" fromJunction="J0" toJunction="J6" end="10000" vehsPerHour="126.81691534587073" departLane="free"/>
  <flow id="JF79619" begin="0" fromJunction="J0" toJunction="J4" end="10000" vehsPerHour="480.6472954290372" departLane="free"/>
  <flow id="JF79620" begin="0" fromJunction="J5" toJunction="J7" end="10000" vehsPerHour="36.10293049232035" departLane="free"/>
  <flow id="JF79621" begin="0" fromJunction="J5" toJunction="J6" end="10000" vehsPerHour="30.494868229013814" departLane="free"/>
  <flow id="JF79622" begin="0" fromJunction="J5" toJunction="J4" end="10000" vehsPerHour="2.0831833687352375" departLane="free"/>
  <flow id="JF79623" begin="0" fromJunction="J7" toJunction="J5" end="10000" vehsPerHour="6.990393784475277" departLane="free"/>
  <flow id="JF79624" begin="0" fromJunction="J7" toJunction="J6" end="10000" vehsPerHour="15.22310689603775" departLane="free"/>
  <flow id="JF79625" begin="0" fromJunction="J7" toJunction="J4" end="10000" vehsPerHour="8.121487926555966" departLane="free"/>
  <flow id="JF79626" begin="0" fromJunction="J6" toJunction="J5" end="10000" vehsPerHour="24.666041000116753" departLane="free"/>
  <flow id="JF79627" begin="0" fromJunction="J6" toJunction="J7" end="10000" vehsPerHour="30.139625793946667" departLane="free"/>
  <flow id="JF79628" begin="0" fromJunction="J6" toJunction="J4" end="10000" vehsPerHour="23.628246706499258" departLane="free"/>
  <flow id="JF79629" begin="0" fromJunction="J4" toJunction="J5" end="10000" vehsPerHour="35.3841286873475" departLane="free"/>
  <flow id="JF79630" begin="0" fromJunction="J4" toJunction="J7" end="10000" vehsPerHour="31.636585053061403" departLane="free"/>
  <flow id="JF79631" begin="0" fromJunction="J4" toJunction="J6" end="10000" vehsPerHour="54.00589563390195" departLane="free"/>
  <flow id="JF79632" begin="0" fromJunction="J5" toJunction="J3" end="10000" vehsPerHour="32.45994286021172" departLane="free"/>
  <flow id="JF79633" begin="0" fromJunction="J5" toJunction="J0" end="10000" vehsPerHour="28.59691095943561" departLane="free"/>
  <flow id="JF79634" begin="0" fromJunction="J7" toJunction="J3" end="10000" vehsPerHour="108.78634956362396" departLane="free"/>
  <flow id="JF79635" begin="0" fromJunction="J7" toJunction="J0" end="10000" vehsPerHour="81.12453748184423" departLane="free"/>
  <flow id="JF79636" begin="0" fromJunction="J6" toJunction="J3" end="10000" vehsPerHour="73.86116548611162" departLane="free"/>
  <flow id="JF79637" begin="0" fromJunction="J6" toJunction="J0" end="10000" vehsPerHour="99.86905579041537" departLane="free"/>
  <flow id="JF79638" begin="0" fromJunction="J4" toJunction="J3" end="10000" vehsPerHour="132.02471043797362" departLane="free"/>
  <flow id="JF79639" begin="0" fromJunction="J4" toJunction="J0" end="10000" vehsPerHour="0.2861080609257575" departLane="free"/>
</routes>