<?xml version="1.0" encoding="UTF-8"?>
<routes xmlns:xsi="http://www.w3.org/2001/XMLSchema-instance" xsi:noNamespaceSchemaLocation="http://sumo.dlr.de/xsd/routes_file.xsd">
  <flow id="JF42754" begin="0" fromJunction="J0" toJunction="J12" end="360" vehsPerHour="40.85756315779101" departLane="free" arrivalSpeed="0.0"/>
  <flow id="JF42755" begin="0" fromJunction="J0" toJunction="J15" end="360" vehsPerHour="59.60827936075551" departLane="free" arrivalSpeed="0.0"/>
  <flow id="JF42756" begin="0" fromJunction="J0" toJunction="J16" end="360" vehsPerHour="34.67237256775272" departLane="free" arrivalSpeed="0.0"/>
  <flow id="JF42757" begin="0" fromJunction="J0" toJunction="J2" end="360" vehsPerHour="8.699056772440409" departLane="free" arrivalSpeed="0.0"/>
  <flow id="JF42758" begin="0" fromJunction="J0" toJunction="J3" end="360" vehsPerHour="26.860048233995865" departLane="free" arrivalSpeed="0.0"/>
  <flow id="JF42759" begin="0" fromJunction="J0" toJunction="J7" end="360" vehsPerHour="37.493810551092686" departLane="free" arrivalSpeed="0.0"/>
  <flow id="JF42760" begin="0" fromJunction="J0" toJunction="J9" end="360" vehsPerHour="18.791015437119242" departLane="free" arrivalSpeed="0.0"/>
  <flow id="JF42761" begin="0" fromJunction="J12" toJunction="J0" end="360" vehsPerHour="9.714782649132156" departLane="free" arrivalSpeed="0.0"/>
  <flow id="JF42762" begin="0" fromJunction="J12" toJunction="J13" end="360" vehsPerHour="58.44772790325416" departLane="free" arrivalSpeed="0.0"/>
  <flow id="JF42763" begin="0" fromJunction="J12" toJunction="J15" end="360" vehsPerHour="24.317269711354864" departLane="free" arrivalSpeed="0.0"/>
  <flow id="JF42764" begin="0" fromJunction="J12" toJunction="J16" end="360" vehsPerHour="9.984801680543363" departLane="free" arrivalSpeed="0.0"/>
  <flow id="JF42765" begin="0" fromJunction="J12" toJunction="J9" end="360" vehsPerHour="22.21124467364459" departLane="free" arrivalSpeed="0.0"/>
  <flow id="JF42766" begin="0" fromJunction="J13" toJunction="J0" end="360" vehsPerHour="36.03032745874399" departLane="free" arrivalSpeed="0.0"/>
  <flow id="JF42767" begin="0" fromJunction="J13" toJunction="J14" end="360" vehsPerHour="57.34006587721899" departLane="free" arrivalSpeed="0.0"/>
  <flow id="JF42768" begin="0" fromJunction="J13" toJunction="J15" end="360" vehsPerHour="40.573065299799765" departLane="free" arrivalSpeed="0.0"/>
  <flow id="JF42769" begin="0" fromJunction="J13" toJunction="J16" end="360" vehsPerHour="22.99473727887566" departLane="free" arrivalSpeed="0.0"/>
  <flow id="JF42770" begin="0" fromJunction="J13" toJunction="J7" end="360" vehsPerHour="67.26320640505533" departLane="free" arrivalSpeed="0.0"/>
  <flow id="JF42771" begin="0" fromJunction="J13" toJunction="J8" end="360" vehsPerHour="47.219228965924756" departLane="free" arrivalSpeed="0.0"/>
  <flow id="JF42772" begin="0" fromJunction="J14" toJunction="J12" end="360" vehsPerHour="35.15746567888382" departLane="free" arrivalSpeed="0.0"/>
  <flow id="JF42773" begin="0" fromJunction="J14" toJunction="J13" end="360" vehsPerHour="16.28351479449505" departLane="free" arrivalSpeed="0.0"/>
  <flow id="JF42774" begin="0" fromJunction="J14" toJunction="J15" end="360" vehsPerHour="66.27774663952154" departLane="free" arrivalSpeed="0.0"/>
  <flow id="JF42775" begin="0" fromJunction="J14" toJunction="J16" end="360" vehsPerHour="43.749476703101074" departLane="free" arrivalSpeed="0.0"/>
  <flow id="JF42776" begin="0" fromJunction="J14" toJunction="J2" end="360" vehsPerHour="41.89191732977813" departLane="free" arrivalSpeed="0.0"/>
  <flow id="JF42777" begin="0" fromJunction="J14" toJunction="J3" end="360" vehsPerHour="11.087512450985262" departLane="free" arrivalSpeed="0.0"/>
  <flow id="JF42778" begin="0" fromJunction="J14" toJunction="J8" end="360" vehsPerHour="11.395468793234837" departLane="free" arrivalSpeed="0.0"/>
  <flow id="JF42779" begin="0" fromJunction="J14" toJunction="J9" end="360" vehsPerHour="46.918559662103135" departLane="free" arrivalSpeed="0.0"/>
  <flow id="JF42780" begin="0" fromJunction="J15" toJunction="J12" end="360" vehsPerHour="20.488067543059174" departLane="free" arrivalSpeed="0.0"/>
  <flow id="JF42781" begin="0" fromJunction="J15" toJunction="J14" end="360" vehsPerHour="51.48250998680992" departLane="free" arrivalSpeed="0.0"/>
  <flow id="JF42782" begin="0" fromJunction="J15" toJunction="J16" end="360" vehsPerHour="2.881075450166464" departLane="free" arrivalSpeed="0.0"/>
  <flow id="JF42783" begin="0" fromJunction="J15" toJunction="J2" end="360" vehsPerHour="38.12799164391425" departLane="free" arrivalSpeed="0.0"/>
  <flow id="JF42784" begin="0" fromJunction="J15" toJunction="J8" end="360" vehsPerHour="4.997729385607869" departLane="free" arrivalSpeed="0.0"/>
  <flow id="JF42785" begin="0" fromJunction="J15" toJunction="J9" end="360" vehsPerHour="9.884309402866675" departLane="free" arrivalSpeed="0.0"/>
  <flow id="JF42786" begin="0" fromJunction="J16" toJunction="J0" end="360" vehsPerHour="61.67644794715696" departLane="free" arrivalSpeed="0.0"/>
  <flow id="JF42787" begin="0" fromJunction="J16" toJunction="J13" end="360" vehsPerHour="109.98960776375978" departLane="free" arrivalSpeed="0.0"/>
  <flow id="JF42788" begin="0" fromJunction="J16" toJunction="J15" end="360" vehsPerHour="40.27999748905393" departLane="free" arrivalSpeed="0.0"/>
  <flow id="JF42789" begin="0" fromJunction="J16" toJunction="J2" end="360" vehsPerHour="21.297622188662256" departLane="free" arrivalSpeed="0.0"/>
  <flow id="JF42790" begin="0" fromJunction="J16" toJunction="J3" end="360" vehsPerHour="24.00910907827973" departLane="free" arrivalSpeed="0.0"/>
  <flow id="JF42791" begin="0" fromJunction="J16" toJunction="J6" end="360" vehsPerHour="106.11800580191841" departLane="free" arrivalSpeed="0.0"/>
  <flow id="JF42792" begin="0" fromJunction="J16" toJunction="J7" end="360" vehsPerHour="61.772848971843416" departLane="free" arrivalSpeed="0.0"/>
  <flow id="JF42793" begin="0" fromJunction="J16" toJunction="J9" end="360" vehsPerHour="63.9437183136507" departLane="free" arrivalSpeed="0.0"/>
  <flow id="JF42794" begin="0" fromJunction="J2" toJunction="J0" end="360" vehsPerHour="101.1819463366934" departLane="free" arrivalSpeed="0.0"/>
  <flow id="JF42795" begin="0" fromJunction="J2" toJunction="J12" end="360" vehsPerHour="34.136633368941" departLane="free" arrivalSpeed="0.0"/>
  <flow id="JF42796" begin="0" fromJunction="J2" toJunction="J13" end="360" vehsPerHour="44.65082508568682" departLane="free" arrivalSpeed="0.0"/>
  <flow id="JF42797" begin="0" fromJunction="J2" toJunction="J14" end="360" vehsPerHour="106.2669573994903" departLane="free" arrivalSpeed="0.0"/>
  <flow id="JF42798" begin="0" fromJunction="J2" toJunction="J16" end="360" vehsPerHour="66.68742580967736" departLane="free" arrivalSpeed="0.0"/>
  <flow id="JF42799" begin="0" fromJunction="J2" toJunction="J6" end="360" vehsPerHour="14.913746834967899" departLane="free" arrivalSpeed="0.0"/>
  <flow id="JF42800" begin="0" fromJunction="J2" toJunction="J7" end="360" vehsPerHour="50.859324725608516" departLane="free" arrivalSpeed="0.0"/>
  <flow id="JF42801" begin="0" fromJunction="J2" toJunction="J8" end="360" vehsPerHour="114.15767225807794" departLane="free" arrivalSpeed="0.0"/>
  <flow id="JF42802" begin="0" fromJunction="J2" toJunction="J9" end="360" vehsPerHour="19.396122487057774" departLane="free" arrivalSpeed="0.0"/>
  <flow id="JF42803" begin="0" fromJunction="J3" toJunction="J0" end="360" vehsPerHour="61.41663594684571" departLane="free" arrivalSpeed="0.0"/>
  <flow id="JF42804" begin="0" fromJunction="J3" toJunction="J12" end="360" vehsPerHour="30.451368378538405" departLane="free" arrivalSpeed="0.0"/>
  <flow id="JF42805" begin="0" fromJunction="J3" toJunction="J13" end="360" vehsPerHour="52.00212653904516" departLane="free" arrivalSpeed="0.0"/>
  <flow id="JF42806" begin="0" fromJunction="J3" toJunction="J15" end="360" vehsPerHour="66.7415714419745" departLane="free" arrivalSpeed="0.0"/>
  <flow id="JF42807" begin="0" fromJunction="J3" toJunction="J16" end="360" vehsPerHour="57.59067006914085" departLane="free" arrivalSpeed="0.0"/>
  <flow id="JF42808" begin="0" fromJunction="J3" toJunction="J2" end="360" vehsPerHour="0.7863768394006604" departLane="free" arrivalSpeed="0.0"/>
  <flow id="JF42809" begin="0" fromJunction="J3" toJunction="J6" end="360" vehsPerHour="35.111592457797364" departLane="free" arrivalSpeed="0.0"/>
  <flow id="JF42810" begin="0" fromJunction="J3" toJunction="J7" end="360" vehsPerHour="5.723435845174357" departLane="free" arrivalSpeed="0.0"/>
  <flow id="JF42811" begin="0" fromJunction="J3" toJunction="J8" end="360" vehsPerHour="34.37059416611337" departLane="free" arrivalSpeed="0.0"/>
  <flow id="JF42812" begin="0" fromJunction="J3" toJunction="J9" end="360" vehsPerHour="18.174873928873623" departLane="free" arrivalSpeed="0.0"/>
  <flow id="JF42813" begin="0" fromJunction="J6" toJunction="J0" end="360" vehsPerHour="4.857589222437781" departLane="free" arrivalSpeed="0.0"/>
  <flow id="JF42814" begin="0" fromJunction="J6" toJunction="J12" end="360" vehsPerHour="35.17585591528983" departLane="free" arrivalSpeed="0.0"/>
  <flow id="JF42815" begin="0" fromJunction="J6" toJunction="J13" end="360" vehsPerHour="0.04082901031591808" departLane="free" arrivalSpeed="0.0"/>
  <flow id="JF42816" begin="0" fromJunction="J6" toJunction="J14" end="360" vehsPerHour="37.45478984015689" departLane="free" arrivalSpeed="0.0"/>
  <flow id="JF42817" begin="0" fromJunction="J6" toJunction="J15" end="360" vehsPerHour="66.21408561719787" departLane="free" arrivalSpeed="0.0"/>
  <flow id="JF42818" begin="0" fromJunction="J6" toJunction="J16" end="360" vehsPerHour="25.243172427890034" departLane="free" arrivalSpeed="0.0"/>
  <flow id="JF42819" begin="0" fromJunction="J6" toJunction="J2" end="360" vehsPerHour="62.16893468126454" departLane="free" arrivalSpeed="0.0"/>
  <flow id="JF42820" begin="0" fromJunction="J6" toJunction="J3" end="360" vehsPerHour="20.51559456277036" departLane="free" arrivalSpeed="0.0"/>
  <flow id="JF42821" begin="0" fromJunction="J6" toJunction="J8" end="360" vehsPerHour="41.88659136888206" departLane="free" arrivalSpeed="0.0"/>
  <flow id="JF42822" begin="0" fromJunction="J6" toJunction="J9" end="360" vehsPerHour="41.77424622878342" departLane="free" arrivalSpeed="0.0"/>
  <flow id="JF42823" begin="0" fromJunction="J7" toJunction="J12" end="360" vehsPerHour="37.366292873282575" departLane="free" arrivalSpeed="0.0"/>
  <flow id="JF42824" begin="0" fromJunction="J7" toJunction="J13" end="360" vehsPerHour="67.13425423409033" departLane="free" arrivalSpeed="0.0"/>
  <flow id="JF42825" begin="0" fromJunction="J7" toJunction="J14" end="360" vehsPerHour="29.729191996699225" departLane="free" arrivalSpeed="0.0"/>
  <flow id="JF42826" begin="0" fromJunction="J7" toJunction="J15" end="360" vehsPerHour="52.80551968398448" departLane="free" arrivalSpeed="0.0"/>
  <flow id="JF42827" begin="0" fromJunction="J7" toJunction="J2" end="360" vehsPerHour="50.58818464114747" departLane="free" arrivalSpeed="0.0"/>
  <flow id="JF42828" begin="0" fromJunction="J7" toJunction="J8" end="360" vehsPerHour="62.61919667639082" departLane="free" arrivalSpeed="0.0"/>
  <flow id="JF42829" begin="0" fromJunction="J8" toJunction="J12" end="360" vehsPerHour="4.311834366223977" departLane="free" arrivalSpeed="0.0"/>
  <flow id="JF42830" begin="0" fromJunction="J8" toJunction="J13" end="360" vehsPerHour="59.02795874024716" departLane="free" arrivalSpeed="0.0"/>
  <flow id="JF42831" begin="0" fromJunction="J8" toJunction="J14" end="360" vehsPerHour="46.64325711583172" departLane="free" arrivalSpeed="0.0"/>
  <flow id="JF42832" begin="0" fromJunction="J8" toJunction="J16" end="360" vehsPerHour="5.810002919537141" departLane="free" arrivalSpeed="0.0"/>
  <flow id="JF42833" begin="0" fromJunction="J8" toJunction="J2" end="360" vehsPerHour="39.00817814405963" departLane="free" arrivalSpeed="0.0"/>
  <flow id="JF42834" begin="0" fromJunction="J8" toJunction="J7" end="360" vehsPerHour="6.759333621837945" departLane="free" arrivalSpeed="0.0"/>
  <flow id="JF42835" begin="0" fromJunction="J9" toJunction="J0" end="360" vehsPerHour="47.67096356758318" departLane="free" arrivalSpeed="0.0"/>
  <flow id="JF42836" begin="0" fromJunction="J9" toJunction="J12" end="360" vehsPerHour="19.144062073285586" departLane="free" arrivalSpeed="0.0"/>
  <flow id="JF42837" begin="0" fromJunction="J9" toJunction="J13" end="360" vehsPerHour="31.758046681741998" departLane="free" arrivalSpeed="0.0"/>
  <flow id="JF42838" begin="0" fromJunction="J9" toJunction="J14" end="360" vehsPerHour="56.74649149387852" departLane="free" arrivalSpeed="0.0"/>
  <flow id="JF42839" begin="0" fromJunction="J9" toJunction="J15" end="360" vehsPerHour="23.71536694116432" departLane="free" arrivalSpeed="0.0"/>
  <flow id="JF42840" begin="0" fromJunction="J9" toJunction="J16" end="360" vehsPerHour="21.327660008818217" departLane="free" arrivalSpeed="0.0"/>
  <flow id="JF42841" begin="0" fromJunction="J9" toJunction="J3" end="360" vehsPerHour="47.07982631619366" departLane="free" arrivalSpeed="0.0"/>
  <flow id="JF42842" begin="0" fromJunction="J9" toJunction="J6" end="360" vehsPerHour="55.951529826794975" departLane="free" arrivalSpeed="0.0"/>
  <flow id="JF42843" begin="0" fromJunction="J9" toJunction="J7" end="360" vehsPerHour="13.426089390869038" departLane="free" arrivalSpeed="0.0"/>
  <flow id="JF42844" begin="360" fromJunction="J0" toJunction="J16" end="720" vehsPerHour="33.18116940185848" departLane="free" arrivalSpeed="0.0"/>
  <flow id="JF42845" begin="360" fromJunction="J0" toJunction="J2" end="720" vehsPerHour="3.374282519696806" departLane="free" arrivalSpeed="0.0"/>
  <flow id="JF42846" begin="360" fromJunction="J0" toJunction="J3" end="720" vehsPerHour="42.27849537983331" departLane="free" arrivalSpeed="0.0"/>
  <flow id="JF42847" begin="360" fromJunction="J0" toJunction="J6" end="720" vehsPerHour="22.508033685537747" departLane="free" arrivalSpeed="0.0"/>
  <flow id="JF42848" begin="360" fromJunction="J0" toJunction="J7" end="720" vehsPerHour="61.440281679036936" departLane="free" arrivalSpeed="0.0"/>
  <flow id="JF42849" begin="360" fromJunction="J0" toJunction="J8" end="720" vehsPerHour="24.1919910002123" departLane="free" arrivalSpeed="0.0"/>
  <flow id="JF42850" begin="360" fromJunction="J12" toJunction="J0" end="720" vehsPerHour="51.894149834389346" departLane="free" arrivalSpeed="0.0"/>
  <flow id="JF42851" begin="360" fromJunction="J12" toJunction="J14" end="720" vehsPerHour="3.5122602854516574" departLane="free" arrivalSpeed="0.0"/>
  <flow id="JF42852" begin="360" fromJunction="J12" toJunction="J16" end="720" vehsPerHour="45.439482827314755" departLane="free" arrivalSpeed="0.0"/>
  <flow id="JF42853" begin="360" fromJunction="J12" toJunction="J3" end="720" vehsPerHour="0.9750767102088645" departLane="free" arrivalSpeed="0.0"/>
  <flow id="JF42854" begin="360" fromJunction="J12" toJunction="J8" end="720" vehsPerHour="68.44955462657134" departLane="free" arrivalSpeed="0.0"/>
  <flow id="JF42855" begin="360" fromJunction="J13" toJunction="J0" end="720" vehsPerHour="49.51317503344723" departLane="free" arrivalSpeed="0.0"/>
  <flow id="JF42856" begin="360" fromJunction="J13" toJunction="J12" end="720" vehsPerHour="66.90008215197963" departLane="free" arrivalSpeed="0.0"/>
  <flow id="JF42857" begin="360" fromJunction="J13" toJunction="J14" end="720" vehsPerHour="44.88756346146084" departLane="free" arrivalSpeed="0.0"/>
  <flow id="JF42858" begin="360" fromJunction="J13" toJunction="J16" end="720" vehsPerHour="5.674533953739765" departLane="free" arrivalSpeed="0.0"/>
  <flow id="JF42859" begin="360" fromJunction="J13" toJunction="J2" end="720" vehsPerHour="41.35199953362272" departLane="free" arrivalSpeed="0.0"/>
  <flow id="JF42860" begin="360" fromJunction="J13" toJunction="J3" end="720" vehsPerHour="38.21990319766958" departLane="free" arrivalSpeed="0.0"/>
  <flow id="JF42861" begin="360" fromJunction="J13" toJunction="J6" end="720" vehsPerHour="25.153872178025196" departLane="free" arrivalSpeed="0.0"/>
  <flow id="JF42862" begin="360" fromJunction="J13" toJunction="J8" end="720" vehsPerHour="13.77749045266833" departLane="free" arrivalSpeed="0.0"/>
  <flow id="JF42863" begin="360" fromJunction="J13" toJunction="J9" end="720" vehsPerHour="53.130486681580884" departLane="free" arrivalSpeed="0.0"/>
  <flow id="JF42864" begin="360" fromJunction="J14" toJunction="J0" end="720" vehsPerHour="18.713015171007747" departLane="free" arrivalSpeed="0.0"/>
  <flow id="JF42865" begin="360" fromJunction="J14" toJunction="J12" end="720" vehsPerHour="65.51615910935027" departLane="free" arrivalSpeed="0.0"/>
  <flow id="JF42866" begin="360" fromJunction="J14" toJunction="J15" end="720" vehsPerHour="5.328337793682647" departLane="free" arrivalSpeed="0.0"/>
  <flow id="JF42867" begin="360" fromJunction="J14" toJunction="J16" end="720" vehsPerHour="48.5539908040381" departLane="free" arrivalSpeed="0.0"/>
  <flow id="JF42868" begin="360" fromJunction="J14" toJunction="J2" end="720" vehsPerHour="7.11099951541949" departLane="free" arrivalSpeed="0.0"/>
  <flow id="JF42869" begin="360" fromJunction="J14" toJunction="J3" end="720" vehsPerHour="23.295903905614928" departLane="free" arrivalSpeed="0.0"/>
  <flow id="JF42870" begin="360" fromJunction="J14" toJunction="J6" end="720" vehsPerHour="3.6400424613730644" departLane="free" arrivalSpeed="0.0"/>
  <flow id="JF42871" begin="360" fromJunction="J14" toJunction="J7" end="720" vehsPerHour="6.691798106153347" departLane="free" arrivalSpeed="0.0"/>
  <flow id="JF42872" begin="360" fromJunction="J14" toJunction="J9" end="720" vehsPerHour="18.567968216369785" departLane="free" arrivalSpeed="0.0"/>
  <flow id="JF42873" begin="360" fromJunction="J15" toJunction="J12" end="720" vehsPerHour="51.806580082052385" departLane="free" arrivalSpeed="0.0"/>
  <flow id="JF42874" begin="360" fromJunction="J15" toJunction="J3" end="720" vehsPerHour="54.01486582904176" departLane="free" arrivalSpeed="0.0"/>
  <flow id="JF42875" begin="360" fromJunction="J15" toJunction="J6" end="720" vehsPerHour="33.17334158127952" departLane="free" arrivalSpeed="0.0"/>
  <flow id="JF42876" begin="360" fromJunction="J15" toJunction="J7" end="720" vehsPerHour="31.914633453975547" departLane="free" arrivalSpeed="0.0"/>
  <flow id="JF42877" begin="360" fromJunction="J15" toJunction="J8" end="720" vehsPerHour="10.470276364354312" departLane="free" arrivalSpeed="0.0"/>
  <flow id="JF42878" begin="360" fromJunction="J16" toJunction="J0" end="720" vehsPerHour="109.17277310305367" departLane="free" arrivalSpeed="0.0"/>
  <flow id="JF42879" begin="360" fromJunction="J16" toJunction="J13" end="720" vehsPerHour="94.72682175376437" departLane="free" arrivalSpeed="0.0"/>
  <flow id="JF42880" begin="360" fromJunction="J16" toJunction="J14" end="720" vehsPerHour="103.00180096238506" departLane="free" arrivalSpeed="0.0"/>
  <flow id="JF42881" begin="360" fromJunction="J16" toJunction="J15" end="720" vehsPerHour="47.232116204866294" departLane="free" arrivalSpeed="0.0"/>
  <flow id="JF42882" begin="360" fromJunction="J16" toJunction="J3" end="720" vehsPerHour="87.7666649387666" departLane="free" arrivalSpeed="0.0"/>
  <flow id="JF42883" begin="360" fromJunction="J16" toJunction="J6" end="720" vehsPerHour="129.30930679501964" departLane="free" arrivalSpeed="0.0"/>
  <flow id="JF42884" begin="360" fromJunction="J16" toJunction="J7" end="720" vehsPerHour="59.32191352024184" departLane="free" arrivalSpeed="0.0"/>
  <flow id="JF42885" begin="360" fromJunction="J16" toJunction="J9" end="720" vehsPerHour="11.771622812501315" departLane="free" arrivalSpeed="0.0"/>
  <flow id="JF42886" begin="360" fromJunction="J2" toJunction="J12" end="720" vehsPerHour="49.50561030833148" departLane="free" arrivalSpeed="0.0"/>
  <flow id="JF42887" begin="360" fromJunction="J2" toJunction="J13" end="720" vehsPerHour="52.23218015086887" departLane="free" arrivalSpeed="0.0"/>
  <flow id="JF42888" begin="360" fromJunction="J2" toJunction="J14" end="720" vehsPerHour="77.3033164399695" departLane="free" arrivalSpeed="0.0"/>
  <flow id="JF42889" begin="360" fromJunction="J2" toJunction="J15" end="720" vehsPerHour="101.60459599777253" departLane="free" arrivalSpeed="0.0"/>
  <flow id="JF42890" begin="360" fromJunction="J2" toJunction="J3" end="720" vehsPerHour="101.56744093828421" departLane="free" arrivalSpeed="0.0"/>
  <flow id="JF42891" begin="360" fromJunction="J2" toJunction="J6" end="720" vehsPerHour="4.985789328801581" departLane="free" arrivalSpeed="0.0"/>
  <flow id="JF42892" begin="360" fromJunction="J2" toJunction="J7" end="720" vehsPerHour="7.580426176911438" departLane="free" arrivalSpeed="0.0"/>
  <flow id="JF42893" begin="360" fromJunction="J2" toJunction="J8" end="720" vehsPerHour="37.83327959631749" departLane="free" arrivalSpeed="0.0"/>
  <flow id="JF42894" begin="360" fromJunction="J2" toJunction="J9" end="720" vehsPerHour="49.46335938345705" departLane="free" arrivalSpeed="0.0"/>
  <flow id="JF42895" begin="360" fromJunction="J3" toJunction="J0" end="720" vehsPerHour="55.36170991130858" departLane="free" arrivalSpeed="0.0"/>
  <flow id="JF42896" begin="360" fromJunction="J3" toJunction="J12" end="720" vehsPerHour="64.80700477296674" departLane="free" arrivalSpeed="0.0"/>
  <flow id="JF42897" begin="360" fromJunction="J3" toJunction="J13" end="720" vehsPerHour="47.957534849679234" departLane="free" arrivalSpeed="0.0"/>
  <flow id="JF42898" begin="360" fromJunction="J3" toJunction="J14" end="720" vehsPerHour="20.24754396079547" departLane="free" arrivalSpeed="0.0"/>
  <flow id="JF42899" begin="360" fromJunction="J3" toJunction="J15" end="720" vehsPerHour="60.71651717750382" departLane="free" arrivalSpeed="0.0"/>
  <flow id="JF42900" begin="360" fromJunction="J3" toJunction="J16" end="720" vehsPerHour="46.4658175415197" departLane="free" arrivalSpeed="0.0"/>
  <flow id="JF42901" begin="360" fromJunction="J3" toJunction="J7" end="720" vehsPerHour="7.942378769908423" departLane="free" arrivalSpeed="0.0"/>
  <flow id="JF42902" begin="360" fromJunction="J6" toJunction="J0" end="720" vehsPerHour="29.63254342349618" departLane="free" arrivalSpeed="0.0"/>
  <flow id="JF42903" begin="360" fromJunction="J6" toJunction="J12" end="720" vehsPerHour="32.017634397990854" departLane="free" arrivalSpeed="0.0"/>
  <flow id="JF42904" begin="360" fromJunction="J6" toJunction="J13" end="720" vehsPerHour="1.624353954050198" departLane="free" arrivalSpeed="0.0"/>
  <flow id="JF42905" begin="360" fromJunction="J6" toJunction="J14" end="720" vehsPerHour="12.911219986175444" departLane="free" arrivalSpeed="0.0"/>
  <flow id="JF42906" begin="360" fromJunction="J6" toJunction="J15" end="720" vehsPerHour="57.71903421014669" departLane="free" arrivalSpeed="0.0"/>
  <flow id="JF42907" begin="360" fromJunction="J6" toJunction="J16" end="720" vehsPerHour="61.06505052806935" departLane="free" arrivalSpeed="0.0"/>
  <flow id="JF42908" begin="360" fromJunction="J6" toJunction="J3" end="720" vehsPerHour="68.6974725591088" departLane="free" arrivalSpeed="0.0"/>
  <flow id="JF42909" begin="360" fromJunction="J6" toJunction="J8" end="720" vehsPerHour="52.68930075014035" departLane="free" arrivalSpeed="0.0"/>
  <flow id="JF42910" begin="360" fromJunction="J6" toJunction="J9" end="720" vehsPerHour="18.59824858399082" departLane="free" arrivalSpeed="0.0"/>
  <flow id="JF42911" begin="360" fromJunction="J7" toJunction="J0" end="720" vehsPerHour="54.37526306322639" departLane="free" arrivalSpeed="0.0"/>
  <flow id="JF42912" begin="360" fromJunction="J7" toJunction="J12" end="720" vehsPerHour="10.270193413358824" departLane="free" arrivalSpeed="0.0"/>
  <flow id="JF42913" begin="360" fromJunction="J7" toJunction="J13" end="720" vehsPerHour="21.764822176298573" departLane="free" arrivalSpeed="0.0"/>
  <flow id="JF42914" begin="360" fromJunction="J7" toJunction="J14" end="720" vehsPerHour="9.432107866409186" departLane="free" arrivalSpeed="0.0"/>
  <flow id="JF42915" begin="360" fromJunction="J7" toJunction="J16" end="720" vehsPerHour="19.14838063142118" departLane="free" arrivalSpeed="0.0"/>
  <flow id="JF42916" begin="360" fromJunction="J7" toJunction="J2" end="720" vehsPerHour="40.32311029624073" departLane="free" arrivalSpeed="0.0"/>
  <flow id="JF42917" begin="360" fromJunction="J7" toJunction="J3" end="720" vehsPerHour="7.123038950503412" departLane="free" arrivalSpeed="0.0"/>
  <flow id="JF42918" begin="360" fromJunction="J7" toJunction="J6" end="720" vehsPerHour="58.52286234951703" departLane="free" arrivalSpeed="0.0"/>
  <flow id="JF42919" begin="360" fromJunction="J7" toJunction="J8" end="720" vehsPerHour="62.707071737776616" departLane="free" arrivalSpeed="0.0"/>
  <flow id="JF42920" begin="360" fromJunction="J7" toJunction="J9" end="720" vehsPerHour="56.563975131002714" departLane="free" arrivalSpeed="0.0"/>
  <flow id="JF42921" begin="360" fromJunction="J8" toJunction="J12" end="720" vehsPerHour="11.866118766347112" departLane="free" arrivalSpeed="0.0"/>
  <flow id="JF42922" begin="360" fromJunction="J8" toJunction="J14" end="720" vehsPerHour="61.84626440878945" departLane="free" arrivalSpeed="0.0"/>
  <flow id="JF42923" begin="360" fromJunction="J8" toJunction="J16" end="720" vehsPerHour="5.495469329445539" departLane="free" arrivalSpeed="0.0"/>
  <flow id="JF42924" begin="360" fromJunction="J8" toJunction="J2" end="720" vehsPerHour="48.20156964210354" departLane="free" arrivalSpeed="0.0"/>
  <flow id="JF42925" begin="360" fromJunction="J8" toJunction="J3" end="720" vehsPerHour="65.4789704968483" departLane="free" arrivalSpeed="0.0"/>
  <flow id="JF42926" begin="360" fromJunction="J8" toJunction="J6" end="720" vehsPerHour="5.419598776044816" departLane="free" arrivalSpeed="0.0"/>
  <flow id="JF42927" begin="360" fromJunction="J8" toJunction="J9" end="720" vehsPerHour="42.852054028067094" departLane="free" arrivalSpeed="0.0"/>
  <flow id="JF42928" begin="360" fromJunction="J9" toJunction="J0" end="720" vehsPerHour="51.647298654507566" departLane="free" arrivalSpeed="0.0"/>
  <flow id="JF42929" begin="360" fromJunction="J9" toJunction="J12" end="720" vehsPerHour="9.462184948934231" departLane="free" arrivalSpeed="0.0"/>
  <flow id="JF42930" begin="360" fromJunction="J9" toJunction="J13" end="720" vehsPerHour="4.64359525175464" departLane="free" arrivalSpeed="0.0"/>
  <flow id="JF42931" begin="360" fromJunction="J9" toJunction="J16" end="720" vehsPerHour="23.356828669215123" departLane="free" arrivalSpeed="0.0"/>
  <flow id="JF42932" begin="360" fromJunction="J9" toJunction="J2" end="720" vehsPerHour="6.984164521555864" departLane="free" arrivalSpeed="0.0"/>
  <flow id="JF42933" begin="360" fromJunction="J9" toJunction="J6" end="720" vehsPerHour="46.77934658033451" departLane="free" arrivalSpeed="0.0"/>
  <flow id="JF42934" begin="360" fromJunction="J9" toJunction="J8" end="720" vehsPerHour="10.363458783811161" departLane="free" arrivalSpeed="0.0"/>
  <flow id="JF42935" begin="720" fromJunction="J0" toJunction="J14" end="1080" vehsPerHour="7.993996850744406" departLane="free" arrivalSpeed="0.0"/>
  <flow id="JF42936" begin="720" fromJunction="J0" toJunction="J15" end="1080" vehsPerHour="4.927881501130968" departLane="free" arrivalSpeed="0.0"/>
  <flow id="JF42937" begin="720" fromJunction="J0" toJunction="J3" end="1080" vehsPerHour="56.38488380854842" departLane="free" arrivalSpeed="0.0"/>
  <flow id="JF42938" begin="720" fromJunction="J0" toJunction="J6" end="1080" vehsPerHour="45.21062169234862" departLane="free" arrivalSpeed="0.0"/>
  <flow id="JF42939" begin="720" fromJunction="J0" toJunction="J7" end="1080" vehsPerHour="53.55061404421818" departLane="free" arrivalSpeed="0.0"/>
  <flow id="JF42940" begin="720" fromJunction="J0" toJunction="J8" end="1080" vehsPerHour="38.10566527266399" departLane="free" arrivalSpeed="0.0"/>
  <flow id="JF42941" begin="720" fromJunction="J0" toJunction="J9" end="1080" vehsPerHour="20.20356273434619" departLane="free" arrivalSpeed="0.0"/>
  <flow id="JF42942" begin="720" fromJunction="J12" toJunction="J0" end="1080" vehsPerHour="29.128124827459" departLane="free" arrivalSpeed="0.0"/>
  <flow id="JF42943" begin="720" fromJunction="J12" toJunction="J13" end="1080" vehsPerHour="60.29910389368828" departLane="free" arrivalSpeed="0.0"/>
  <flow id="JF42944" begin="720" fromJunction="J12" toJunction="J14" end="1080" vehsPerHour="18.302601636196172" departLane="free" arrivalSpeed="0.0"/>
  <flow id="JF42945" begin="720" fromJunction="J12" toJunction="J15" end="1080" vehsPerHour="67.87962212254686" departLane="free" arrivalSpeed="0.0"/>
  <flow id="JF42946" begin="720" fromJunction="J12" toJunction="J16" end="1080" vehsPerHour="36.00311681712061" departLane="free" arrivalSpeed="0.0"/>
  <flow id="JF42947" begin="720" fromJunction="J12" toJunction="J2" end="1080" vehsPerHour="26.8474766614289" departLane="free" arrivalSpeed="0.0"/>
  <flow id="JF42948" begin="720" fromJunction="J12" toJunction="J7" end="1080" vehsPerHour="31.78715329747643" departLane="free" arrivalSpeed="0.0"/>
  <flow id="JF42949" begin="720" fromJunction="J12" toJunction="J8" end="1080" vehsPerHour="20.99820038631491" departLane="free" arrivalSpeed="0.0"/>
  <flow id="JF42950" begin="720" fromJunction="J13" toJunction="J12" end="1080" vehsPerHour="41.14351987259913" departLane="free" arrivalSpeed="0.0"/>
  <flow id="JF42951" begin="720" fromJunction="J13" toJunction="J14" end="1080" vehsPerHour="37.99397017685591" departLane="free" arrivalSpeed="0.0"/>
  <flow id="JF42952" begin="720" fromJunction="J13" toJunction="J16" end="1080" vehsPerHour="38.85273958609497" departLane="free" arrivalSpeed="0.0"/>
  <flow id="JF42953" begin="720" fromJunction="J13" toJunction="J2" end="1080" vehsPerHour="40.89900098534134" departLane="free" arrivalSpeed="0.0"/>
  <flow id="JF42954" begin="720" fromJunction="J13" toJunction="J7" end="1080" vehsPerHour="43.89109590783556" departLane="free" arrivalSpeed="0.0"/>