<?xml version="1.0" encoding="UTF-8"?>
<routes xmlns:xsi="http://www.w3.org/2001/XMLSchema-instance" xsi:noNamespaceSchemaLocation="http://sumo.dlr.de/xsd/routes_file.xsd">
  <flow id="JF9860" begin="0" fromJunction="J0" toJunction="J4" end="360" vehsPerHour="12.6179410376457" departLane="free" arrivalSpeed="0.0"/>
  <flow id="JF9861" begin="0" fromJunction="J0" toJunction="J5" end="360" vehsPerHour="77.75709862261785" departLane="free" arrivalSpeed="0.0"/>
  <flow id="JF9862" begin="0" fromJunction="J0" toJunction="J7" end="360" vehsPerHour="77.64387023406049" departLane="free" arrivalSpeed="0.0"/>
  <flow id="JF9863" begin="0" fromJunction="J3" toJunction="J0" end="360" vehsPerHour="125.37591726307096" departLane="free" arrivalSpeed="0.0"/>
  <flow id="JF9864" begin="0" fromJunction="J3" toJunction="J4" end="360" vehsPerHour="63.49701850874131" departLane="free" arrivalSpeed="0.0"/>
  <flow id="JF9865" begin="0" fromJunction="J3" toJunction="J5" end="360" vehsPerHour="88.7070250977914" departLane="free" arrivalSpeed="0.0"/>
  <flow id="JF9866" begin="0" fromJunction="J3" toJunction="J6" end="360" vehsPerHour="50.465652676948324" departLane="free" arrivalSpeed="0.0"/>
  <flow id="JF9867" begin="0" fromJunction="J3" toJunction="J7" end="360" vehsPerHour="97.03307993573806" departLane="free" arrivalSpeed="0.0"/>
  <flow id="JF9868" begin="0" fromJunction="J4" toJunction="J0" end="360" vehsPerHour="4.833018212152062" departLane="free" arrivalSpeed="0.0"/>
  <flow id="JF9869" begin="0" fromJunction="J4" toJunction="J3" end="360" vehsPerHour="36.321530706908725" departLane="free" arrivalSpeed="0.0"/>
  <flow id="JF9870" begin="0" fromJunction="J4" toJunction="J5" end="360" vehsPerHour="60.35675012287007" departLane="free" arrivalSpeed="0.0"/>
  <flow id="JF9871" begin="0" fromJunction="J4" toJunction="J6" end="360" vehsPerHour="27.43779330788308" departLane="free" arrivalSpeed="0.0"/>
  <flow id="JF9872" begin="0" fromJunction="J5" toJunction="J0" end="360" vehsPerHour="46.931541605815625" departLane="free" arrivalSpeed="0.0"/>
  <flow id="JF9873" begin="0" fromJunction="J5" toJunction="J3" end="360" vehsPerHour="29.894366300320357" departLane="free" arrivalSpeed="0.0"/>
  <flow id="JF9874" begin="0" fromJunction="J5" toJunction="J4" end="360" vehsPerHour="14.216830298564743" departLane="free" arrivalSpeed="0.0"/>
  <flow id="JF9875" begin="0" fromJunction="J5" toJunction="J6" end="360" vehsPerHour="28.827206343381746" departLane="free" arrivalSpeed="0.0"/>
  <flow id="JF9876" begin="0" fromJunction="J6" toJunction="J0" end="360" vehsPerHour="25.67873950965777" departLane="free" arrivalSpeed="0.0"/>
  <flow id="JF9877" begin="0" fromJunction="J6" toJunction="J4" end="360" vehsPerHour="68.48644585653471" departLane="free" arrivalSpeed="0.0"/>
  <flow id="JF9878" begin="0" fromJunction="J7" toJunction="J0" end="360" vehsPerHour="13.8014778612625" departLane="free" arrivalSpeed="0.0"/>
  <flow id="JF9879" begin="0" fromJunction="J7" toJunction="J3" end="360" vehsPerHour="64.80934593251814" departLane="free" arrivalSpeed="0.0"/>
  <flow id="JF9880" begin="0" fromJunction="J7" toJunction="J4" end="360" vehsPerHour="56.70692452429829" departLane="free" arrivalSpeed="0.0"/>
  <flow id="JF9881" begin="0" fromJunction="J7" toJunction="J5" end="360" vehsPerHour="2.178721184572921" departLane="free" arrivalSpeed="0.0"/>
  <flow id="JF9882" begin="360" fromJunction="J0" toJunction="J3" end="720" vehsPerHour="53.18034469647042" departLane="free" arrivalSpeed="0.0"/>
  <flow id="JF9883" begin="360" fromJunction="J0" toJunction="J4" end="720" vehsPerHour="12.10184061308429" departLane="free" arrivalSpeed="0.0"/>
  <flow id="JF9884" begin="360" fromJunction="J0" toJunction="J6" end="720" vehsPerHour="106.93334570819707" departLane="free" arrivalSpeed="0.0"/>
  <flow id="JF9885" begin="360" fromJunction="J0" toJunction="J7" end="720" vehsPerHour="51.08419324062381" departLane="free" arrivalSpeed="0.0"/>
  <flow id="JF9886" begin="360" fromJunction="J3" toJunction="J0" end="720" vehsPerHour="38.24464778798148" departLane="free" arrivalSpeed="0.0"/>
  <flow id="JF9887" begin="360" fromJunction="J3" toJunction="J4" end="720" vehsPerHour="38.66960434890502" departLane="free" arrivalSpeed="0.0"/>
  <flow id="JF9888" begin="360" fromJunction="J3" toJunction="J6" end="720" vehsPerHour="97.38213810307795" departLane="free" arrivalSpeed="0.0"/>
  <flow id="JF9889" begin="360" fromJunction="J3" toJunction="J7" end="720" vehsPerHour="63.302766311408575" departLane="free" arrivalSpeed="0.0"/>
  <flow id="JF9890" begin="360" fromJunction="J4" toJunction="J0" end="720" vehsPerHour="37.15966386114117" departLane="free" arrivalSpeed="0.0"/>
  <flow id="JF9891" begin="360" fromJunction="J4" toJunction="J3" end="720" vehsPerHour="9.417098927861971" departLane="free" arrivalSpeed="0.0"/>
  <flow id="JF9892" begin="360" fromJunction="J4" toJunction="J5" end="720" vehsPerHour="13.823658395440214" departLane="free" arrivalSpeed="0.0"/>
  <flow id="JF9893" begin="360" fromJunction="J4" toJunction="J7" end="720" vehsPerHour="42.002173932084204" departLane="free" arrivalSpeed="0.0"/>
  <flow id="JF9894" begin="360" fromJunction="J5" toJunction="J0" end="720" vehsPerHour="32.05808509853003" departLane="free" arrivalSpeed="0.0"/>
  <flow id="JF9895" begin="360" fromJunction="J5" toJunction="J3" end="720" vehsPerHour="13.884863090504716" departLane="free" arrivalSpeed="0.0"/>
  <flow id="JF9896" begin="360" fromJunction="J5" toJunction="J4" end="720" vehsPerHour="42.815932036730864" departLane="free" arrivalSpeed="0.0"/>
  <flow id="JF9897" begin="360" fromJunction="J5" toJunction="J6" end="720" vehsPerHour="15.294290171957613" departLane="free" arrivalSpeed="0.0"/>
  <flow id="JF9898" begin="360" fromJunction="J5" toJunction="J7" end="720" vehsPerHour="46.134550012684215" departLane="free" arrivalSpeed="0.0"/>
  <flow id="JF9899" begin="360" fromJunction="J6" toJunction="J4" end="720" vehsPerHour="1.4556791144001175" departLane="free" arrivalSpeed="0.0"/>
  <flow id="JF9900" begin="360" fromJunction="J6" toJunction="J5" end="720" vehsPerHour="68.36861270070507" departLane="free" arrivalSpeed="0.0"/>
  <flow id="JF9901" begin="360" fromJunction="J6" toJunction="J7" end="720" vehsPerHour="40.554698194903104" departLane="free" arrivalSpeed="0.0"/>
  <flow id="JF9902" begin="360" fromJunction="J7" toJunction="J3" end="720" vehsPerHour="15.529296635372543" departLane="free" arrivalSpeed="0.0"/>
  <flow id="JF9903" begin="360" fromJunction="J7" toJunction="J4" end="720" vehsPerHour="3.7634942517781993" departLane="free" arrivalSpeed="0.0"/>
  <flow id="JF9904" begin="360" fromJunction="J7" toJunction="J6" end="720" vehsPerHour="3.8461569117867795" departLane="free" arrivalSpeed="0.0"/>
  <flow id="JF9905" begin="720" fromJunction="J0" toJunction="J3" end="1080" vehsPerHour="72.6886911812835" departLane="free" arrivalSpeed="0.0"/>
  <flow id="JF9906" begin="720" fromJunction="J0" toJunction="J4" end="1080" vehsPerHour="47.77680013949745" departLane="free" arrivalSpeed="0.0"/>
  <flow id="JF9907" begin="720" fromJunction="J0" toJunction="J5" end="1080" vehsPerHour="17.048383022580254" departLane="free" arrivalSpeed="0.0"/>
  <flow id="JF9908" begin="720" fromJunction="J0" toJunction="J6" end="1080" vehsPerHour="51.11861590702711" departLane="free" arrivalSpeed="0.0"/>
  <flow id="JF9909" begin="720" fromJunction="J0" toJunction="J7" end="1080" vehsPerHour="36.94310570202407" departLane="free" arrivalSpeed="0.0"/>
  <flow id="JF9910" begin="720" fromJunction="J3" toJunction="J0" end="1080" vehsPerHour="121.90924202367826" departLane="free" arrivalSpeed="0.0"/>
  <flow id="JF9911" begin="720" fromJunction="J3" toJunction="J4" end="1080" vehsPerHour="121.9979989779571" departLane="free" arrivalSpeed="0.0"/>
  <flow id="JF9912" begin="720" fromJunction="J3" toJunction="J6" end="1080" vehsPerHour="126.61554388459892" departLane="free" arrivalSpeed="0.0"/>
  <flow id="JF9913" begin="720" fromJunction="J4" toJunction="J3" end="1080" vehsPerHour="59.189787198471265" departLane="free" arrivalSpeed="0.0"/>
  <flow id="JF9914" begin="720" fromJunction="J4" toJunction="J5" end="1080" vehsPerHour="4.2810469901538735" departLane="free" arrivalSpeed="0.0"/>
  <flow id="JF9915" begin="720" fromJunction="J4" toJunction="J6" end="1080" vehsPerHour="54.40222754217713" departLane="free" arrivalSpeed="0.0"/>
  <flow id="JF9916" begin="720" fromJunction="J4" toJunction="J7" end="1080" vehsPerHour="4.319073643560695" departLane="free" arrivalSpeed="0.0"/>
  <flow id="JF9917" begin="720" fromJunction="J5" toJunction="J0" end="1080" vehsPerHour="6.581218369469951" departLane="free" arrivalSpeed="0.0"/>
  <flow id="JF9918" begin="720" fromJunction="J5" toJunction="J3" end="1080" vehsPerHour="41.10050447621194" departLane="free" arrivalSpeed="0.0"/>
  <flow id="JF9919" begin="720" fromJunction="J5" toJunction="J4" end="1080" vehsPerHour="36.99236187877572" departLane="free" arrivalSpeed="0.0"/>
  <flow id="JF9920" begin="720" fromJunction="J5" toJunction="J6" end="1080" vehsPerHour="28.262617795102265" departLane="free" arrivalSpeed="0.0"/>
  <flow id="JF9921" begin="720" fromJunction="J5" toJunction="J7" end="1080" vehsPerHour="13.294166901552202" departLane="free" arrivalSpeed="0.0"/>
  <flow id="JF9922" begin="720" fromJunction="J6" toJunction="J0" end="1080" vehsPerHour="44.26290534337112" departLane="free" arrivalSpeed="0.0"/>
  <flow id="JF9923" begin="720" fromJunction="J6" toJunction="J3" end="1080" vehsPerHour="30.682311620215856" departLane="free" arrivalSpeed="0.0"/>
  <flow id="JF9924" begin="720" fromJunction="J6" toJunction="J4" end="1080" vehsPerHour="56.59768819001578" departLane="free" arrivalSpeed="0.0"/>
  <flow id="JF9925" begin="720" fromJunction="J7" toJunction="J0" end="1080" vehsPerHour="7.784713512380111" departLane="free" arrivalSpeed="0.0"/>
  <flow id="JF9926" begin="720" fromJunction="J7" toJunction="J4" end="1080" vehsPerHour="43.54274696493839" departLane="free" arrivalSpeed="0.0"/>
  <flow id="JF9927" begin="720" fromJunction="J7" toJunction="J5" end="1080" vehsPerHour="12.57615466756124" departLane="free" arrivalSpeed="0.0"/>
  <flow id="JF9928" begin="720" fromJunction="J7" toJunction="J6" end="1080" vehsPerHour="32.27191544658637" departLane="free" arrivalSpeed="0.0"/>
  <flow id="JF9929" begin="1080" fromJunction="J0" toJunction="J3" end="1440" vehsPerHour="31.075830534876488" departLane="free" arrivalSpeed="0.0"/>
  <flow id="JF9930" begin="1080" fromJunction="J0" toJunction="J5" end="1440" vehsPerHour="23.442834674569866" departLane="free" arrivalSpeed="0.0"/>
  <flow id="JF9931" begin="1080" fromJunction="J0" toJunction="J6" end="1440" vehsPerHour="23.45605849219417" departLane="free" arrivalSpeed="0.0"/>
  <flow id="JF9932" begin="1080" fromJunction="J0" toJunction="J7" end="1440" vehsPerHour="10.429969186993993" departLane="free" arrivalSpeed="0.0"/>
  <flow id="JF9933" begin="1080" fromJunction="J3" toJunction="J0" end="1440" vehsPerHour="71.12908153475377" departLane="free" arrivalSpeed="0.0"/>
  <flow id="JF9934" begin="1080" fromJunction="J3" toJunction="J4" end="1440" vehsPerHour="99.07629218394793" departLane="free" arrivalSpeed="0.0"/>
  <flow id="JF9935" begin="1080" fromJunction="J3" toJunction="J5" end="1440" vehsPerHour="124.78573122621877" departLane="free" arrivalSpeed="0.0"/>
  <flow id="JF9936" begin="1080" fromJunction="J3" toJunction="J6" end="1440" vehsPerHour="74.1316920237537" departLane="free" arrivalSpeed="0.0"/>
  <flow id="JF9937" begin="1080" fromJunction="J3" toJunction="J7" end="1440" vehsPerHour="75.77539591730665" departLane="free" arrivalSpeed="0.0"/>
  <flow id="JF9938" begin="1080" fromJunction="J4" toJunction="J0" end="1440" vehsPerHour="67.04113311632852" departLane="free" arrivalSpeed="0.0"/>
  <flow id="JF9939" begin="1080" fromJunction="J4" toJunction="J5" end="1440" vehsPerHour="54.180710581799595" departLane="free" arrivalSpeed="0.0"/>
  <flow id="JF9940" begin="1080" fromJunction="J4" toJunction="J6" end="1440" vehsPerHour="19.328095998371776" departLane="free" arrivalSpeed="0.0"/>
  <flow id="JF9941" begin="1080" fromJunction="J4" toJunction="J7" end="1440" vehsPerHour="16.781208251305316" departLane="free" arrivalSpeed="0.0"/>
  <flow id="JF9942" begin="1080" fromJunction="J5" toJunction="J0" end="1440" vehsPerHour="66.92628660661829" departLane="free" arrivalSpeed="0.0"/>
  <flow id="JF9943" begin="1080" fromJunction="J5" toJunction="J3" end="1440" vehsPerHour="27.09836418270868" departLane="free" arrivalSpeed="0.0"/>
  <flow id="JF9944" begin="1080" fromJunction="J5" toJunction="J4" end="1440" vehsPerHour="4.428114956380111" departLane="free" arrivalSpeed="0.0"/>
  <flow id="JF9945" begin="1080" fromJunction="J5" toJunction="J6" end="1440" vehsPerHour="15.679215710689947" departLane="free" arrivalSpeed="0.0"/>
  <flow id="JF9946" begin="1080" fromJunction="J5" toJunction="J7" end="1440" vehsPerHour="36.78038907466401" departLane="free" arrivalSpeed="0.0"/>
  <flow id="JF9947" begin="1080" fromJunction="J6" toJunction="J0" end="1440" vehsPerHour="63.6384162644919" departLane="free" arrivalSpeed="0.0"/>
  <flow id="JF9948" begin="1080" fromJunction="J6" toJunction="J3" end="1440" vehsPerHour="52.27683400542466" departLane="free" arrivalSpeed="0.0"/>
  <flow id="JF9949" begin="1080" fromJunction="J6" toJunction="J5" end="1440" vehsPerHour="3.38302785474859" departLane="free" arrivalSpeed="0.0"/>
  <flow id="JF9950" begin="1080" fromJunction="J6" toJunction="J7" end="1440" vehsPerHour="32.156455629387416" departLane="free" arrivalSpeed="0.0"/>
  <flow id="JF9951" begin="1080" fromJunction="J7" toJunction="J0" end="1440" vehsPerHour="14.085705477781849" departLane="free" arrivalSpeed="0.0"/>
  <flow id="JF9952" begin="1080" fromJunction="J7" toJunction="J3" end="1440" vehsPerHour="67.69166084844018" departLane="free" arrivalSpeed="0.0"/>
  <flow id="JF9953" begin="1080" fromJunction="J7" toJunction="J4" end="1440" vehsPerHour="43.55354622233889" departLane="free" arrivalSpeed="0.0"/>
  <flow id="JF9954" begin="1080" fromJunction="J7" toJunction="J5" end="1440" vehsPerHour="49.734749570827184" departLane="free" arrivalSpeed="0.0"/>
  <flow id="JF9955" begin="1440" fromJunction="J0" toJunction="J3" end="1800" vehsPerHour="23.61060247557312" departLane="free" arrivalSpeed="0.0"/>
  <flow id="JF9956" begin="1440" fromJunction="J0" toJunction="J4" end="1800" vehsPerHour="87.88251846486997" departLane="free" arrivalSpeed="0.0"/>
  <flow id="JF9957" begin="1440" fromJunction="J0" toJunction="J7" end="1800" vehsPerHour="9.158041050151075" departLane="free" arrivalSpeed="0.0"/>
  <flow id="JF9958" begin="1440" fromJunction="J3" toJunction="J5" end="1800" vehsPerHour="122.83471140155918" departLane="free" arrivalSpeed="0.0"/>
  <flow id="JF9959" begin="1440" fromJunction="J3" toJunction="J6" end="1800" vehsPerHour="9.207894198022494" departLane="free" arrivalSpeed="0.0"/>
  <flow id="JF9960" begin="1440" fromJunction="J4" toJunction="J0" end="1800" vehsPerHour="22.052650848823614" departLane="free" arrivalSpeed="0.0"/>
  <flow id="JF9961" begin="1440" fromJunction="J4" toJunction="J3" end="1800" vehsPerHour="66.37552672054282" departLane="free" arrivalSpeed="0.0"/>
  <flow id="JF9962" begin="1440" fromJunction="J4" toJunction="J5" end="1800" vehsPerHour="64.25301017811543" departLane="free" arrivalSpeed="0.0"/>
  <flow id="JF9963" begin="1440" fromJunction="J4" toJunction="J6" end="1800" vehsPerHour="61.97596007595785" departLane="free" arrivalSpeed="0.0"/>
  <flow id="JF9964" begin="1440" fromJunction="J5" toJunction="J3" end="1800" vehsPerHour="32.690131025370206" departLane="free" arrivalSpeed="0.0"/>
  <flow id="JF9965" begin="1440" fromJunction="J5" toJunction="J6" end="1800" vehsPerHour="29.184543924366697" departLane="free" arrivalSpeed="0.0"/>
  <flow id="JF9966" begin="1440" fromJunction="J5" toJunction="J7" end="1800" vehsPerHour="58.73512631879926" departLane="free" arrivalSpeed="0.0"/>
  <flow id="JF9967" begin="1440" fromJunction="J6" toJunction="J0" end="1800" vehsPerHour="11.535861733100413" departLane="free" arrivalSpeed="0.0"/>
  <flow id="JF9968" begin="1440" fromJunction="J6" toJunction="J3" end="1800" vehsPerHour="44.58116268387535" departLane="free" arrivalSpeed="0.0"/>
  <flow id="JF9969" begin="1440" fromJunction="J6" toJunction="J5" end="1800" vehsPerHour="66.98819279011516" departLane="free" arrivalSpeed="0.0"/>
  <flow id="JF9970" begin="1440" fromJunction="J7" toJunction="J0" end="1800" vehsPerHour="9.165932017761467" departLane="free" arrivalSpeed="0.0"/>
  <flow id="JF9971" begin="1440" fromJunction="J7" toJunction="J5" end="1800" vehsPerHour="39.23503965002133" departLane="free" arrivalSpeed="0.0"/>
  <flow id="JF9972" begin="1440" fromJunction="J7" toJunction="J6" end="1800" vehsPerHour="52.50411379674496" departLane="free" arrivalSpeed="0.0"/>
  <flow id="JF9973" begin="1800" fromJunction="J0" toJunction="J3" end="2160" vehsPerHour="130.85058079387855" departLane="free" arrivalSpeed="0.0"/>
  <flow id="JF9974" begin="1800" fromJunction="J0" toJunction="J4" end="2160" vehsPerHour="72.99294481634449" departLane="free" arrivalSpeed="0.0"/>
  <flow id="JF9975" begin="1800" fromJunction="J0" toJunction="J5" end="2160" vehsPerHour="51.55930530226063" departLane="free" arrivalSpeed="0.0"/>
  <flow id="JF9976" begin="1800" fromJunction="J0" toJunction="J6" end="2160" vehsPerHour="32.41350784507673" departLane="free" arrivalSpeed="0.0"/>
  <flow id="JF9977" begin="1800" fromJunction="J0" toJunction="J7" end="2160" vehsPerHour="86.72312339363476" departLane="free" arrivalSpeed="0.0"/>
  <flow id="JF9978" begin="1800" fromJunction="J3" toJunction="J4" end="2160" vehsPerHour="87.04309077201609" departLane="free" arrivalSpeed="0.0"/>
  <flow id="JF9979" begin="1800" fromJunction="J3" toJunction="J5" end="2160" vehsPerHour="23.70689728918531" departLane="free" arrivalSpeed="0.0"/>
  <flow id="JF9980" begin="1800" fromJunction="J3" toJunction="J6" end="2160" vehsPerHour="83.24065470128" departLane="free" arrivalSpeed="0.0"/>
  <flow id="JF9981" begin="1800" fromJunction="J3" toJunction="J7" end="2160" vehsPerHour="24.090564846934484" departLane="free" arrivalSpeed="0.0"/>
  <flow id="JF9982" begin="1800" fromJunction="J4" toJunction="J0" end="2160" vehsPerHour="54.50632008684236" departLane="free" arrivalSpeed="0.0"/>
  <flow id="JF9983" begin="1800" fromJunction="J4" toJunction="J3" end="2160" vehsPerHour="60.17990628552163" departLane="free" arrivalSpeed="0.0"/>
  <flow id="JF9984" begin="1800" fromJunction="J4" toJunction="J5" end="2160" vehsPerHour="54.336197961108816" departLane="free" arrivalSpeed="0.0"/>
  <flow id="JF9985" begin="1800" fromJunction="J4" toJunction="J6" end="2160" vehsPerHour="58.706014229397574" departLane="free" arrivalSpeed="0.0"/>
  <flow id="JF9986" begin="1800" fromJunction="J4" toJunction="J7" end="2160" vehsPerHour="37.70425055450533" departLane="free" arrivalSpeed="0.0"/>
  <flow id="JF9987" begin="1800" fromJunction="J5" toJunction="J0" end="2160" vehsPerHour="60.114112119866135" departLane="free" arrivalSpeed="0.0"/>
  <flow id="JF9988" begin="1800" fromJunction="J5" toJunction="J6" end="2160" vehsPerHour="36.8269457464691" departLane="free" arrivalSpeed="0.0"/>
  <flow id="JF9989" begin="1800" fromJunction="J6" toJunction="J3" end="2160" vehsPerHour="17.130639735515363" departLane="free" arrivalSpeed="0.0"/>
  <flow id="JF9990" begin="1800" fromJunction="J6" toJunction="J4" end="2160" vehsPerHour="9.917170924156212" departLane="free" arrivalSpeed="0.0"/>
  <flow id="JF9991" begin="1800" fromJunction="J6" toJunction="J5" end="2160" vehsPerHour="56.580404186873615" departLane="free" arrivalSpeed="0.0"/>
  <flow id="JF9992" begin="1800" fromJunction="J6" toJunction="J7" end="2160" vehsPerHour="15.349570875264728" departLane="free" arrivalSpeed="0.0"/>
  <flow id="JF9993" begin="1800" fromJunction="J7" toJunction="J0" end="2160" vehsPerHour="16.1331982996193" departLane="free" arrivalSpeed="0.0"/>
  <flow id="JF9994" begin="1800" fromJunction="J7" toJunction="J3" end="2160" vehsPerHour="3.4126802158257394" departLane="free" arrivalSpeed="0.0"/>
  <flow id="JF9995" begin="1800" fromJunction="J7" toJunction="J4" end="2160" vehsPerHour="21.755246339432773" departLane="free" arrivalSpeed="0.0"/>
  <flow id="JF9996" begin="1800" fromJunction="J7" toJunction="J5" end="2160" vehsPerHour="57.51026734872697" departLane="free" arrivalSpeed="0.0"/>
  <flow id="JF9997" begin="1800" fromJunction="J7" toJunction="J6" end="2160" vehsPerHour="58.66889866944834" departLane="free" arrivalSpeed="0.0"/>
  <flow id="JF9998" begin="2160" fromJunction="J0" toJunction="J5" end="2520" vehsPerHour="17.990300481754144" departLane="free" arrivalSpeed="0.0"/>
  <flow id="JF9999" begin="2160" fromJunction="J0" toJunction="J6" end="2520" vehsPerHour="43.90073838488048" departLane="free" arrivalSpeed="0.0"/>
  <flow id="JF10000" begin="2160" fromJunction="J3" toJunction="J0" end="2520" vehsPerHour="34.84586448808101" departLane="free" arrivalSpeed="0.0"/>
  <flow id="JF10001" begin="2160" fromJunction="J3" toJunction="J6" end="2520" vehsPerHour="22.35072382127399" departLane="free" arrivalSpeed="0.0"/>
  <flow id="JF10002" begin="2160" fromJunction="J3" toJunction="J7" end="2520" vehsPerHour="48.449626917241396" departLane="free" arrivalSpeed="0.0"/>
  <flow id="JF10003" begin="2160" fromJunction="J4" toJunction="J0" end="2520" vehsPerHour="15.064926879754102" departLane="free" arrivalSpeed="0.0"/>
  <flow id="JF10004" begin="2160" fromJunction="J4" toJunction="J3" end="2520" vehsPerHour="10.941161233834785" departLane="free" arrivalSpeed="0.0"/>
  <flow id="JF10005" begin="2160" fromJunction="J4" toJunction="J5" end="2520" vehsPerHour="39.48560284802092" departLane="free" arrivalSpeed="0.0"/>
  <flow id="JF10006" begin="2160" fromJunction="J4" toJunction="J6" end="2520" vehsPerHour="14.759236529172075" departLane="free" arrivalSpeed="0.0"/>
  <flow id="JF10007" begin="2160" fromJunction="J4" toJunction="J7" end="2520" vehsPerHour="52.89061140555453" departLane="free" arrivalSpeed="0.0"/>
  <flow id="JF10008" begin="2160" fromJunction="J5" toJunction="J0" end="2520" vehsPerHour="52.56649146617236" departLane="free" arrivalSpeed="0.0"/>
  <flow id="JF10009" begin="2160" fromJunction="J5" toJunction="J3" end="2520" vehsPerHour="53.05237674863319" departLane="free" arrivalSpeed="0.0"/>
  <flow id="JF10010" begin="2160" fromJunction="J5" toJunction="J4" end="2520" vehsPerHour="3.411424491524737" departLane="free" arrivalSpeed="0.0"/>
  <flow id="JF10011" begin="2160" fromJunction="J6" toJunction="J4" end="2520" vehsPerHour="67.68221405247894" departLane="free" arrivalSpeed="0.0"/>
  <flow id="JF10012" begin="2160" fromJunction="J6" toJunction="J5" end="2520" vehsPerHour="16.96632555602372" departLane="free" arrivalSpeed="0.0"/>
  <flow id="JF10013" begin="2160" fromJunction="J6" toJunction="J7" end="2520" vehsPerHour="6.380001890827174" departLane="free" arrivalSpeed="0.0"/>
  <flow id="JF10014" begin="2160" fromJunction="J7" toJunction="J0" end="2520" vehsPerHour="61.04350170474729" departLane="free" arrivalSpeed="0.0"/>
  <flow id="JF10015" begin="2160" fromJunction="J7" toJunction="J3" end="2520" vehsPerHour="59.33900276171863" departLane="free" arrivalSpeed="0.0"/>
  <flow id="JF10016" begin="2160" fromJunction="J7" toJunction="J4" end="2520" vehsPerHour="2.3046832794369005" departLane="free" arrivalSpeed="0.0"/>
  <flow id="JF10017" begin="2160" fromJunction="J7" toJunction="J5" end="2520" vehsPerHour="35.71358101621441" departLane="free" arrivalSpeed="0.0"/>
  <flow id="JF10018" begin="2160" fromJunction="J7" toJunction="J6" end="2520" vehsPerHour="29.469105286077976" departLane="free" arrivalSpeed="0.0"/>
  <flow id="JF10019" begin="2520" fromJunction="J0" toJunction="J3" end="2880" vehsPerHour="62.56408824080833" departLane="free" arrivalSpeed="0.0"/>
  <flow id="JF10020" begin="2520" fromJunction="J0" toJunction="J4" end="2880" vehsPerHour="69.25771308968915" departLane="free" arrivalSpeed="0.0"/>
  <flow id="JF10021" begin="2520" fromJunction="J0" toJunction="J5" end="2880" vehsPerHour="83.44698314921771" departLane="free" arrivalSpeed="0.0"/>
  <flow id="JF10022" begin="2520" fromJunction="J0" toJunction="J7" end="2880" vehsPerHour="40.74815514721676" departLane="free" arrivalSpeed="0.0"/>
  <flow id="JF10023" begin="2520" fromJunction="J3" toJunction="J0" end="2880" vehsPerHour="7.434786449489518" departLane="free" arrivalSpeed="0.0"/>
  <flow id="JF10024" begin="2520" fromJunction="J3" toJunction="J5" end="2880" vehsPerHour="119.13458476132199" departLane="free" arrivalSpeed="0.0"/>
  <flow id="JF10025" begin="2520" fromJunction="J3" toJunction="J6" end="2880" vehsPerHour="96.51019025845306" departLane="free" arrivalSpeed="0.0"/>
  <flow id="JF10026" begin="2520" fromJunction="J3" toJunction="J7" end="2880" vehsPerHour="24.446236408170574" departLane="free" arrivalSpeed="0.0"/>
  <flow id="JF10027" begin="2520" fromJunction="J4" toJunction="J5" end="2880" vehsPerHour="58.048514128575" departLane="free" arrivalSpeed="0.0"/>
  <flow id="JF10028" begin="2520" fromJunction="J5" toJunction="J6" end="2880" vehsPerHour="5.257428948579552" departLane="free" arrivalSpeed="0.0"/>
  <flow id="JF10029" begin="2520" fromJunction="J5" toJunction="J7" end="2880" vehsPerHour="22.265615233568646" departLane="free" arrivalSpeed="0.0"/>
  <flow id="JF10030" begin="2520" fromJunction="J6" toJunction="J3" end="2880" vehsPerHour="57.66183352378282" departLane="free" arrivalSpeed="0.0"/>
  <flow id="JF10031" begin="2520" fromJunction="J6" toJunction="J4" end="2880" vehsPerHour="20.068531857460957" departLane="free" arrivalSpeed="0.0"/>
  <flow id="JF10032" begin="2520" fromJunction="J6" toJunction="J5" end="2880" vehsPerHour="43.7340851702824" departLane="free" arrivalSpeed="0.0"/>
  <flow id="JF10033" begin="2520" fromJunction="J6" toJunction="J7" end="2880" vehsPerHour="58.314756361226365" departLane="free" arrivalSpeed="0.0"/>
  <flow id="JF10034" begin="2520" fromJunction="J7" toJunction="J0" end="2880" vehsPerHour="49.47816887938408" departLane="free" arrivalSpeed="0.0"/>
  <flow id="JF10035" begin="2520" fromJunction="J7" toJunction="J4" end="2880" vehsPerHour="4.518253891754484" departLane="free" arrivalSpeed="0.0"/>
  <flow id="JF10036" begin="2520" fromJunction="J7" toJunction="J5" end="2880" vehsPerHour="30.72441528059171" departLane="free" arrivalSpeed="0.0"/>
  <flow id="JF10037" begin="2880" fromJunction="J0" toJunction="J3" end="3240" vehsPerHour="58.245284280707374" departLane="free" arrivalSpeed="0.0"/>
  <flow id="JF10038" begin="2880" fromJunction="J0" toJunction="J4" end="3240" vehsPerHour="98.08181063240359" departLane="free" arrivalSpeed="0.0"/>
  <flow id="JF10039" begin="2880" fromJunction="J0" toJunction="J5" end="3240" vehsPerHour="91.86756386184842" departLane="free" arrivalSpeed="0.0"/>
  <flow id="JF10040" begin="2880" fromJunction="J0" toJunction="J6" end="3240" vehsPerHour="38.63864669346607" departLane="free" arrivalSpeed="0.0"/>
  <flow id="JF10041" begin="2880" fromJunction="J0" toJunction="J7" end="3240" vehsPerHour="59.14420978097834" departLane="free" arrivalSpeed="0.0"/>
  <flow id="JF10042" begin="2880" fromJunction="J3" toJunction="J0" end="3240" vehsPerHour="136.73437188651027" departLane="free" arrivalSpeed="0.0"/>
  <flow id="JF10043" begin="2880" fromJunction="J3" toJunction="J4" end="3240" vehsPerHour="25.78229675432843" departLane="free" arrivalSpeed="0.0"/>
  <flow id="JF10044" begin="2880" fromJunction="J3" toJunction="J5" end="3240" vehsPerHour="60.75552528739402" departLane="free" arrivalSpeed="0.0"/>
  <flow id="JF10045" begin="2880" fromJunction="J3" toJunction="J6" end="3240" vehsPerHour="124.61905867518337" departLane="free" arrivalSpeed="0.0"/>
  <flow id="JF10046" begin="2880" fromJunction="J4" toJunction="J3" end="3240" vehsPerHour="15.1881123365945" departLane="free" arrivalSpeed="0.0"/>
  <flow id="JF10047" begin="2880" fromJunction="J4" toJunction="J5" end="3240" vehsPerHour="6.404322656944463" departLane="free" arrivalSpeed="0.0"/>
  <flow id="JF10048" begin="2880" fromJunction="J4" toJunction="J7" end="3240" vehsPerHour="6.310201848735396" departLane="free" arrivalSpeed="0.0"/>
  <flow id="JF10049" begin="2880" fromJunction="J5" toJunction="J6" end="3240" vehsPerHour="22.055381459667988" departLane="free" arrivalSpeed="0.0"/>
  <flow id="JF10050" begin="2880" fromJunction="J5" toJunction="J7" end="3240" vehsPerHour="39.8547276899964" departLane="free" arrivalSpeed="0.0"/>
  <flow id="JF10051" begin="2880" fromJunction="J6" toJunction="J0" end="3240" vehsPerHour="49.82549436397008" departLane="free" arrivalSpeed="0.0"/>
  <flow id="JF10052" begin="2880" fromJunction="J6" toJunction="J3" end="3240" vehsPerHour="64.84549451811927" departLane="free" arrivalSpeed="0.0"/>
  <flow id="JF10053" begin="2880" fromJunction="J7" toJunction="J0" end="3240" vehsPerHour="56.57788934105073" departLane="free" arrivalSpeed="0.0"/>
  <flow id="JF10054" begin="2880" fromJunction="J7" toJunction="J3" end="3240" vehsPerHour="42.20123420489431" departLane="free" arrivalSpeed="0.0"/>
  <flow id="JF10055" begin="2880" fromJunction="J7" toJunction="J4" end="3240" vehsPerHour="57.56272830890079" departLane="free" arrivalSpeed="0.0"/>
  <flow id="JF10056" begin="2880" fromJunction="J7" toJunction="J5" end="3240" vehsPerHour="63.72999173822052" departLane="free" arrivalSpeed="0.0"/>
  <flow id="JF10057" begin="2880" fromJunction="J7" toJunction="J6" end="3240" vehsPerHour="45.62908787974272" departLane="free" arrivalSpeed="0.0"/>
  <flow id="JF10058" begin="3240" fromJunction="J0" toJunction="J3" end="3600" vehsPerHour="70.20879529663802" departLane="free" arrivalSpeed="0.0"/>
  <flow id="JF10059" begin="3240" fromJunction="J0" toJunction="J4" end="3600" vehsPerHour="100.32807712951882" departLane="free" arrivalSpeed="0.0"/>