<?xml version="1.0" encoding="UTF-8"?>
<routes xmlns:xsi="http://www.w3.org/2001/XMLSchema-instance" xsi:noNamespaceSchemaLocation="http://sumo.dlr.de/xsd/routes_file.xsd">
  <flow id="JF382397" begin="0" fromJunction="J0" toJunction="J3" end="10000" vehsPerHour="40.29159453025212" departLane="free"/>
  <flow id="JF382398" begin="0" fromJunction="J3" toJunction="J0" end="10000" vehsPerHour="511.9643560091044" departLane="free"/>
  <flow id="JF382399" begin="0" fromJunction="J0" toJunction="J6" end="10000" vehsPerHour="4.459783343880604" departLane="free"/>
  <flow id="JF382400" begin="0" fromJunction="J0" toJunction="J7" end="10000" vehsPerHour="1.1867946874082524" departLane="free"/>
  <flow id="JF382401" begin="0" fromJunction="J0" toJunction="J5" end="10000" vehsPerHour="25.639338262175475" departLane="free"/>
  <flow id="JF382402" begin="0" fromJunction="J0" toJunction="J4" end="10000" vehsPerHour="91.74700155746599" departLane="free"/>
  <flow id="JF382403" begin="0" fromJunction="J3" toJunction="J6" end="10000" vehsPerHour="43.2765525963682" departLane="free"/>
  <flow id="JF382404" begin="0" fromJunction="J3" toJunction="J7" end="10000" vehsPerHour="59.53505363673775" departLane="free"/>
  <flow id="JF382405" begin="0" fromJunction="J3" toJunction="J5" end="10000" vehsPerHour="18.560247395817104" departLane="free"/>
  <flow id="JF382406" begin="0" fromJunction="J3" toJunction="J4" end="10000" vehsPerHour="48.292795375949055" departLane="free"/>
  <flow id="JF382407" begin="0" fromJunction="J6" toJunction="J7" end="10000" vehsPerHour="39.29945041379031" departLane="free"/>
  <flow id="JF382408" begin="0" fromJunction="J6" toJunction="J5" end="10000" vehsPerHour="32.12719701191801" departLane="free"/>
  <flow id="JF382409" begin="0" fromJunction="J6" toJunction="J4" end="10000" vehsPerHour="19.815540560876624" departLane="free"/>
  <flow id="JF382410" begin="0" fromJunction="J7" toJunction="J6" end="10000" vehsPerHour="31.790509251457404" departLane="free"/>
  <flow id="JF382411" begin="0" fromJunction="J7" toJunction="J5" end="10000" vehsPerHour="5.2964559915883775" departLane="free"/>
  <flow id="JF382412" begin="0" fromJunction="J7" toJunction="J4" end="10000" vehsPerHour="18.034434182675202" departLane="free"/>
  <flow id="JF382413" begin="0" fromJunction="J5" toJunction="J6" end="10000" vehsPerHour="33.52975760567566" departLane="free"/>
  <flow id="JF382414" begin="0" fromJunction="J5" toJunction="J7" end="10000" vehsPerHour="34.65843948266961" departLane="free"/>
  <flow id="JF382415" begin="0" fromJunction="J5" toJunction="J4" end="10000" vehsPerHour="0.40504937393238544" departLane="free"/>
  <flow id="JF382416" begin="0" fromJunction="J4" toJunction="J6" end="10000" vehsPerHour="63.269618450465316" departLane="free"/>
  <flow id="JF382417" begin="0" fromJunction="J4" toJunction="J7" end="10000" vehsPerHour="40.228493463586254" departLane="free"/>
  <flow id="JF382418" begin="0" fromJunction="J4" toJunction="J5" end="10000" vehsPerHour="3.278392043480365" departLane="free"/>
  <flow id="JF382419" begin="0" fromJunction="J6" toJunction="J0" end="10000" vehsPerHour="16.786956707661172" departLane="free"/>
  <flow id="JF382420" begin="0" fromJunction="J6" toJunction="J3" end="10000" vehsPerHour="27.766577129763803" departLane="free"/>
  <flow id="JF382421" begin="0" fromJunction="J7" toJunction="J0" end="10000" vehsPerHour="17.60591459382126" departLane="free"/>
  <flow id="JF382422" begin="0" fromJunction="J7" toJunction="J3" end="10000" vehsPerHour="3.6738049552290493" departLane="free"/>
  <flow id="JF382423" begin="0" fromJunction="J5" toJunction="J0" end="10000" vehsPerHour="9.232369550066467" departLane="free"/>
  <flow id="JF382424" begin="0" fromJunction="J5" toJunction="J3" end="10000" vehsPerHour="23.47667281169108" departLane="free"/>
  <flow id="JF382425" begin="0" fromJunction="J4" toJunction="J0" end="10000" vehsPerHour="19.94919020752747" departLane="free"/>
  <flow id="JF382426" begin="0" fromJunction="J4" toJunction="J3" end="10000" vehsPerHour="4.299293788320978" departLane="free"/>
</routes>