<?xml version="1.0" encoding="UTF-8"?>
<routes xmlns:xsi="http://www.w3.org/2001/XMLSchema-instance" xsi:noNamespaceSchemaLocation="http://sumo.dlr.de/xsd/routes_file.xsd">
  <flow id="JF382457" begin="0" fromJunction="J0" toJunction="J3" end="10000" vehsPerHour="75.31898736173929" departLane="free"/>
  <flow id="JF382458" begin="0" fromJunction="J3" toJunction="J0" end="10000" vehsPerHour="135.3882359576356" departLane="free"/>
  <flow id="JF382459" begin="0" fromJunction="J0" toJunction="J6" end="10000" vehsPerHour="13.125086857107966" departLane="free"/>
  <flow id="JF382460" begin="0" fromJunction="J0" toJunction="J7" end="10000" vehsPerHour="43.92759250823553" departLane="free"/>
  <flow id="JF382461" begin="0" fromJunction="J0" toJunction="J5" end="10000" vehsPerHour="35.37164044045859" departLane="free"/>
  <flow id="JF382462" begin="0" fromJunction="J0" toJunction="J4" end="10000" vehsPerHour="0.19914085221371852" departLane="free"/>
  <flow id="JF382463" begin="0" fromJunction="J3" toJunction="J6" end="10000" vehsPerHour="63.37669590302258" departLane="free"/>
  <flow id="JF382464" begin="0" fromJunction="J3" toJunction="J7" end="10000" vehsPerHour="45.012691660995245" departLane="free"/>
  <flow id="JF382465" begin="0" fromJunction="J3" toJunction="J5" end="10000" vehsPerHour="29.079315760266745" departLane="free"/>
  <flow id="JF382466" begin="0" fromJunction="J3" toJunction="J4" end="10000" vehsPerHour="91.73773367991367" departLane="free"/>
  <flow id="JF382467" begin="0" fromJunction="J6" toJunction="J7" end="10000" vehsPerHour="51.34459950181964" departLane="free"/>
  <flow id="JF382468" begin="0" fromJunction="J6" toJunction="J5" end="10000" vehsPerHour="0.17363314562871376" departLane="free"/>
  <flow id="JF382469" begin="0" fromJunction="J6" toJunction="J4" end="10000" vehsPerHour="9.88842156240538" departLane="free"/>
  <flow id="JF382470" begin="0" fromJunction="J7" toJunction="J6" end="10000" vehsPerHour="4.504379420206094" departLane="free"/>
  <flow id="JF382471" begin="0" fromJunction="J7" toJunction="J5" end="10000" vehsPerHour="15.808974016758631" departLane="free"/>
  <flow id="JF382472" begin="0" fromJunction="J7" toJunction="J4" end="10000" vehsPerHour="26.516204751815714" departLane="free"/>
  <flow id="JF382473" begin="0" fromJunction="J5" toJunction="J6" end="10000" vehsPerHour="57.4829375872877" departLane="free"/>
  <flow id="JF382474" begin="0" fromJunction="J5" toJunction="J7" end="10000" vehsPerHour="35.79124017253986" departLane="free"/>
  <flow id="JF382475" begin="0" fromJunction="J5" toJunction="J4" end="10000" vehsPerHour="1.9659412118520607" departLane="free"/>
  <flow id="JF382476" begin="0" fromJunction="J4" toJunction="J6" end="10000" vehsPerHour="54.17449143518405" departLane="free"/>
  <flow id="JF382477" begin="0" fromJunction="J4" toJunction="J7" end="10000" vehsPerHour="39.38776495528019" departLane="free"/>
  <flow id="JF382478" begin="0" fromJunction="J4" toJunction="J5" end="10000" vehsPerHour="5.865261943268338" departLane="free"/>
  <flow id="JF382479" begin="0" fromJunction="J6" toJunction="J0" end="10000" vehsPerHour="25.940876153867187" departLane="free"/>
  <flow id="JF382480" begin="0" fromJunction="J6" toJunction="J3" end="10000" vehsPerHour="9.670308853908942" departLane="free"/>
  <flow id="JF382481" begin="0" fromJunction="J7" toJunction="J0" end="10000" vehsPerHour="21.434175504333727" departLane="free"/>
  <flow id="JF382482" begin="0" fromJunction="J7" toJunction="J3" end="10000" vehsPerHour="27.029391448149184" departLane="free"/>
  <flow id="JF382483" begin="0" fromJunction="J5" toJunction="J0" end="10000" vehsPerHour="0.555757150255576" departLane="free"/>
  <flow id="JF382484" begin="0" fromJunction="J5" toJunction="J3" end="10000" vehsPerHour="11.196836653571415" departLane="free"/>
  <flow id="JF382485" begin="0" fromJunction="J4" toJunction="J0" end="10000" vehsPerHour="33.16528743074391" departLane="free"/>
  <flow id="JF382486" begin="0" fromJunction="J4" toJunction="J3" end="10000" vehsPerHour="26.76060639274816" departLane="free"/>
</routes>