<?xml version="1.0" encoding="UTF-8"?>
<routes xmlns:xsi="http://www.w3.org/2001/XMLSchema-instance" xsi:noNamespaceSchemaLocation="http://sumo.dlr.de/xsd/routes_file.xsd">
  <flow id="JF382427" begin="0" fromJunction="J0" toJunction="J3" end="10000" vehsPerHour="36.63488734156498" departLane="free"/>
  <flow id="JF382428" begin="0" fromJunction="J3" toJunction="J0" end="10000" vehsPerHour="219.53548185766053" departLane="free"/>
  <flow id="JF382429" begin="0" fromJunction="J0" toJunction="J6" end="10000" vehsPerHour="114.63609857277459" departLane="free"/>
  <flow id="JF382430" begin="0" fromJunction="J0" toJunction="J7" end="10000" vehsPerHour="40.64122581702066" departLane="free"/>
  <flow id="JF382431" begin="0" fromJunction="J0" toJunction="J5" end="10000" vehsPerHour="54.14917778476209" departLane="free"/>
  <flow id="JF382432" begin="0" fromJunction="J0" toJunction="J4" end="10000" vehsPerHour="68.16185570584561" departLane="free"/>
  <flow id="JF382433" begin="0" fromJunction="J3" toJunction="J6" end="10000" vehsPerHour="36.47870282604822" departLane="free"/>
  <flow id="JF382434" begin="0" fromJunction="J3" toJunction="J7" end="10000" vehsPerHour="86.54449871523863" departLane="free"/>
  <flow id="JF382435" begin="0" fromJunction="J3" toJunction="J5" end="10000" vehsPerHour="66.93936240685241" departLane="free"/>
  <flow id="JF382436" begin="0" fromJunction="J3" toJunction="J4" end="10000" vehsPerHour="115.97580119553895" departLane="free"/>
  <flow id="JF382437" begin="0" fromJunction="J6" toJunction="J7" end="10000" vehsPerHour="7.570068586920758" departLane="free"/>
  <flow id="JF382438" begin="0" fromJunction="J6" toJunction="J5" end="10000" vehsPerHour="9.256743489901838" departLane="free"/>
  <flow id="JF382439" begin="0" fromJunction="J6" toJunction="J4" end="10000" vehsPerHour="5.2519110191564655" departLane="free"/>
  <flow id="JF382440" begin="0" fromJunction="J7" toJunction="J6" end="10000" vehsPerHour="30.696435282422453" departLane="free"/>
  <flow id="JF382441" begin="0" fromJunction="J7" toJunction="J5" end="10000" vehsPerHour="1.0382457834023726" departLane="free"/>
  <flow id="JF382442" begin="0" fromJunction="J7" toJunction="J4" end="10000" vehsPerHour="4.060857263028244" departLane="free"/>
  <flow id="JF382443" begin="0" fromJunction="J5" toJunction="J6" end="10000" vehsPerHour="36.62893859481851" departLane="free"/>
  <flow id="JF382444" begin="0" fromJunction="J5" toJunction="J7" end="10000" vehsPerHour="41.725960166426454" departLane="free"/>
  <flow id="JF382445" begin="0" fromJunction="J5" toJunction="J4" end="10000" vehsPerHour="22.711661936252817" departLane="free"/>
  <flow id="JF382446" begin="0" fromJunction="J4" toJunction="J6" end="10000" vehsPerHour="33.66168686950166" departLane="free"/>
  <flow id="JF382447" begin="0" fromJunction="J4" toJunction="J7" end="10000" vehsPerHour="61.79713200854074" departLane="free"/>
  <flow id="JF382448" begin="0" fromJunction="J4" toJunction="J5" end="10000" vehsPerHour="41.40942966792919" departLane="free"/>
  <flow id="JF382449" begin="0" fromJunction="J6" toJunction="J0" end="10000" vehsPerHour="17.536405414459672" departLane="free"/>
  <flow id="JF382450" begin="0" fromJunction="J6" toJunction="J3" end="10000" vehsPerHour="13.285423690065738" departLane="free"/>
  <flow id="JF382451" begin="0" fromJunction="J7" toJunction="J0" end="10000" vehsPerHour="33.85861631009783" departLane="free"/>
  <flow id="JF382452" begin="0" fromJunction="J7" toJunction="J3" end="10000" vehsPerHour="9.77377191373094" departLane="free"/>
  <flow id="JF382453" begin="0" fromJunction="J5" toJunction="J0" end="10000" vehsPerHour="18.40829591099469" departLane="free"/>
  <flow id="JF382454" begin="0" fromJunction="J5" toJunction="J3" end="10000" vehsPerHour="26.124244306428885" departLane="free"/>
  <flow id="JF382455" begin="0" fromJunction="J4" toJunction="J0" end="10000" vehsPerHour="9.669161907817097" departLane="free"/>
  <flow id="JF382456" begin="0" fromJunction="J4" toJunction="J3" end="10000" vehsPerHour="11.043079846755584" departLane="free"/>
</routes>