<?xml version="1.0" encoding="UTF-8"?>

<!-- generated on 2025-05-15 15:21:24 by Eclipse SUMO netedit Version 1.20.0
-->

<routes xmlns:xsi="http://www.w3.org/2001/XMLSchema-instance" xsi:noNamespaceSchemaLocation="http://sumo.dlr.de/xsd/routes_file.xsd">
    <!-- Vehicles, persons and containers (sorted by depart) -->
    <flow id="f_0" begin="0.00" fromJunction="J2" toJunction="J16" end="3600.00" vehsPerHour="1800"/>
    <flow id="f_1" begin="0.00" fromJunction="J16" toJunction="J2" end="3600.00" vehsPerHour="1800"/>
    <flow id="f_10" begin="0.00" fromJunction="J9" toJunction="J6" end="3600.00" vehsPerHour="600"/>
    <flow id="f_11" begin="0.00" fromJunction="J8" toJunction="J3" end="3600.00" vehsPerHour="600"/>
    <flow id="f_2" begin="0.00" fromJunction="J3" toJunction="J8" end="3600.00" vehsPerHour="600"/>
    <flow id="f_3" begin="0.00" fromJunction="J6" toJunction="J9" end="3600.00" vehsPerHour="600"/>
    <flow id="f_4" begin="0.00" fromJunction="J7" toJunction="J13" end="3600.00" vehsPerHour="600"/>
    <flow id="f_5" begin="0.00" fromJunction="J12" toJunction="J14" end="3600.00" vehsPerHour="600"/>
    <flow id="f_6" begin="0.00" fromJunction="J15" toJunction="J16" end="3600.00" vehsPerHour="600"/>
    <flow id="f_7" begin="0.00" fromJunction="J0" toJunction="J2" end="3600.00" vehsPerHour="600"/>
    <flow id="f_8" begin="0.00" fromJunction="J14" toJunction="J12" end="3600.00" vehsPerHour="600"/>
    <flow id="f_9" begin="0.00" fromJunction="J13" toJunction="J7" end="3600.00" vehsPerHour="600"/>
</routes>
