<?xml version="1.0" encoding="UTF-8"?>
<routes xmlns:xsi="http://www.w3.org/2001/XMLSchema-instance" xsi:noNamespaceSchemaLocation="http://sumo.dlr.de/xsd/routes_file.xsd">
  <flow id="JF425152" begin="0" fromJunction="J0" toJunction="J3" end="60" vehsPerHour="359.9756614754809" departLane="free"/>
  <flow id="JF425153" begin="0" fromJunction="J0" toJunction="J5" end="60" vehsPerHour="403.21377386618997" departLane="free"/>
  <flow id="JF425154" begin="0" fromJunction="J0" toJunction="J7" end="60" vehsPerHour="78.54561488345219" departLane="free"/>
  <flow id="JF425155" begin="0" fromJunction="J3" toJunction="J0" end="60" vehsPerHour="134.14481071253093" departLane="free"/>
  <flow id="JF425156" begin="0" fromJunction="J3" toJunction="J4" end="60" vehsPerHour="409.44015514275867" departLane="free"/>
  <flow id="JF425157" begin="0" fromJunction="J3" toJunction="J5" end="60" vehsPerHour="340.94890400845424" departLane="free"/>
  <flow id="JF425158" begin="0" fromJunction="J3" toJunction="J6" end="60" vehsPerHour="422.9613319752471" departLane="free"/>
  <flow id="JF425159" begin="0" fromJunction="J3" toJunction="J7" end="60" vehsPerHour="514.3386146777641" departLane="free"/>
  <flow id="JF425160" begin="0" fromJunction="J4" toJunction="J0" end="60" vehsPerHour="193.40477874009602" departLane="free"/>
  <flow id="JF425161" begin="0" fromJunction="J4" toJunction="J3" end="60" vehsPerHour="73.37609857605574" departLane="free"/>
  <flow id="JF425162" begin="0" fromJunction="J4" toJunction="J5" end="60" vehsPerHour="241.88634148033583" departLane="free"/>
  <flow id="JF425163" begin="0" fromJunction="J4" toJunction="J6" end="60" vehsPerHour="99.02293520118302" departLane="free"/>
  <flow id="JF425164" begin="0" fromJunction="J4" toJunction="J7" end="60" vehsPerHour="246.61450754912258" departLane="free"/>
  <flow id="JF425165" begin="0" fromJunction="J5" toJunction="J0" end="60" vehsPerHour="162.13142688363996" departLane="free"/>
  <flow id="JF425166" begin="0" fromJunction="J5" toJunction="J3" end="60" vehsPerHour="120.8900839068827" departLane="free"/>
  <flow id="JF425167" begin="0" fromJunction="J5" toJunction="J6" end="60" vehsPerHour="104.15987395171865" departLane="free"/>
  <flow id="JF425168" begin="0" fromJunction="J5" toJunction="J7" end="60" vehsPerHour="62.48969652924636" departLane="free"/>
  <flow id="JF425169" begin="0" fromJunction="J6" toJunction="J0" end="60" vehsPerHour="265.42019841254705" departLane="free"/>
  <flow id="JF425170" begin="0" fromJunction="J6" toJunction="J3" end="60" vehsPerHour="111.93275851860801" departLane="free"/>
  <flow id="JF425171" begin="0" fromJunction="J6" toJunction="J5" end="60" vehsPerHour="241.47708496719605" departLane="free"/>
  <flow id="JF425172" begin="0" fromJunction="J6" toJunction="J7" end="60" vehsPerHour="256.5784592836678" departLane="free"/>
  <flow id="JF425173" begin="0" fromJunction="J7" toJunction="J0" end="60" vehsPerHour="239.34601018970253" departLane="free"/>
  <flow id="JF425174" begin="0" fromJunction="J7" toJunction="J3" end="60" vehsPerHour="34.97308826518254" departLane="free"/>
  <flow id="JF425175" begin="60" fromJunction="J0" toJunction="J3" end="120" vehsPerHour="177.66478717716566" departLane="free"/>
  <flow id="JF425176" begin="60" fromJunction="J0" toJunction="J4" end="120" vehsPerHour="53.3608864880104" departLane="free"/>
  <flow id="JF425177" begin="60" fromJunction="J0" toJunction="J5" end="120" vehsPerHour="8.221833453934806" departLane="free"/>
  <flow id="JF425178" begin="60" fromJunction="J0" toJunction="J6" end="120" vehsPerHour="540.1498130229719" departLane="free"/>
  <flow id="JF425179" begin="60" fromJunction="J0" toJunction="J7" end="120" vehsPerHour="436.33400859101914" departLane="free"/>
  <flow id="JF425180" begin="60" fromJunction="J3" toJunction="J0" end="120" vehsPerHour="288.4591113603626" departLane="free"/>
  <flow id="JF425181" begin="60" fromJunction="J3" toJunction="J4" end="120" vehsPerHour="161.90162647289935" departLane="free"/>
  <flow id="JF425182" begin="60" fromJunction="J3" toJunction="J5" end="120" vehsPerHour="407.00213682410725" departLane="free"/>
  <flow id="JF425183" begin="60" fromJunction="J3" toJunction="J6" end="120" vehsPerHour="163.75782608874223" departLane="free"/>
  <flow id="JF425184" begin="60" fromJunction="J3" toJunction="J7" end="120" vehsPerHour="404.02147976179646" departLane="free"/>
  <flow id="JF425185" begin="60" fromJunction="J4" toJunction="J5" end="120" vehsPerHour="174.6179308021473" departLane="free"/>
  <flow id="JF425186" begin="60" fromJunction="J5" toJunction="J0" end="120" vehsPerHour="261.36483067353095" departLane="free"/>
  <flow id="JF425187" begin="60" fromJunction="J5" toJunction="J7" end="120" vehsPerHour="29.194413780641817" departLane="free"/>
  <flow id="JF425188" begin="60" fromJunction="J6" toJunction="J0" end="120" vehsPerHour="38.051489373473366" departLane="free"/>
  <flow id="JF425189" begin="60" fromJunction="J6" toJunction="J3" end="120" vehsPerHour="104.20050133125514" departLane="free"/>
  <flow id="JF425190" begin="60" fromJunction="J6" toJunction="J5" end="120" vehsPerHour="148.06131224067335" departLane="free"/>
  <flow id="JF425191" begin="60" fromJunction="J6" toJunction="J7" end="120" vehsPerHour="178.766186912601" departLane="free"/>
  <flow id="JF425192" begin="60" fromJunction="J7" toJunction="J3" end="120" vehsPerHour="248.56923722375416" departLane="free"/>
  <flow id="JF425193" begin="60" fromJunction="J7" toJunction="J4" end="120" vehsPerHour="198.80006302823261" departLane="free"/>
  <flow id="JF425194" begin="60" fromJunction="J7" toJunction="J5" end="120" vehsPerHour="132.21624667602404" departLane="free"/>
  <flow id="JF425195" begin="60" fromJunction="J7" toJunction="J6" end="120" vehsPerHour="16.128866522385866" departLane="free"/>
  <flow id="JF425196" begin="120" fromJunction="J0" toJunction="J4" end="180" vehsPerHour="525.980802902663" departLane="free"/>
  <flow id="JF425197" begin="120" fromJunction="J0" toJunction="J6" end="180" vehsPerHour="93.89895057659334" departLane="free"/>
  <flow id="JF425198" begin="120" fromJunction="J0" toJunction="J7" end="180" vehsPerHour="379.0044520917864" departLane="free"/>
  <flow id="JF425199" begin="120" fromJunction="J3" toJunction="J0" end="180" vehsPerHour="438.6219074617189" departLane="free"/>
  <flow id="JF425200" begin="120" fromJunction="J3" toJunction="J4" end="180" vehsPerHour="340.22135849475677" departLane="free"/>
  <flow id="JF425201" begin="120" fromJunction="J3" toJunction="J5" end="180" vehsPerHour="485.9781021966073" departLane="free"/>
  <flow id="JF425202" begin="120" fromJunction="J3" toJunction="J7" end="180" vehsPerHour="469.31915477865994" departLane="free"/>
  <flow id="JF425203" begin="120" fromJunction="J4" toJunction="J0" end="180" vehsPerHour="117.59960532336193" departLane="free"/>
  <flow id="JF425204" begin="120" fromJunction="J4" toJunction="J5" end="180" vehsPerHour="190.78432362035923" departLane="free"/>
  <flow id="JF425205" begin="120" fromJunction="J4" toJunction="J6" end="180" vehsPerHour="73.09994210536125" departLane="free"/>
  <flow id="JF425206" begin="120" fromJunction="J5" toJunction="J0" end="180" vehsPerHour="196.10104119080907" departLane="free"/>
  <flow id="JF425207" begin="120" fromJunction="J5" toJunction="J4" end="180" vehsPerHour="189.35441378939723" departLane="free"/>
  <flow id="JF425208" begin="120" fromJunction="J5" toJunction="J7" end="180" vehsPerHour="260.7041686262865" departLane="free"/>
  <flow id="JF425209" begin="120" fromJunction="J6" toJunction="J3" end="180" vehsPerHour="171.14322948201502" departLane="free"/>
  <flow id="JF425210" begin="120" fromJunction="J6" toJunction="J5" end="180" vehsPerHour="263.4960144193258" departLane="free"/>
  <flow id="JF425211" begin="120" fromJunction="J6" toJunction="J7" end="180" vehsPerHour="45.34996209685587" departLane="free"/>
  <flow id="JF425212" begin="120" fromJunction="J7" toJunction="J0" end="180" vehsPerHour="211.37431186843432" departLane="free"/>
  <flow id="JF425213" begin="120" fromJunction="J7" toJunction="J3" end="180" vehsPerHour="75.34882366535702" departLane="free"/>
  <flow id="JF425214" begin="120" fromJunction="J7" toJunction="J4" end="180" vehsPerHour="171.70506423521817" departLane="free"/>
  <flow id="JF425215" begin="120" fromJunction="J7" toJunction="J5" end="180" vehsPerHour="105.14914804940963" departLane="free"/>
  <flow id="JF425216" begin="120" fromJunction="J7" toJunction="J6" end="180" vehsPerHour="35.68842104579632" departLane="free"/>
  <flow id="JF425217" begin="180" fromJunction="J0" toJunction="J3" end="240" vehsPerHour="372.8005156170812" departLane="free"/>
  <flow id="JF425218" begin="180" fromJunction="J0" toJunction="J5" end="240" vehsPerHour="338.16157341907376" departLane="free"/>
  <flow id="JF425219" begin="180" fromJunction="J3" toJunction="J0" end="240" vehsPerHour="489.24211351192895" departLane="free"/>
  <flow id="JF425220" begin="180" fromJunction="J3" toJunction="J4" end="240" vehsPerHour="117.07573069224587" departLane="free"/>
  <flow id="JF425221" begin="180" fromJunction="J3" toJunction="J5" end="240" vehsPerHour="281.5428876063692" departLane="free"/>
  <flow id="JF425222" begin="180" fromJunction="J3" toJunction="J6" end="240" vehsPerHour="345.93290270193154" departLane="free"/>
  <flow id="JF425223" begin="180" fromJunction="J3" toJunction="J7" end="240" vehsPerHour="481.47908459956017" departLane="free"/>
  <flow id="JF425224" begin="180" fromJunction="J4" toJunction="J0" end="240" vehsPerHour="93.78488365013074" departLane="free"/>
  <flow id="JF425225" begin="180" fromJunction="J4" toJunction="J5" end="240" vehsPerHour="195.93368868125108" departLane="free"/>
  <flow id="JF425226" begin="180" fromJunction="J4" toJunction="J7" end="240" vehsPerHour="263.9789094302357" departLane="free"/>
  <flow id="JF425227" begin="180" fromJunction="J5" toJunction="J0" end="240" vehsPerHour="271.37416935718693" departLane="free"/>
  <flow id="JF425228" begin="180" fromJunction="J5" toJunction="J3" end="240" vehsPerHour="11.982264160327965" departLane="free"/>
  <flow id="JF425229" begin="180" fromJunction="J5" toJunction="J6" end="240" vehsPerHour="194.1348225240308" departLane="free"/>
  <flow id="JF425230" begin="180" fromJunction="J5" toJunction="J7" end="240" vehsPerHour="226.17167808593456" departLane="free"/>
  <flow id="JF425231" begin="180" fromJunction="J6" toJunction="J4" end="240" vehsPerHour="49.87081240185725" departLane="free"/>
  <flow id="JF425232" begin="180" fromJunction="J6" toJunction="J7" end="240" vehsPerHour="32.24992119364584" departLane="free"/>
  <flow id="JF425233" begin="180" fromJunction="J7" toJunction="J3" end="240" vehsPerHour="203.49538254831674" departLane="free"/>
  <flow id="JF425234" begin="180" fromJunction="J7" toJunction="J6" end="240" vehsPerHour="267.05768090904604" departLane="free"/>
  <flow id="JF425235" begin="240" fromJunction="J0" toJunction="J3" end="300" vehsPerHour="63.64000765204172" departLane="free"/>
  <flow id="JF425236" begin="240" fromJunction="J0" toJunction="J4" end="300" vehsPerHour="446.8977942483366" departLane="free"/>
  <flow id="JF425237" begin="240" fromJunction="J0" toJunction="J5" end="300" vehsPerHour="359.89104104411007" departLane="free"/>
  <flow id="JF425238" begin="240" fromJunction="J0" toJunction="J6" end="300" vehsPerHour="173.4704603220946" departLane="free"/>
  <flow id="JF425239" begin="240" fromJunction="J3" toJunction="J4" end="300" vehsPerHour="160.76700280332085" departLane="free"/>
  <flow id="JF425240" begin="240" fromJunction="J3" toJunction="J5" end="300" vehsPerHour="110.56447243213856" departLane="free"/>
  <flow id="JF425241" begin="240" fromJunction="J3" toJunction="J6" end="300" vehsPerHour="332.54271183841837" departLane="free"/>
  <flow id="JF425242" begin="240" fromJunction="J3" toJunction="J7" end="300" vehsPerHour="84.01665783894767" departLane="free"/>
  <flow id="JF425243" begin="240" fromJunction="J4" toJunction="J0" end="300" vehsPerHour="125.53366566060356" departLane="free"/>
  <flow id="JF425244" begin="240" fromJunction="J4" toJunction="J6" end="300" vehsPerHour="182.7752233638283" departLane="free"/>
  <flow id="JF425245" begin="240" fromJunction="J4" toJunction="J7" end="300" vehsPerHour="79.6901725131937" departLane="free"/>
  <flow id="JF425246" begin="240" fromJunction="J5" toJunction="J0" end="300" vehsPerHour="172.36175755807565" departLane="free"/>
  <flow id="JF425247" begin="240" fromJunction="J5" toJunction="J3" end="300" vehsPerHour="131.88097786218424" departLane="free"/>
  <flow id="JF425248" begin="240" fromJunction="J5" toJunction="J4" end="300" vehsPerHour="255.78991009531865" departLane="free"/>
  <flow id="JF425249" begin="240" fromJunction="J6" toJunction="J0" end="300" vehsPerHour="71.82245496256722" departLane="free"/>
  <flow id="JF425250" begin="240" fromJunction="J6" toJunction="J3" end="300" vehsPerHour="121.14971227794419" departLane="free"/>
  <flow id="JF425251" begin="240" fromJunction="J7" toJunction="J0" end="300" vehsPerHour="268.8383520136201" departLane="free"/>
  <flow id="JF425252" begin="240" fromJunction="J7" toJunction="J3" end="300" vehsPerHour="165.58157444836175" departLane="free"/>
  <flow id="JF425253" begin="240" fromJunction="J7" toJunction="J5" end="300" vehsPerHour="101.8144209024957" departLane="free"/>
  <flow id="JF425254" begin="240" fromJunction="J7" toJunction="J6" end="300" vehsPerHour="237.93551884320797" departLane="free"/>
  <flow id="JF425255" begin="300" fromJunction="J0" toJunction="J3" end="360" vehsPerHour="445.9905941006772" departLane="free"/>
  <flow id="JF425256" begin="300" fromJunction="J0" toJunction="J7" end="360" vehsPerHour="518.3944674747631" departLane="free"/>
  <flow id="JF425257" begin="300" fromJunction="J3" toJunction="J0" end="360" vehsPerHour="316.4563248514598" departLane="free"/>
  <flow id="JF425258" begin="300" fromJunction="J3" toJunction="J5" end="360" vehsPerHour="244.14887403725604" departLane="free"/>
  <flow id="JF425259" begin="300" fromJunction="J3" toJunction="J7" end="360" vehsPerHour="490.6661262565668" departLane="free"/>
  <flow id="JF425260" begin="300" fromJunction="J4" toJunction="J3" end="360" vehsPerHour="228.60475233620167" departLane="free"/>
  <flow id="JF425261" begin="300" fromJunction="J4" toJunction="J5" end="360" vehsPerHour="245.3404760025288" departLane="free"/>
  <flow id="JF425262" begin="300" fromJunction="J5" toJunction="J0" end="360" vehsPerHour="36.207826232396826" departLane="free"/>
  <flow id="JF425263" begin="300" fromJunction="J5" toJunction="J3" end="360" vehsPerHour="145.29873415452894" departLane="free"/>
  <flow id="JF425264" begin="300" fromJunction="J5" toJunction="J4" end="360" vehsPerHour="132.96875878388067" departLane="free"/>
  <flow id="JF425265" begin="300" fromJunction="J5" toJunction="J6" end="360" vehsPerHour="213.74318540019266" departLane="free"/>
  <flow id="JF425266" begin="300" fromJunction="J5" toJunction="J7" end="360" vehsPerHour="256.7401889002646" departLane="free"/>
  <flow id="JF425267" begin="300" fromJunction="J6" toJunction="J0" end="360" vehsPerHour="111.86744827572444" departLane="free"/>
  <flow id="JF425268" begin="300" fromJunction="J6" toJunction="J3" end="360" vehsPerHour="225.48935945186423" departLane="free"/>
  <flow id="JF425269" begin="300" fromJunction="J6" toJunction="J4" end="360" vehsPerHour="148.02166469547646" departLane="free"/>
  <flow id="JF425270" begin="300" fromJunction="J6" toJunction="J5" end="360" vehsPerHour="192.04316758425725" departLane="free"/>
  <flow id="JF425271" begin="300" fromJunction="J6" toJunction="J7" end="360" vehsPerHour="10.598884190778168" departLane="free"/>
  <flow id="JF425272" begin="300" fromJunction="J7" toJunction="J3" end="360" vehsPerHour="9.63946987210707" departLane="free"/>
  <flow id="JF425273" begin="300" fromJunction="J7" toJunction="J4" end="360" vehsPerHour="139.51614874665287" departLane="free"/>
  <flow id="JF425274" begin="300" fromJunction="J7" toJunction="J5" end="360" vehsPerHour="84.94988127204623" departLane="free"/>
  <flow id="JF425275" begin="300" fromJunction="J7" toJunction="J6" end="360" vehsPerHour="108.6266439802726" departLane="free"/>
  <flow id="JF425276" begin="360" fromJunction="J0" toJunction="J3" end="420" vehsPerHour="250.48127404199462" departLane="free"/>
  <flow id="JF425277" begin="360" fromJunction="J0" toJunction="J4" end="420" vehsPerHour="258.0442838049223" departLane="free"/>
  <flow id="JF425278" begin="360" fromJunction="J0" toJunction="J5" end="420" vehsPerHour="333.9707628557708" departLane="free"/>
  <flow id="JF425279" begin="360" fromJunction="J0" toJunction="J6" end="420" vehsPerHour="383.2678011115387" departLane="free"/>
  <flow id="JF425280" begin="360" fromJunction="J3" toJunction="J0" end="420" vehsPerHour="546.7678371058676" departLane="free"/>
  <flow id="JF425281" begin="360" fromJunction="J3" toJunction="J4" end="420" vehsPerHour="287.63682533988674" departLane="free"/>
  <flow id="JF425282" begin="360" fromJunction="J3" toJunction="J5" end="420" vehsPerHour="293.6496968800481" departLane="free"/>
  <flow id="JF425283" begin="360" fromJunction="J3" toJunction="J6" end="420" vehsPerHour="147.766779678417" departLane="free"/>
  <flow id="JF425284" begin="360" fromJunction="J4" toJunction="J3" end="420" vehsPerHour="151.54139561704739" departLane="free"/>
  <flow id="JF425285" begin="360" fromJunction="J4" toJunction="J5" end="420" vehsPerHour="65.00238840510382" departLane="free"/>
  <flow id="JF425286" begin="360" fromJunction="J4" toJunction="J6" end="420" vehsPerHour="235.48080379375483" departLane="free"/>
  <flow id="JF425287" begin="360" fromJunction="J4" toJunction="J7" end="420" vehsPerHour="60.88763418838654" departLane="free"/>
  <flow id="JF425288" begin="360" fromJunction="J5" toJunction="J0" end="420" vehsPerHour="71.63970642477337" departLane="free"/>
  <flow id="JF425289" begin="360" fromJunction="J5" toJunction="J3" end="420" vehsPerHour="76.77491575403994" departLane="free"/>
  <flow id="JF425290" begin="360" fromJunction="J5" toJunction="J4" end="420" vehsPerHour="259.7834171590128" departLane="free"/>
  <flow id="JF425291" begin="360" fromJunction="J5" toJunction="J7" end="420" vehsPerHour="236.26902743652772" departLane="free"/>
  <flow id="JF425292" begin="360" fromJunction="J6" toJunction="J0" end="420" vehsPerHour="188.10786049485694" departLane="free"/>
  <flow id="JF425293" begin="360" fromJunction="J6" toJunction="J4" end="420" vehsPerHour="213.93661432186386" departLane="free"/>
  <flow id="JF425294" begin="360" fromJunction="J6" toJunction="J7" end="420" vehsPerHour="144.57172797649042" departLane="free"/>
  <flow id="JF425295" begin="360" fromJunction="J7" toJunction="J4" end="420" vehsPerHour="183.67333056333314" departLane="free"/>
  <flow id="JF425296" begin="360" fromJunction="J7" toJunction="J5" end="420" vehsPerHour="58.382941267180335" departLane="free"/>
  <flow id="JF425297" begin="360" fromJunction="J7" toJunction="J6" end="420" vehsPerHour="215.31308554316337" departLane="free"/>
  <flow id="JF425298" begin="420" fromJunction="J0" toJunction="J3" end="480" vehsPerHour="378.4477376102673" departLane="free"/>
  <flow id="JF425299" begin="420" fromJunction="J0" toJunction="J4" end="480" vehsPerHour="411.42215879028436" departLane="free"/>
  <flow id="JF425300" begin="420" fromJunction="J0" toJunction="J5" end="480" vehsPerHour="173.48935470491833" departLane="free"/>
  <flow id="JF425301" begin="420" fromJunction="J0" toJunction="J6" end="480" vehsPerHour="188.7502574828277" departLane="free"/>
  <flow id="JF425302" begin="420" fromJunction="J3" toJunction="J4" end="480" vehsPerHour="501.42637278667604" departLane="free"/>
  <flow id="JF425303" begin="420" fromJunction="J3" toJunction="J5" end="480" vehsPerHour="219.75191965757622" departLane="free"/>
  <flow id="JF425304" begin="420" fromJunction="J3" toJunction="J6" end="480" vehsPerHour="348.1971125909194" departLane="free"/>
  <flow id="JF425305" begin="420" fromJunction="J3" toJunction="J7" end="480" vehsPerHour="476.64129428161533" departLane="free"/>
  <flow id="JF425306" begin="420" fromJunction="J4" toJunction="J0" end="480" vehsPerHour="172.41911355629134" departLane="free"/>
  <flow id="JF425307" begin="420" fromJunction="J4" toJunction="J3" end="480" vehsPerHour="48.43141535493083" departLane="free"/>
  <flow id="JF425308" begin="420" fromJunction="J4" toJunction="J5" end="480" vehsPerHour="270.12775244040955" departLane="free"/>
  <flow id="JF425309" begin="420" fromJunction="J4" toJunction="J7" end="480" vehsPerHour="215.3223412738591" departLane="free"/>
  <flow id="JF425310" begin="420" fromJunction="J5" toJunction="J0" end="480" vehsPerHour="83.96866456725144" departLane="free"/>
  <flow id="JF425311" begin="420" fromJunction="J5" toJunction="J3" end="480" vehsPerHour="255.19750328797306" departLane="free"/>
  <flow id="JF425312" begin="420" fromJunction="J5" toJunction="J4" end="480" vehsPerHour="270.5947752359654" departLane="free"/>
  <flow id="JF425313" begin="420" fromJunction="J5" toJunction="J6" end="480" vehsPerHour="203.807278556275" departLane="free"/>
  <flow id="JF425314" begin="420" fromJunction="J6" toJunction="J0" end="480" vehsPerHour="152.63964347623192" departLane="free"/>
  <flow id="JF425315" begin="420" fromJunction="J6" toJunction="J3" end="480" vehsPerHour="139.96608093261935" departLane="free"/>
  <flow id="JF425316" begin="420" fromJunction="J6" toJunction="J4" end="480" vehsPerHour="87.53304911821573" departLane="free"/>
  <flow id="JF425317" begin="420" fromJunction="J7" toJunction="J0" end="480" vehsPerHour="180.6038772394981" departLane="free"/>
  <flow id="JF425318" begin="420" fromJunction="J7" toJunction="J3" end="480" vehsPerHour="204.1295523268654" departLane="free"/>
  <flow id="JF425319" begin="420" fromJunction="J7" toJunction="J4" end="480" vehsPerHour="71.89063928857162" departLane="free"/>
  <flow id="JF425320" begin="420" fromJunction="J7" toJunction="J6" end="480" vehsPerHour="118.78121518565727" departLane="free"/>
  <flow id="JF425321" begin="480" fromJunction="J0" toJunction="J3" end="540" vehsPerHour="81.35983413899316" departLane="free"/>
  <flow id="JF425322" begin="480" fromJunction="J3" toJunction="J0" end="540" vehsPerHour="227.77804547135005" departLane="free"/>
  <flow id="JF425323" begin="480" fromJunction="J3" toJunction="J5" end="540" vehsPerHour="136.2824743997625" departLane="free"/>
  <flow id="JF425324" begin="480" fromJunction="J3" toJunction="J6" end="540" vehsPerHour="418.3427152872442" departLane="free"/>
  <flow id="JF425325" begin="480" fromJunction="J3" toJunction="J7" end="540" vehsPerHour="242.17530257656205" departLane="free"/>
  <flow id="JF425326" begin="480" fromJunction="J4" toJunction="J0" end="540" vehsPerHour="255.24864436495338" departLane="free"/>
  <flow id="JF425327" begin="480" fromJunction="J4" toJunction="J3" end="540" vehsPerHour="166.21391286061825" departLane="free"/>
  <flow id="JF425328" begin="480" fromJunction="J4" toJunction="J5" end="540" vehsPerHour="61.26067883067538" departLane="free"/>
  <flow id="JF425329" begin="480" fromJunction="J4" toJunction="J6" end="540" vehsPerHour="140.4098428013897" departLane="free"/>
  <flow id="JF425330" begin="480" fromJunction="J4" toJunction="J7" end="540" vehsPerHour="241.98651151563277" departLane="free"/>
  <flow id="JF425331" begin="480" fromJunction="J5" toJunction="J3" end="540" vehsPerHour="46.74286072914461" departLane="free"/>
  <flow id="JF425332" begin="480" fromJunction="J5" toJunction="J4" end="540" vehsPerHour="19.92765701154112" departLane="free"/>
  <flow id="JF425333" begin="480" fromJunction="J6" toJunction="J0" end="540" vehsPerHour="199.1182922254321" departLane="free"/>
  <flow id="JF425334" begin="480" fromJunction="J6" toJunction="J3" end="540" vehsPerHour="60.50395453181287" departLane="free"/>
  <flow id="JF425335" begin="480" fromJunction="J6" toJunction="J4" end="540" vehsPerHour="151.28937220146852" departLane="free"/>
  <flow id="JF425336" begin="480" fromJunction="J6" toJunction="J5" end="540" vehsPerHour="249.15643002132228" departLane="free"/>
  <flow id="JF425337" begin="480" fromJunction="J7" toJunction="J3" end="540" vehsPerHour="227.003160244635" departLane="free"/>
  <flow id="JF425338" begin="480" fromJunction="J7" toJunction="J5" end="540" vehsPerHour="194.4084886151174" departLane="free"/>
  <flow id="JF425339" begin="480" fromJunction="J7" toJunction="J6" end="540" vehsPerHour="40.14074003655906" departLane="free"/>
  <flow id="JF425340" begin="540" fromJunction="J0" toJunction="J3" end="600" vehsPerHour="383.00674696761297" departLane="free"/>
  <flow id="JF425341" begin="540" fromJunction="J0" toJunction="J6" end="600" vehsPerHour="475.63898785442075" departLane="free"/>
  <flow id="JF425342" begin="540" fromJunction="J3" toJunction="J4" end="600" vehsPerHour="265.8464047064485" departLane="free"/>
  <flow id="JF425343" begin="540" fromJunction="J3" toJunction="J5" end="600" vehsPerHour="129.1091172336116" departLane="free"/>
  <flow id="JF425344" begin="540" fromJunction="J3" toJunction="J6" end="600" vehsPerHour="545.4781620874031" departLane="free"/>
  <flow id="JF425345" begin="540" fromJunction="J3" toJunction="J7" end="600" vehsPerHour="504.88101218382684" departLane="free"/>
  <flow id="JF425346" begin="540" fromJunction="J4" toJunction="J0" end="600" vehsPerHour="269.2162525286555" departLane="free"/>
  <flow id="JF425347" begin="540" fromJunction="J4" toJunction="J3" end="600" vehsPerHour="118.65320395875814" departLane="free"/>
  <flow id="JF425348" begin="540" fromJunction="J4" toJunction="J5" end="600" vehsPerHour="132.80298111110827" departLane="free"/>
  <flow id="JF425349" begin="540" fromJunction="J4" toJunction="J6" end="600" vehsPerHour="25.939500947771517" departLane="free"/>
  <flow id="JF425350" begin="540" fromJunction="J4" toJunction="J7" end="600" vehsPerHour="162.80071081212634" departLane="free"/>
  <flow id="JF425351" begin="540" fromJunction="J5" toJunction="J0" end="600" vehsPerHour="196.85291781898366" departLane="free"/>
  <flow id="JF425352" begin="540" fromJunction="J5" toJunction="J3" end="600" vehsPerHour="166.2216755662727" departLane="free"/>
  <flow id="JF425353" begin="540" fromJunction="J5" toJunction="J4" end="600" vehsPerHour="176.9324131592009" departLane="free"/>
  <flow id="JF425354" begin="540" fromJunction="J5" toJunction="J6" end="600" vehsPerHour="250.29966539754983" departLane="free"/>
  <flow id="JF425355" begin="540" fromJunction="J5" toJunction="J7" end="600" vehsPerHour="187.96747982612985" departLane="free"/>
  <flow id="JF425356" begin="540" fromJunction="J6" toJunction="J0" end="600" vehsPerHour="212.50764324895295" departLane="free"/>
  <flow id="JF425357" begin="540" fromJunction="J6" toJunction="J3" end="600" vehsPerHour="264.2926096084601" departLane="free"/>
  <flow id="JF425358" begin="540" fromJunction="J6" toJunction="J4" end="600" vehsPerHour="40.27014295029699" departLane="free"/>
  <flow id="JF425359" begin="540" fromJunction="J6" toJunction="J5" end="600" vehsPerHour="72.41091434016735" departLane="free"/>
  <flow id="JF425360" begin="540" fromJunction="J6" toJunction="J7" end="600" vehsPerHour="196.85649422006816" departLane="free"/>
  <flow id="JF425361" begin="540" fromJunction="J7" toJunction="J0" end="600" vehsPerHour="75.07865359645047" departLane="free"/>
  <flow id="JF425362" begin="540" fromJunction="J7" toJunction="J3" end="600" vehsPerHour="176.297706051469" departLane="free"/>
  <flow id="JF425363" begin="540" fromJunction="J7" toJunction="J4" end="600" vehsPerHour="68.17619563109822" departLane="free"/>
  <flow id="JF425364" begin="540" fromJunction="J7" toJunction="J5" end="600" vehsPerHour="222.19084673766343" departLane="free"/>
  <flow id="JF425365" begin="600" fromJunction="J0" toJunction="J3" end="660" vehsPerHour="349.49211378389776" departLane="free"/>
  <flow id="JF425366" begin="600" fromJunction="J0" toJunction="J4" end="660" vehsPerHour="543.0969879994686" departLane="free"/>
  <flow id="JF425367" begin="600" fromJunction="J0" toJunction="J6" end="660" vehsPerHour="1.9782898007958627" departLane="free"/>
  <flow id="JF425368" begin="600" fromJunction="J0" toJunction="J7" end="660" vehsPerHour="219.51850345605786" departLane="free"/>
  <flow id="JF425369" begin="600" fromJunction="J3" toJunction="J0" end="660" vehsPerHour="249.76125813561353" departLane="free"/>
  <flow id="JF425370" begin="600" fromJunction="J3" toJunction="J4" end="660" vehsPerHour="189.29670680946802" departLane="free"/>
  <flow id="JF425371" begin="600" fromJunction="J3" toJunction="J6" end="660" vehsPerHour="280.41053107512084" departLane="free"/>
  <flow id="JF425372" begin="600" fromJunction="J3" toJunction="J7" end="660" vehsPerHour="130.75351801740396" departLane="free"/>
  <flow id="JF425373" begin="600" fromJunction="J4" toJunction="J0" end="660" vehsPerHour="257.25689743003915" departLane="free"/>
  <flow id="JF425374" begin="600" fromJunction="J4" toJunction="J3" end="660" vehsPerHour="24.539219615379047" departLane="free"/>
  <flow id="JF425375" begin="600" fromJunction="J4" toJunction="J5" end="660" vehsPerHour="178.62800036094978" departLane="free"/>
  <flow id="JF425376" begin="600" fromJunction="J4" toJunction="J6" end="660" vehsPerHour="59.22551011371046" departLane="free"/>
  <flow id="JF425377" begin="600" fromJunction="J4" toJunction="J7" end="660" vehsPerHour="106.0980857546286" departLane="free"/>
  <flow id="JF425378" begin="600" fromJunction="J5" toJunction="J0" end="660" vehsPerHour="173.7839513817739" departLane="free"/>
  <flow id="JF425379" begin="600" fromJunction="J5" toJunction="J6" end="660" vehsPerHour="66.24758600191353" departLane="free"/>
  <flow id="JF425380" begin="600" fromJunction="J5" toJunction="J7" end="660" vehsPerHour="11.317523143497425" departLane="free"/>