<?xml version="1.0" encoding="UTF-8"?>
<routes xmlns:xsi="http://www.w3.org/2001/XMLSchema-instance" xsi:noNamespaceSchemaLocation="http://sumo.dlr.de/xsd/routes_file.xsd">
  <flow id="JF417980" begin="0" fromJunction="J0" toJunction="J5" end="60" vehsPerHour="272.1209581940343" departLane="free"/>
  <flow id="JF417981" begin="0" fromJunction="J0" toJunction="J6" end="60" vehsPerHour="400.5499190266186" departLane="free"/>
  <flow id="JF417982" begin="0" fromJunction="J0" toJunction="J7" end="60" vehsPerHour="464.09535121699145" departLane="free"/>
  <flow id="JF417983" begin="0" fromJunction="J3" toJunction="J0" end="60" vehsPerHour="339.69421872920395" departLane="free"/>
  <flow id="JF417984" begin="0" fromJunction="J3" toJunction="J5" end="60" vehsPerHour="320.37334455117144" departLane="free"/>
  <flow id="JF417985" begin="0" fromJunction="J3" toJunction="J7" end="60" vehsPerHour="328.2389690396935" departLane="free"/>
  <flow id="JF417986" begin="0" fromJunction="J4" toJunction="J0" end="60" vehsPerHour="165.3432955978299" departLane="free"/>
  <flow id="JF417987" begin="0" fromJunction="J4" toJunction="J5" end="60" vehsPerHour="167.4627272001942" departLane="free"/>
  <flow id="JF417988" begin="0" fromJunction="J4" toJunction="J6" end="60" vehsPerHour="6.872491974537617" departLane="free"/>
  <flow id="JF417989" begin="0" fromJunction="J4" toJunction="J7" end="60" vehsPerHour="74.90950075097264" departLane="free"/>
  <flow id="JF417990" begin="0" fromJunction="J5" toJunction="J0" end="60" vehsPerHour="249.43413940133917" departLane="free"/>
  <flow id="JF417991" begin="0" fromJunction="J5" toJunction="J3" end="60" vehsPerHour="84.78135801171761" departLane="free"/>
  <flow id="JF417992" begin="0" fromJunction="J5" toJunction="J4" end="60" vehsPerHour="246.08808667934835" departLane="free"/>
  <flow id="JF417993" begin="0" fromJunction="J5" toJunction="J7" end="60" vehsPerHour="182.41576197491503" departLane="free"/>
  <flow id="JF417994" begin="0" fromJunction="J6" toJunction="J0" end="60" vehsPerHour="124.33225806013165" departLane="free"/>
  <flow id="JF417995" begin="0" fromJunction="J6" toJunction="J3" end="60" vehsPerHour="1.656459149281668" departLane="free"/>
  <flow id="JF417996" begin="0" fromJunction="J6" toJunction="J4" end="60" vehsPerHour="0.05571016249255241" departLane="free"/>
  <flow id="JF417997" begin="0" fromJunction="J6" toJunction="J7" end="60" vehsPerHour="52.59536800533994" departLane="free"/>
  <flow id="JF417998" begin="0" fromJunction="J7" toJunction="J0" end="60" vehsPerHour="207.0004736811023" departLane="free"/>
  <flow id="JF417999" begin="0" fromJunction="J7" toJunction="J5" end="60" vehsPerHour="78.06458307600414" departLane="free"/>
  <flow id="JF418000" begin="60" fromJunction="J0" toJunction="J4" end="120" vehsPerHour="397.9627481102389" departLane="free"/>
  <flow id="JF418001" begin="60" fromJunction="J0" toJunction="J6" end="120" vehsPerHour="510.006247806225" departLane="free"/>
  <flow id="JF418002" begin="60" fromJunction="J0" toJunction="J7" end="120" vehsPerHour="414.0089719535369" departLane="free"/>
  <flow id="JF418003" begin="60" fromJunction="J3" toJunction="J5" end="120" vehsPerHour="457.5425745340046" departLane="free"/>
  <flow id="JF418004" begin="60" fromJunction="J3" toJunction="J6" end="120" vehsPerHour="295.0893888841016" departLane="free"/>
  <flow id="JF418005" begin="60" fromJunction="J3" toJunction="J7" end="120" vehsPerHour="294.35209402143835" departLane="free"/>
  <flow id="JF418006" begin="60" fromJunction="J4" toJunction="J0" end="120" vehsPerHour="194.43444434390352" departLane="free"/>
  <flow id="JF418007" begin="60" fromJunction="J4" toJunction="J3" end="120" vehsPerHour="97.71501929166966" departLane="free"/>
  <flow id="JF418008" begin="60" fromJunction="J4" toJunction="J5" end="120" vehsPerHour="206.4339816265278" departLane="free"/>
  <flow id="JF418009" begin="60" fromJunction="J4" toJunction="J6" end="120" vehsPerHour="48.46818189185206" departLane="free"/>
  <flow id="JF418010" begin="60" fromJunction="J4" toJunction="J7" end="120" vehsPerHour="242.02532126102622" departLane="free"/>
  <flow id="JF418011" begin="60" fromJunction="J5" toJunction="J0" end="120" vehsPerHour="52.919469800309194" departLane="free"/>
  <flow id="JF418012" begin="60" fromJunction="J5" toJunction="J3" end="120" vehsPerHour="183.81319473304617" departLane="free"/>
  <flow id="JF418013" begin="60" fromJunction="J5" toJunction="J4" end="120" vehsPerHour="120.3595153739035" departLane="free"/>
  <flow id="JF418014" begin="60" fromJunction="J5" toJunction="J6" end="120" vehsPerHour="250.8100232491488" departLane="free"/>
  <flow id="JF418015" begin="60" fromJunction="J5" toJunction="J7" end="120" vehsPerHour="145.11709565779404" departLane="free"/>
  <flow id="JF418016" begin="60" fromJunction="J6" toJunction="J0" end="120" vehsPerHour="78.82372218616909" departLane="free"/>
  <flow id="JF418017" begin="60" fromJunction="J6" toJunction="J3" end="120" vehsPerHour="239.94713394712136" departLane="free"/>
  <flow id="JF418018" begin="60" fromJunction="J6" toJunction="J7" end="120" vehsPerHour="94.04466933921002" departLane="free"/>
  <flow id="JF418019" begin="60" fromJunction="J7" toJunction="J0" end="120" vehsPerHour="140.5167899028985" departLane="free"/>
  <flow id="JF418020" begin="60" fromJunction="J7" toJunction="J3" end="120" vehsPerHour="156.30563612040652" departLane="free"/>
  <flow id="JF418021" begin="60" fromJunction="J7" toJunction="J4" end="120" vehsPerHour="24.777745521773006" departLane="free"/>
  <flow id="JF418022" begin="60" fromJunction="J7" toJunction="J6" end="120" vehsPerHour="60.29199735484909" departLane="free"/>
  <flow id="JF418023" begin="120" fromJunction="J0" toJunction="J4" end="180" vehsPerHour="407.0465402466059" departLane="free"/>
  <flow id="JF418024" begin="120" fromJunction="J0" toJunction="J5" end="180" vehsPerHour="391.61601385564023" departLane="free"/>
  <flow id="JF418025" begin="120" fromJunction="J0" toJunction="J6" end="180" vehsPerHour="125.61625457871851" departLane="free"/>
  <flow id="JF418026" begin="120" fromJunction="J3" toJunction="J0" end="180" vehsPerHour="285.4823030342321" departLane="free"/>
  <flow id="JF418027" begin="120" fromJunction="J3" toJunction="J5" end="180" vehsPerHour="97.8830512975508" departLane="free"/>
  <flow id="JF418028" begin="120" fromJunction="J3" toJunction="J6" end="180" vehsPerHour="547.2634246599259" departLane="free"/>
  <flow id="JF418029" begin="120" fromJunction="J3" toJunction="J7" end="180" vehsPerHour="264.48752678326554" departLane="free"/>
  <flow id="JF418030" begin="120" fromJunction="J4" toJunction="J0" end="180" vehsPerHour="243.75298416342088" departLane="free"/>
  <flow id="JF418031" begin="120" fromJunction="J4" toJunction="J3" end="180" vehsPerHour="11.066138461309597" departLane="free"/>
  <flow id="JF418032" begin="120" fromJunction="J4" toJunction="J5" end="180" vehsPerHour="114.38103008831085" departLane="free"/>
  <flow id="JF418033" begin="120" fromJunction="J4" toJunction="J6" end="180" vehsPerHour="140.93392360613782" departLane="free"/>
  <flow id="JF418034" begin="120" fromJunction="J4" toJunction="J7" end="180" vehsPerHour="2.692772384469064" departLane="free"/>
  <flow id="JF418035" begin="120" fromJunction="J5" toJunction="J0" end="180" vehsPerHour="204.7918932401164" departLane="free"/>
  <flow id="JF418036" begin="120" fromJunction="J5" toJunction="J3" end="180" vehsPerHour="156.00071377024642" departLane="free"/>
  <flow id="JF418037" begin="120" fromJunction="J5" toJunction="J6" end="180" vehsPerHour="158.91054829151858" departLane="free"/>
  <flow id="JF418038" begin="120" fromJunction="J5" toJunction="J7" end="180" vehsPerHour="23.12052414679671" departLane="free"/>
  <flow id="JF418039" begin="120" fromJunction="J6" toJunction="J3" end="180" vehsPerHour="28.82501207572043" departLane="free"/>
  <flow id="JF418040" begin="120" fromJunction="J6" toJunction="J4" end="180" vehsPerHour="119.24374537620693" departLane="free"/>
  <flow id="JF418041" begin="120" fromJunction="J6" toJunction="J5" end="180" vehsPerHour="123.80064327155445" departLane="free"/>
  <flow id="JF418042" begin="120" fromJunction="J6" toJunction="J7" end="180" vehsPerHour="251.54482518682448" departLane="free"/>
  <flow id="JF418043" begin="120" fromJunction="J7" toJunction="J3" end="180" vehsPerHour="181.71161789028253" departLane="free"/>
  <flow id="JF418044" begin="120" fromJunction="J7" toJunction="J4" end="180" vehsPerHour="24.257579393744876" departLane="free"/>
  <flow id="JF418045" begin="120" fromJunction="J7" toJunction="J5" end="180" vehsPerHour="123.47366906329574" departLane="free"/>
  <flow id="JF418046" begin="120" fromJunction="J7" toJunction="J6" end="180" vehsPerHour="48.29551649537776" departLane="free"/>
  <flow id="JF418047" begin="180" fromJunction="J0" toJunction="J3" end="240" vehsPerHour="433.87430191463886" departLane="free"/>
  <flow id="JF418048" begin="180" fromJunction="J0" toJunction="J4" end="240" vehsPerHour="358.4746552269725" departLane="free"/>
  <flow id="JF418049" begin="180" fromJunction="J0" toJunction="J5" end="240" vehsPerHour="395.45772395255074" departLane="free"/>
  <flow id="JF418050" begin="180" fromJunction="J0" toJunction="J6" end="240" vehsPerHour="113.57365672236703" departLane="free"/>
  <flow id="JF418051" begin="180" fromJunction="J0" toJunction="J7" end="240" vehsPerHour="53.63543203045874" departLane="free"/>
  <flow id="JF418052" begin="180" fromJunction="J3" toJunction="J0" end="240" vehsPerHour="320.7059586958411" departLane="free"/>
  <flow id="JF418053" begin="180" fromJunction="J3" toJunction="J5" end="240" vehsPerHour="285.9535229737731" departLane="free"/>
  <flow id="JF418054" begin="180" fromJunction="J4" toJunction="J0" end="240" vehsPerHour="113.43527027424547" departLane="free"/>
  <flow id="JF418055" begin="180" fromJunction="J4" toJunction="J3" end="240" vehsPerHour="71.62138506736923" departLane="free"/>
  <flow id="JF418056" begin="180" fromJunction="J4" toJunction="J5" end="240" vehsPerHour="220.74002409953118" departLane="free"/>
  <flow id="JF418057" begin="180" fromJunction="J4" toJunction="J6" end="240" vehsPerHour="28.790949022772935" departLane="free"/>
  <flow id="JF418058" begin="180" fromJunction="J4" toJunction="J7" end="240" vehsPerHour="137.64888685235397" departLane="free"/>
  <flow id="JF418059" begin="180" fromJunction="J5" toJunction="J0" end="240" vehsPerHour="45.79848853281665" departLane="free"/>
  <flow id="JF418060" begin="180" fromJunction="J5" toJunction="J3" end="240" vehsPerHour="72.33002681631662" departLane="free"/>
  <flow id="JF418061" begin="180" fromJunction="J5" toJunction="J4" end="240" vehsPerHour="59.42396842118104" departLane="free"/>
  <flow id="JF418062" begin="180" fromJunction="J5" toJunction="J6" end="240" vehsPerHour="187.51824823814795" departLane="free"/>
  <flow id="JF418063" begin="180" fromJunction="J5" toJunction="J7" end="240" vehsPerHour="179.36389517271436" departLane="free"/>
  <flow id="JF418064" begin="180" fromJunction="J6" toJunction="J0" end="240" vehsPerHour="176.42239428182316" departLane="free"/>
  <flow id="JF418065" begin="180" fromJunction="J6" toJunction="J3" end="240" vehsPerHour="121.82948138387296" departLane="free"/>
  <flow id="JF418066" begin="180" fromJunction="J6" toJunction="J5" end="240" vehsPerHour="212.9900097425217" departLane="free"/>
  <flow id="JF418067" begin="180" fromJunction="J6" toJunction="J7" end="240" vehsPerHour="232.4263474036338" departLane="free"/>
  <flow id="JF418068" begin="180" fromJunction="J7" toJunction="J3" end="240" vehsPerHour="222.90238147340943" departLane="free"/>
  <flow id="JF418069" begin="180" fromJunction="J7" toJunction="J4" end="240" vehsPerHour="152.66467076432102" departLane="free"/>
  <flow id="JF418070" begin="180" fromJunction="J7" toJunction="J5" end="240" vehsPerHour="175.9072839401594" departLane="free"/>
  <flow id="JF418071" begin="180" fromJunction="J7" toJunction="J6" end="240" vehsPerHour="260.78359692934276" departLane="free"/>
  <flow id="JF418072" begin="240" fromJunction="J0" toJunction="J3" end="300" vehsPerHour="535.8212508229556" departLane="free"/>
  <flow id="JF418073" begin="240" fromJunction="J0" toJunction="J4" end="300" vehsPerHour="19.56595978860969" departLane="free"/>
  <flow id="JF418074" begin="240" fromJunction="J0" toJunction="J5" end="300" vehsPerHour="484.76416660906483" departLane="free"/>
  <flow id="JF418075" begin="240" fromJunction="J0" toJunction="J6" end="300" vehsPerHour="149.746899302357" departLane="free"/>
  <flow id="JF418076" begin="240" fromJunction="J0" toJunction="J7" end="300" vehsPerHour="534.0918674421189" departLane="free"/>
  <flow id="JF418077" begin="240" fromJunction="J3" toJunction="J4" end="300" vehsPerHour="369.09335011765853" departLane="free"/>
  <flow id="JF418078" begin="240" fromJunction="J3" toJunction="J5" end="300" vehsPerHour="375.0312359235507" departLane="free"/>
  <flow id="JF418079" begin="240" fromJunction="J3" toJunction="J6" end="300" vehsPerHour="493.07482227302114" departLane="free"/>
  <flow id="JF418080" begin="240" fromJunction="J4" toJunction="J0" end="300" vehsPerHour="99.18144857438308" departLane="free"/>
  <flow id="JF418081" begin="240" fromJunction="J4" toJunction="J3" end="300" vehsPerHour="167.60445577386142" departLane="free"/>
  <flow id="JF418082" begin="240" fromJunction="J4" toJunction="J5" end="300" vehsPerHour="267.3070132670577" departLane="free"/>
  <flow id="JF418083" begin="240" fromJunction="J4" toJunction="J6" end="300" vehsPerHour="118.28942147132936" departLane="free"/>
  <flow id="JF418084" begin="240" fromJunction="J5" toJunction="J3" end="300" vehsPerHour="92.59913005298307" departLane="free"/>
  <flow id="JF418085" begin="240" fromJunction="J5" toJunction="J4" end="300" vehsPerHour="63.29748781302596" departLane="free"/>
  <flow id="JF418086" begin="240" fromJunction="J5" toJunction="J7" end="300" vehsPerHour="186.6816656953828" departLane="free"/>
  <flow id="JF418087" begin="240" fromJunction="J6" toJunction="J0" end="300" vehsPerHour="216.34482178169014" departLane="free"/>
  <flow id="JF418088" begin="240" fromJunction="J6" toJunction="J3" end="300" vehsPerHour="175.66226435516054" departLane="free"/>
  <flow id="JF418089" begin="240" fromJunction="J6" toJunction="J5" end="300" vehsPerHour="220.63737936746432" departLane="free"/>
  <flow id="JF418090" begin="240" fromJunction="J6" toJunction="J7" end="300" vehsPerHour="115.28073387799579" departLane="free"/>
  <flow id="JF418091" begin="240" fromJunction="J7" toJunction="J0" end="300" vehsPerHour="4.2797149628644116" departLane="free"/>
  <flow id="JF418092" begin="240" fromJunction="J7" toJunction="J3" end="300" vehsPerHour="38.45806759428641" departLane="free"/>
  <flow id="JF418093" begin="240" fromJunction="J7" toJunction="J4" end="300" vehsPerHour="33.8688514132309" departLane="free"/>
  <flow id="JF418094" begin="240" fromJunction="J7" toJunction="J5" end="300" vehsPerHour="133.05468330469992" departLane="free"/>
  <flow id="JF418095" begin="240" fromJunction="J7" toJunction="J6" end="300" vehsPerHour="139.8892893346685" departLane="free"/>
  <flow id="JF418096" begin="300" fromJunction="J0" toJunction="J3" end="360" vehsPerHour="332.9803368778595" departLane="free"/>
  <flow id="JF418097" begin="300" fromJunction="J0" toJunction="J4" end="360" vehsPerHour="105.40859608712442" departLane="free"/>
  <flow id="JF418098" begin="300" fromJunction="J0" toJunction="J5" end="360" vehsPerHour="473.9432125000755" departLane="free"/>
  <flow id="JF418099" begin="300" fromJunction="J0" toJunction="J7" end="360" vehsPerHour="19.171421546740767" departLane="free"/>
  <flow id="JF418100" begin="300" fromJunction="J3" toJunction="J4" end="360" vehsPerHour="233.65532224255946" departLane="free"/>
  <flow id="JF418101" begin="300" fromJunction="J3" toJunction="J5" end="360" vehsPerHour="316.9153995377854" departLane="free"/>
  <flow id="JF418102" begin="300" fromJunction="J3" toJunction="J6" end="360" vehsPerHour="53.88926286471813" departLane="free"/>
  <flow id="JF418103" begin="300" fromJunction="J3" toJunction="J7" end="360" vehsPerHour="5.302420360242884" departLane="free"/>
  <flow id="JF418104" begin="300" fromJunction="J4" toJunction="J0" end="360" vehsPerHour="266.0269660517488" departLane="free"/>
  <flow id="JF418105" begin="300" fromJunction="J4" toJunction="J3" end="360" vehsPerHour="123.15756729531475" departLane="free"/>
  <flow id="JF418106" begin="300" fromJunction="J4" toJunction="J5" end="360" vehsPerHour="260.41220809426136" departLane="free"/>
  <flow id="JF418107" begin="300" fromJunction="J4" toJunction="J7" end="360" vehsPerHour="246.71655321361266" departLane="free"/>
  <flow id="JF418108" begin="300" fromJunction="J5" toJunction="J0" end="360" vehsPerHour="171.8298922503567" departLane="free"/>
  <flow id="JF418109" begin="300" fromJunction="J5" toJunction="J3" end="360" vehsPerHour="68.61163876790792" departLane="free"/>
  <flow id="JF418110" begin="300" fromJunction="J5" toJunction="J4" end="360" vehsPerHour="236.12932781495363" departLane="free"/>
  <flow id="JF418111" begin="300" fromJunction="J5" toJunction="J7" end="360" vehsPerHour="273.92103412305227" departLane="free"/>
  <flow id="JF418112" begin="300" fromJunction="J6" toJunction="J0" end="360" vehsPerHour="263.50401127743953" departLane="free"/>
  <flow id="JF418113" begin="300" fromJunction="J6" toJunction="J4" end="360" vehsPerHour="194.79515285123276" departLane="free"/>
  <flow id="JF418114" begin="300" fromJunction="J6" toJunction="J7" end="360" vehsPerHour="70.85215310899" departLane="free"/>
  <flow id="JF418115" begin="300" fromJunction="J7" toJunction="J0" end="360" vehsPerHour="245.8153447367049" departLane="free"/>
  <flow id="JF418116" begin="300" fromJunction="J7" toJunction="J3" end="360" vehsPerHour="11.383631771549451" departLane="free"/>
  <flow id="JF418117" begin="300" fromJunction="J7" toJunction="J6" end="360" vehsPerHour="37.53992680305603" departLane="free"/>
  <flow id="JF418118" begin="360" fromJunction="J0" toJunction="J3" end="420" vehsPerHour="414.4506706271742" departLane="free"/>
  <flow id="JF418119" begin="360" fromJunction="J0" toJunction="J4" end="420" vehsPerHour="87.35909953301054" departLane="free"/>
  <flow id="JF418120" begin="360" fromJunction="J0" toJunction="J5" end="420" vehsPerHour="470.0136253828276" departLane="free"/>
  <flow id="JF418121" begin="360" fromJunction="J0" toJunction="J6" end="420" vehsPerHour="9.356625194521712" departLane="free"/>
  <flow id="JF418122" begin="360" fromJunction="J0" toJunction="J7" end="420" vehsPerHour="4.683961764503448" departLane="free"/>
  <flow id="JF418123" begin="360" fromJunction="J3" toJunction="J4" end="420" vehsPerHour="268.34397323911224" departLane="free"/>
  <flow id="JF418124" begin="360" fromJunction="J3" toJunction="J5" end="420" vehsPerHour="286.92460869631503" departLane="free"/>
  <flow id="JF418125" begin="360" fromJunction="J3" toJunction="J6" end="420" vehsPerHour="260.9122039159572" departLane="free"/>
  <flow id="JF418126" begin="360" fromJunction="J3" toJunction="J7" end="420" vehsPerHour="266.08206670091175" departLane="free"/>
  <flow id="JF418127" begin="360" fromJunction="J4" toJunction="J0" end="420" vehsPerHour="155.49714072335703" departLane="free"/>
  <flow id="JF418128" begin="360" fromJunction="J4" toJunction="J3" end="420" vehsPerHour="204.6337096656398" departLane="free"/>
  <flow id="JF418129" begin="360" fromJunction="J4" toJunction="J6" end="420" vehsPerHour="40.99795063477043" departLane="free"/>
  <flow id="JF418130" begin="360" fromJunction="J4" toJunction="J7" end="420" vehsPerHour="61.43393738944502" departLane="free"/>
  <flow id="JF418131" begin="360" fromJunction="J5" toJunction="J0" end="420" vehsPerHour="23.723139500077814" departLane="free"/>
  <flow id="JF418132" begin="360" fromJunction="J5" toJunction="J3" end="420" vehsPerHour="122.53436918404012" departLane="free"/>
  <flow id="JF418133" begin="360" fromJunction="J5" toJunction="J4" end="420" vehsPerHour="77.05657240620965" departLane="free"/>
  <flow id="JF418134" begin="360" fromJunction="J5" toJunction="J6" end="420" vehsPerHour="209.62603128870074" departLane="free"/>
  <flow id="JF418135" begin="360" fromJunction="J6" toJunction="J0" end="420" vehsPerHour="185.49069574361008" departLane="free"/>
  <flow id="JF418136" begin="360" fromJunction="J6" toJunction="J3" end="420" vehsPerHour="59.036973991717005" departLane="free"/>
  <flow id="JF418137" begin="360" fromJunction="J6" toJunction="J4" end="420" vehsPerHour="32.47865883733272" departLane="free"/>
  <flow id="JF418138" begin="360" fromJunction="J6" toJunction="J5" end="420" vehsPerHour="187.77254691751884" departLane="free"/>
  <flow id="JF418139" begin="360" fromJunction="J7" toJunction="J0" end="420" vehsPerHour="243.8499098562632" departLane="free"/>
  <flow id="JF418140" begin="360" fromJunction="J7" toJunction="J3" end="420" vehsPerHour="82.72415859241784" departLane="free"/>
  <flow id="JF418141" begin="360" fromJunction="J7" toJunction="J4" end="420" vehsPerHour="21.073150685366798" departLane="free"/>
  <flow id="JF418142" begin="360" fromJunction="J7" toJunction="J5" end="420" vehsPerHour="205.63968884151691" departLane="free"/>
  <flow id="JF418143" begin="420" fromJunction="J0" toJunction="J4" end="480" vehsPerHour="48.438418069075176" departLane="free"/>
  <flow id="JF418144" begin="420" fromJunction="J0" toJunction="J6" end="480" vehsPerHour="524.7040302286936" departLane="free"/>
  <flow id="JF418145" begin="420" fromJunction="J3" toJunction="J0" end="480" vehsPerHour="202.92536077844227" departLane="free"/>
  <flow id="JF418146" begin="420" fromJunction="J3" toJunction="J4" end="480" vehsPerHour="203.65345021460837" departLane="free"/>
  <flow id="JF418147" begin="420" fromJunction="J3" toJunction="J7" end="480" vehsPerHour="105.53117902432028" departLane="free"/>
  <flow id="JF418148" begin="420" fromJunction="J4" toJunction="J0" end="480" vehsPerHour="95.64140613941113" departLane="free"/>
  <flow id="JF418149" begin="420" fromJunction="J4" toJunction="J5" end="480" vehsPerHour="167.22104975793127" departLane="free"/>
  <flow id="JF418150" begin="420" fromJunction="J4" toJunction="J6" end="480" vehsPerHour="110.0399576794626" departLane="free"/>
  <flow id="JF418151" begin="420" fromJunction="J5" toJunction="J0" end="480" vehsPerHour="68.74213093238185" departLane="free"/>
  <flow id="JF418152" begin="420" fromJunction="J5" toJunction="J3" end="480" vehsPerHour="186.17132515450666" departLane="free"/>
  <flow id="JF418153" begin="420" fromJunction="J5" toJunction="J4" end="480" vehsPerHour="246.7959932754671" departLane="free"/>
  <flow id="JF418154" begin="420" fromJunction="J5" toJunction="J6" end="480" vehsPerHour="188.10430026357088" departLane="free"/>
  <flow id="JF418155" begin="420" fromJunction="J5" toJunction="J7" end="480" vehsPerHour="160.36933732817562" departLane="free"/>
  <flow id="JF418156" begin="420" fromJunction="J6" toJunction="J0" end="480" vehsPerHour="138.60442930406242" departLane="free"/>
  <flow id="JF418157" begin="420" fromJunction="J7" toJunction="J0" end="480" vehsPerHour="173.23844581883284" departLane="free"/>
  <flow id="JF418158" begin="420" fromJunction="J7" toJunction="J3" end="480" vehsPerHour="88.31225501815234" departLane="free"/>
  <flow id="JF418159" begin="420" fromJunction="J7" toJunction="J5" end="480" vehsPerHour="267.28226619370827" departLane="free"/>
  <flow id="JF418160" begin="480" fromJunction="J0" toJunction="J3" end="540" vehsPerHour="322.41701604582164" departLane="free"/>
  <flow id="JF418161" begin="480" fromJunction="J0" toJunction="J4" end="540" vehsPerHour="401.1759424416456" departLane="free"/>
  <flow id="JF418162" begin="480" fromJunction="J0" toJunction="J5" end="540" vehsPerHour="31.609881196453294" departLane="free"/>
  <flow id="JF418163" begin="480" fromJunction="J0" toJunction="J6" end="540" vehsPerHour="337.9671010225412" departLane="free"/>
  <flow id="JF418164" begin="480" fromJunction="J0" toJunction="J7" end="540" vehsPerHour="141.28006120644636" departLane="free"/>
  <flow id="JF418165" begin="480" fromJunction="J3" toJunction="J4" end="540" vehsPerHour="150.42038214427282" departLane="free"/>
  <flow id="JF418166" begin="480" fromJunction="J3" toJunction="J5" end="540" vehsPerHour="134.21406979651078" departLane="free"/>
  <flow id="JF418167" begin="480" fromJunction="J3" toJunction="J6" end="540" vehsPerHour="499.6269347889691" departLane="free"/>
  <flow id="JF418168" begin="480" fromJunction="J3" toJunction="J7" end="540" vehsPerHour="540.4356003479671" departLane="free"/>
  <flow id="JF418169" begin="480" fromJunction="J4" toJunction="J0" end="540" vehsPerHour="43.51456777425301" departLane="free"/>
  <flow id="JF418170" begin="480" fromJunction="J4" toJunction="J3" end="540" vehsPerHour="145.65646890218227" departLane="free"/>
  <flow id="JF418171" begin="480" fromJunction="J4" toJunction="J6" end="540" vehsPerHour="67.96496221415869" departLane="free"/>
  <flow id="JF418172" begin="480" fromJunction="J4" toJunction="J7" end="540" vehsPerHour="4.334815274987343" departLane="free"/>
  <flow id="JF418173" begin="480" fromJunction="J5" toJunction="J3" end="540" vehsPerHour="227.001018045121" departLane="free"/>
  <flow id="JF418174" begin="480" fromJunction="J5" toJunction="J4" end="540" vehsPerHour="239.85827199991797" departLane="free"/>
  <flow id="JF418175" begin="480" fromJunction="J5" toJunction="J6" end="540" vehsPerHour="242.29718780230974" departLane="free"/>
  <flow id="JF418176" begin="480" fromJunction="J5" toJunction="J7" end="540" vehsPerHour="198.33949816626983" departLane="free"/>
  <flow id="JF418177" begin="480" fromJunction="J6" toJunction="J5" end="540" vehsPerHour="214.7115792547905" departLane="free"/>
  <flow id="JF418178" begin="480" fromJunction="J6" toJunction="J7" end="540" vehsPerHour="14.936069575536404" departLane="free"/>
  <flow id="JF418179" begin="480" fromJunction="J7" toJunction="J0" end="540" vehsPerHour="155.53791348070155" departLane="free"/>
  <flow id="JF418180" begin="480" fromJunction="J7" toJunction="J3" end="540" vehsPerHour="90.38177845853626" departLane="free"/>
  <flow id="JF418181" begin="480" fromJunction="J7" toJunction="J6" end="540" vehsPerHour="64.37456374129268" departLane="free"/>
  <flow id="JF418182" begin="540" fromJunction="J0" toJunction="J4" end="600" vehsPerHour="133.00486949392223" departLane="free"/>
  <flow id="JF418183" begin="540" fromJunction="J0" toJunction="J5" end="600" vehsPerHour="166.9075346871409" departLane="free"/>
  <flow id="JF418184" begin="540" fromJunction="J0" toJunction="J7" end="600" vehsPerHour="150.63979231142304" departLane="free"/>
  <flow id="JF418185" begin="540" fromJunction="J3" toJunction="J5" end="600" vehsPerHour="110.33447399052204" departLane="free"/>
  <flow id="JF418186" begin="540" fromJunction="J4" toJunction="J0" end="600" vehsPerHour="225.10464325018432" departLane="free"/>
  <flow id="JF418187" begin="540" fromJunction="J4" toJunction="J3" end="600" vehsPerHour="20.986818920294386" departLane="free"/>
  <flow id="JF418188" begin="540" fromJunction="J4" toJunction="J5" end="600" vehsPerHour="219.51086405844813" departLane="free"/>
  <flow id="JF418189" begin="540" fromJunction="J4" toJunction="J6" end="600" vehsPerHour="154.34415650968592" departLane="free"/>
  <flow id="JF418190" begin="540" fromJunction="J4" toJunction="J7" end="600" vehsPerHour="248.40465067797624" departLane="free"/>
  <flow id="JF418191" begin="540" fromJunction="J5" toJunction="J0" end="600" vehsPerHour="85.29342521571701" departLane="free"/>
  <flow id="JF418192" begin="540" fromJunction="J5" toJunction="J3" end="600" vehsPerHour="41.58851070548743" departLane="free"/>
  <flow id="JF418193" begin="540" fromJunction="J5" toJunction="J4" end="600" vehsPerHour="10.320460843291714" departLane="free"/>
  <flow id="JF418194" begin="540" fromJunction="J5" toJunction="J6" end="600" vehsPerHour="20.405785670746088" departLane="free"/>
  <flow id="JF418195" begin="540" fromJunction="J5" toJunction="J7" end="600" vehsPerHour="35.59963615481881" departLane="free"/>
  <flow id="JF418196" begin="540" fromJunction="J6" toJunction="J4" end="600" vehsPerHour="76.59287239547426" departLane="free"/>
  <flow id="JF418197" begin="540" fromJunction="J6" toJunction="J5" end="600" vehsPerHour="201.36275902923262" departLane="free"/>
  <flow id="JF418198" begin="540" fromJunction="J6" toJunction="J7" end="600" vehsPerHour="102.43450967245694" departLane="free"/>
  <flow id="JF418199" begin="540" fromJunction="J7" toJunction="J0" end="600" vehsPerHour="210.9284841046655" departLane="free"/>
  <flow id="JF418200" begin="540" fromJunction="J7" toJunction="J4" end="600" vehsPerHour="25.239982911589397" departLane="free"/>
  <flow id="JF418201" begin="540" fromJunction="J7" toJunction="J5" end="600" vehsPerHour="119.06548776465365" departLane="free"/>
  <flow id="JF418202" begin="540" fromJunction="J7" toJunction="J6" end="600" vehsPerHour="149.842406090806" departLane="free"/>
  <flow id="JF418203" begin="600" fromJunction="J0" toJunction="J3" end="660" vehsPerHour="326.51590149511094" departLane="free"/>
  <flow id="JF418204" begin="600" fromJunction="J0" toJunction="J4" end="660" vehsPerHour="539.9272569625908" departLane="free"/>
  <flow id="JF418205" begin="600" fromJunction="J0" toJunction="J6" end="660" vehsPerHour="383.8012888844459" departLane="free"/>
  <flow id="JF418206" begin="600" fromJunction="J0" toJunction="J7" end="660" vehsPerHour="442.1852408490605" departLane="free"/>
  <flow id="JF418207" begin="600" fromJunction="J3" toJunction="J0" end="660" vehsPerHour="411.283759193642" departLane="free"/>
  <flow id="JF418208" begin="600" fromJunction="J3" toJunction="J4" end="660" vehsPerHour="97.75986860955128" departLane="free"/>