<?xml version="1.0" encoding="UTF-8"?>
<routes xmlns:xsi="http://www.w3.org/2001/XMLSchema-instance" xsi:noNamespaceSchemaLocation="http://sumo.dlr.de/xsd/routes_file.xsd">
  <flow id="JF419770" begin="0" fromJunction="J0" toJunction="J4" end="60" vehsPerHour="415.31638591841164" departLane="free"/>
  <flow id="JF419771" begin="0" fromJunction="J0" toJunction="J5" end="60" vehsPerHour="308.83832710034125" departLane="free"/>
  <flow id="JF419772" begin="0" fromJunction="J0" toJunction="J6" end="60" vehsPerHour="172.39025379677886" departLane="free"/>
  <flow id="JF419773" begin="0" fromJunction="J0" toJunction="J7" end="60" vehsPerHour="288.70397972989025" departLane="free"/>
  <flow id="JF419774" begin="0" fromJunction="J3" toJunction="J0" end="60" vehsPerHour="266.0520081322795" departLane="free"/>
  <flow id="JF419775" begin="0" fromJunction="J3" toJunction="J5" end="60" vehsPerHour="257.9998731882393" departLane="free"/>
  <flow id="JF419776" begin="0" fromJunction="J3" toJunction="J7" end="60" vehsPerHour="76.82542722965418" departLane="free"/>
  <flow id="JF419777" begin="0" fromJunction="J4" toJunction="J0" end="60" vehsPerHour="62.37627682864915" departLane="free"/>
  <flow id="JF419778" begin="0" fromJunction="J4" toJunction="J3" end="60" vehsPerHour="236.1995799398527" departLane="free"/>
  <flow id="JF419779" begin="0" fromJunction="J4" toJunction="J6" end="60" vehsPerHour="181.23898264985667" departLane="free"/>
  <flow id="JF419780" begin="0" fromJunction="J5" toJunction="J0" end="60" vehsPerHour="78.3755821418468" departLane="free"/>
  <flow id="JF419781" begin="0" fromJunction="J5" toJunction="J3" end="60" vehsPerHour="218.9463973452859" departLane="free"/>
  <flow id="JF419782" begin="0" fromJunction="J5" toJunction="J4" end="60" vehsPerHour="65.22043615829128" departLane="free"/>
  <flow id="JF419783" begin="0" fromJunction="J5" toJunction="J6" end="60" vehsPerHour="101.45675857277304" departLane="free"/>
  <flow id="JF419784" begin="0" fromJunction="J5" toJunction="J7" end="60" vehsPerHour="102.66171034419042" departLane="free"/>
  <flow id="JF419785" begin="0" fromJunction="J6" toJunction="J3" end="60" vehsPerHour="209.5040583481604" departLane="free"/>
  <flow id="JF419786" begin="0" fromJunction="J6" toJunction="J4" end="60" vehsPerHour="56.22900415069183" departLane="free"/>
  <flow id="JF419787" begin="0" fromJunction="J6" toJunction="J5" end="60" vehsPerHour="60.9349867381699" departLane="free"/>
  <flow id="JF419788" begin="0" fromJunction="J7" toJunction="J3" end="60" vehsPerHour="148.54226261194663" departLane="free"/>
  <flow id="JF419789" begin="0" fromJunction="J7" toJunction="J4" end="60" vehsPerHour="48.73250644721206" departLane="free"/>
  <flow id="JF419790" begin="0" fromJunction="J7" toJunction="J6" end="60" vehsPerHour="28.264991611978985" departLane="free"/>
  <flow id="JF419791" begin="60" fromJunction="J0" toJunction="J4" end="120" vehsPerHour="547.0326030995799" departLane="free"/>
  <flow id="JF419792" begin="60" fromJunction="J0" toJunction="J5" end="120" vehsPerHour="447.0429445012305" departLane="free"/>
  <flow id="JF419793" begin="60" fromJunction="J3" toJunction="J0" end="120" vehsPerHour="237.0563296906045" departLane="free"/>
  <flow id="JF419794" begin="60" fromJunction="J3" toJunction="J4" end="120" vehsPerHour="47.549736695222286" departLane="free"/>
  <flow id="JF419795" begin="60" fromJunction="J3" toJunction="J6" end="120" vehsPerHour="85.56655137841673" departLane="free"/>
  <flow id="JF419796" begin="60" fromJunction="J3" toJunction="J7" end="120" vehsPerHour="129.48687936619544" departLane="free"/>
  <flow id="JF419797" begin="60" fromJunction="J4" toJunction="J3" end="120" vehsPerHour="156.9635546141516" departLane="free"/>
  <flow id="JF419798" begin="60" fromJunction="J4" toJunction="J5" end="120" vehsPerHour="135.6272946354785" departLane="free"/>
  <flow id="JF419799" begin="60" fromJunction="J4" toJunction="J7" end="120" vehsPerHour="15.36791799318303" departLane="free"/>
  <flow id="JF419800" begin="60" fromJunction="J5" toJunction="J0" end="120" vehsPerHour="168.0570662055429" departLane="free"/>
  <flow id="JF419801" begin="60" fromJunction="J5" toJunction="J3" end="120" vehsPerHour="7.540528849933703" departLane="free"/>
  <flow id="JF419802" begin="60" fromJunction="J5" toJunction="J6" end="120" vehsPerHour="191.75694681530362" departLane="free"/>
  <flow id="JF419803" begin="60" fromJunction="J5" toJunction="J7" end="120" vehsPerHour="231.12618885143138" departLane="free"/>
  <flow id="JF419804" begin="60" fromJunction="J6" toJunction="J0" end="120" vehsPerHour="267.6822678393273" departLane="free"/>
  <flow id="JF419805" begin="60" fromJunction="J6" toJunction="J3" end="120" vehsPerHour="164.36228982044287" departLane="free"/>
  <flow id="JF419806" begin="60" fromJunction="J6" toJunction="J4" end="120" vehsPerHour="100.23779115049777" departLane="free"/>
  <flow id="JF419807" begin="60" fromJunction="J6" toJunction="J5" end="120" vehsPerHour="211.60038979358896" departLane="free"/>
  <flow id="JF419808" begin="60" fromJunction="J6" toJunction="J7" end="120" vehsPerHour="95.91752127200499" departLane="free"/>
  <flow id="JF419809" begin="60" fromJunction="J7" toJunction="J4" end="120" vehsPerHour="109.32829361953836" departLane="free"/>
  <flow id="JF419810" begin="60" fromJunction="J7" toJunction="J6" end="120" vehsPerHour="74.37928517484384" departLane="free"/>
  <flow id="JF419811" begin="120" fromJunction="J0" toJunction="J3" end="180" vehsPerHour="276.54163227700883" departLane="free"/>
  <flow id="JF419812" begin="120" fromJunction="J0" toJunction="J5" end="180" vehsPerHour="36.37020482961091" departLane="free"/>
  <flow id="JF419813" begin="120" fromJunction="J0" toJunction="J7" end="180" vehsPerHour="476.63216444599465" departLane="free"/>
  <flow id="JF419814" begin="120" fromJunction="J3" toJunction="J0" end="180" vehsPerHour="309.7055669492894" departLane="free"/>
  <flow id="JF419815" begin="120" fromJunction="J3" toJunction="J7" end="180" vehsPerHour="96.0667222878429" departLane="free"/>
  <flow id="JF419816" begin="120" fromJunction="J4" toJunction="J0" end="180" vehsPerHour="211.40842633470427" departLane="free"/>
  <flow id="JF419817" begin="120" fromJunction="J4" toJunction="J3" end="180" vehsPerHour="119.79460961748043" departLane="free"/>
  <flow id="JF419818" begin="120" fromJunction="J4" toJunction="J5" end="180" vehsPerHour="141.67757212692106" departLane="free"/>
  <flow id="JF419819" begin="120" fromJunction="J4" toJunction="J6" end="180" vehsPerHour="55.525626819173446" departLane="free"/>
  <flow id="JF419820" begin="120" fromJunction="J4" toJunction="J7" end="180" vehsPerHour="259.1166329394645" departLane="free"/>
  <flow id="JF419821" begin="120" fromJunction="J5" toJunction="J0" end="180" vehsPerHour="271.85430824512974" departLane="free"/>
  <flow id="JF419822" begin="120" fromJunction="J5" toJunction="J3" end="180" vehsPerHour="149.55394907292097" departLane="free"/>
  <flow id="JF419823" begin="120" fromJunction="J5" toJunction="J4" end="180" vehsPerHour="270.3164941766803" departLane="free"/>
  <flow id="JF419824" begin="120" fromJunction="J5" toJunction="J6" end="180" vehsPerHour="234.97571357317554" departLane="free"/>
  <flow id="JF419825" begin="120" fromJunction="J5" toJunction="J7" end="180" vehsPerHour="55.42127364262506" departLane="free"/>
  <flow id="JF419826" begin="120" fromJunction="J6" toJunction="J0" end="180" vehsPerHour="50.9528904453604" departLane="free"/>
  <flow id="JF419827" begin="120" fromJunction="J6" toJunction="J3" end="180" vehsPerHour="84.85655377457896" departLane="free"/>
  <flow id="JF419828" begin="120" fromJunction="J6" toJunction="J4" end="180" vehsPerHour="258.76394123627244" departLane="free"/>
  <flow id="JF419829" begin="120" fromJunction="J6" toJunction="J5" end="180" vehsPerHour="150.17409770228323" departLane="free"/>
  <flow id="JF419830" begin="120" fromJunction="J6" toJunction="J7" end="180" vehsPerHour="270.74997852200386" departLane="free"/>
  <flow id="JF419831" begin="120" fromJunction="J7" toJunction="J0" end="180" vehsPerHour="144.88584005406176" departLane="free"/>
  <flow id="JF419832" begin="120" fromJunction="J7" toJunction="J3" end="180" vehsPerHour="266.418879978564" departLane="free"/>
  <flow id="JF419833" begin="120" fromJunction="J7" toJunction="J6" end="180" vehsPerHour="211.5733384606268" departLane="free"/>
  <flow id="JF419834" begin="180" fromJunction="J0" toJunction="J4" end="240" vehsPerHour="531.328418611333" departLane="free"/>
  <flow id="JF419835" begin="180" fromJunction="J3" toJunction="J4" end="240" vehsPerHour="509.87955739896495" departLane="free"/>
  <flow id="JF419836" begin="180" fromJunction="J3" toJunction="J5" end="240" vehsPerHour="490.4881289048783" departLane="free"/>
  <flow id="JF419837" begin="180" fromJunction="J3" toJunction="J6" end="240" vehsPerHour="311.6818136657222" departLane="free"/>
  <flow id="JF419838" begin="180" fromJunction="J4" toJunction="J0" end="240" vehsPerHour="116.53344419868522" departLane="free"/>
  <flow id="JF419839" begin="180" fromJunction="J4" toJunction="J3" end="240" vehsPerHour="0.6182611252909712" departLane="free"/>
  <flow id="JF419840" begin="180" fromJunction="J4" toJunction="J5" end="240" vehsPerHour="204.6742820779866" departLane="free"/>
  <flow id="JF419841" begin="180" fromJunction="J4" toJunction="J6" end="240" vehsPerHour="211.15666372638194" departLane="free"/>
  <flow id="JF419842" begin="180" fromJunction="J5" toJunction="J3" end="240" vehsPerHour="160.7679594534344" departLane="free"/>
  <flow id="JF419843" begin="180" fromJunction="J5" toJunction="J4" end="240" vehsPerHour="250.18135241020025" departLane="free"/>
  <flow id="JF419844" begin="180" fromJunction="J5" toJunction="J7" end="240" vehsPerHour="248.2548134562623" departLane="free"/>
  <flow id="JF419845" begin="180" fromJunction="J6" toJunction="J0" end="240" vehsPerHour="270.46109477548475" departLane="free"/>
  <flow id="JF419846" begin="180" fromJunction="J6" toJunction="J3" end="240" vehsPerHour="113.67486439986466" departLane="free"/>
  <flow id="JF419847" begin="180" fromJunction="J6" toJunction="J4" end="240" vehsPerHour="7.207800308631317" departLane="free"/>
  <flow id="JF419848" begin="180" fromJunction="J6" toJunction="J5" end="240" vehsPerHour="108.05684434976884" departLane="free"/>
  <flow id="JF419849" begin="180" fromJunction="J6" toJunction="J7" end="240" vehsPerHour="216.82315102481684" departLane="free"/>
  <flow id="JF419850" begin="180" fromJunction="J7" toJunction="J3" end="240" vehsPerHour="134.9585720727434" departLane="free"/>
  <flow id="JF419851" begin="180" fromJunction="J7" toJunction="J4" end="240" vehsPerHour="40.66727638362692" departLane="free"/>
  <flow id="JF419852" begin="180" fromJunction="J7" toJunction="J6" end="240" vehsPerHour="143.4223099563365" departLane="free"/>
  <flow id="JF419853" begin="240" fromJunction="J0" toJunction="J3" end="300" vehsPerHour="512.5022539058026" departLane="free"/>
  <flow id="JF419854" begin="240" fromJunction="J0" toJunction="J4" end="300" vehsPerHour="45.44420522802184" departLane="free"/>
  <flow id="JF419855" begin="240" fromJunction="J0" toJunction="J6" end="300" vehsPerHour="397.14922200369983" departLane="free"/>
  <flow id="JF419856" begin="240" fromJunction="J0" toJunction="J7" end="300" vehsPerHour="209.1668184701689" departLane="free"/>
  <flow id="JF419857" begin="240" fromJunction="J3" toJunction="J5" end="300" vehsPerHour="548.1763123059721" departLane="free"/>
  <flow id="JF419858" begin="240" fromJunction="J4" toJunction="J0" end="300" vehsPerHour="235.709853054997" departLane="free"/>
  <flow id="JF419859" begin="240" fromJunction="J4" toJunction="J3" end="300" vehsPerHour="2.9839527094885803" departLane="free"/>
  <flow id="JF419860" begin="240" fromJunction="J4" toJunction="J5" end="300" vehsPerHour="49.371901961383244" departLane="free"/>
  <flow id="JF419861" begin="240" fromJunction="J4" toJunction="J6" end="300" vehsPerHour="160.30486185368306" departLane="free"/>
  <flow id="JF419862" begin="240" fromJunction="J4" toJunction="J7" end="300" vehsPerHour="263.3198476302228" departLane="free"/>
  <flow id="JF419863" begin="240" fromJunction="J5" toJunction="J0" end="300" vehsPerHour="133.57999090495363" departLane="free"/>
  <flow id="JF419864" begin="240" fromJunction="J5" toJunction="J3" end="300" vehsPerHour="158.67504263362147" departLane="free"/>
  <flow id="JF419865" begin="240" fromJunction="J5" toJunction="J4" end="300" vehsPerHour="236.15638928909846" departLane="free"/>
  <flow id="JF419866" begin="240" fromJunction="J5" toJunction="J6" end="300" vehsPerHour="271.51670339385834" departLane="free"/>
  <flow id="JF419867" begin="240" fromJunction="J5" toJunction="J7" end="300" vehsPerHour="206.36506256094145" departLane="free"/>
  <flow id="JF419868" begin="240" fromJunction="J6" toJunction="J4" end="300" vehsPerHour="84.54451897689442" departLane="free"/>
  <flow id="JF419869" begin="240" fromJunction="J6" toJunction="J5" end="300" vehsPerHour="247.86170363995706" departLane="free"/>
  <flow id="JF419870" begin="240" fromJunction="J6" toJunction="J7" end="300" vehsPerHour="268.2776867769608" departLane="free"/>
  <flow id="JF419871" begin="240" fromJunction="J7" toJunction="J0" end="300" vehsPerHour="223.6192828650722" departLane="free"/>
  <flow id="JF419872" begin="240" fromJunction="J7" toJunction="J3" end="300" vehsPerHour="230.80419253001696" departLane="free"/>
  <flow id="JF419873" begin="240" fromJunction="J7" toJunction="J4" end="300" vehsPerHour="72.5648974307656" departLane="free"/>
  <flow id="JF419874" begin="240" fromJunction="J7" toJunction="J5" end="300" vehsPerHour="35.28691631617967" departLane="free"/>
  <flow id="JF419875" begin="240" fromJunction="J7" toJunction="J6" end="300" vehsPerHour="74.23537063024428" departLane="free"/>
  <flow id="JF419876" begin="300" fromJunction="J0" toJunction="J4" end="360" vehsPerHour="361.54449077470986" departLane="free"/>
  <flow id="JF419877" begin="300" fromJunction="J0" toJunction="J5" end="360" vehsPerHour="85.9614562974991" departLane="free"/>
  <flow id="JF419878" begin="300" fromJunction="J0" toJunction="J6" end="360" vehsPerHour="81.62199056301243" departLane="free"/>
  <flow id="JF419879" begin="300" fromJunction="J0" toJunction="J7" end="360" vehsPerHour="430.78667279904244" departLane="free"/>
  <flow id="JF419880" begin="300" fromJunction="J3" toJunction="J0" end="360" vehsPerHour="300.79117822839675" departLane="free"/>
  <flow id="JF419881" begin="300" fromJunction="J3" toJunction="J4" end="360" vehsPerHour="38.22382715370632" departLane="free"/>
  <flow id="JF419882" begin="300" fromJunction="J3" toJunction="J5" end="360" vehsPerHour="26.510369956584594" departLane="free"/>
  <flow id="JF419883" begin="300" fromJunction="J3" toJunction="J6" end="360" vehsPerHour="81.33707499834182" departLane="free"/>
  <flow id="JF419884" begin="300" fromJunction="J3" toJunction="J7" end="360" vehsPerHour="396.96136515360485" departLane="free"/>
  <flow id="JF419885" begin="300" fromJunction="J4" toJunction="J0" end="360" vehsPerHour="53.10195504502846" departLane="free"/>
  <flow id="JF419886" begin="300" fromJunction="J4" toJunction="J3" end="360" vehsPerHour="115.91860747433464" departLane="free"/>
  <flow id="JF419887" begin="300" fromJunction="J4" toJunction="J5" end="360" vehsPerHour="53.83203325581533" departLane="free"/>
  <flow id="JF419888" begin="300" fromJunction="J4" toJunction="J6" end="360" vehsPerHour="65.17010482167105" departLane="free"/>
  <flow id="JF419889" begin="300" fromJunction="J5" toJunction="J0" end="360" vehsPerHour="188.2985917533829" departLane="free"/>
  <flow id="JF419890" begin="300" fromJunction="J5" toJunction="J6" end="360" vehsPerHour="272.4251987578729" departLane="free"/>
  <flow id="JF419891" begin="300" fromJunction="J6" toJunction="J0" end="360" vehsPerHour="31.548839794658015" departLane="free"/>
  <flow id="JF419892" begin="300" fromJunction="J6" toJunction="J3" end="360" vehsPerHour="265.96126595579915" departLane="free"/>
  <flow id="JF419893" begin="300" fromJunction="J6" toJunction="J4" end="360" vehsPerHour="84.77038735642707" departLane="free"/>
  <flow id="JF419894" begin="300" fromJunction="J7" toJunction="J0" end="360" vehsPerHour="248.5862002953757" departLane="free"/>
  <flow id="JF419895" begin="300" fromJunction="J7" toJunction="J5" end="360" vehsPerHour="156.7164194786209" departLane="free"/>
  <flow id="JF419896" begin="300" fromJunction="J7" toJunction="J6" end="360" vehsPerHour="220.0443650925417" departLane="free"/>
  <flow id="JF419897" begin="360" fromJunction="J0" toJunction="J4" end="420" vehsPerHour="332.9798936609082" departLane="free"/>
  <flow id="JF419898" begin="360" fromJunction="J0" toJunction="J5" end="420" vehsPerHour="91.56875186799996" departLane="free"/>
  <flow id="JF419899" begin="360" fromJunction="J0" toJunction="J6" end="420" vehsPerHour="65.57217046731809" departLane="free"/>
  <flow id="JF419900" begin="360" fromJunction="J0" toJunction="J7" end="420" vehsPerHour="290.7725743130592" departLane="free"/>
  <flow id="JF419901" begin="360" fromJunction="J3" toJunction="J4" end="420" vehsPerHour="474.5794389857185" departLane="free"/>
  <flow id="JF419902" begin="360" fromJunction="J3" toJunction="J5" end="420" vehsPerHour="153.1797196111812" departLane="free"/>
  <flow id="JF419903" begin="360" fromJunction="J3" toJunction="J6" end="420" vehsPerHour="203.73333205375104" departLane="free"/>
  <flow id="JF419904" begin="360" fromJunction="J4" toJunction="J0" end="420" vehsPerHour="115.5931329423053" departLane="free"/>
  <flow id="JF419905" begin="360" fromJunction="J4" toJunction="J3" end="420" vehsPerHour="262.88158965498496" departLane="free"/>
  <flow id="JF419906" begin="360" fromJunction="J4" toJunction="J7" end="420" vehsPerHour="84.17934515819283" departLane="free"/>
  <flow id="JF419907" begin="360" fromJunction="J5" toJunction="J0" end="420" vehsPerHour="241.80305206787529" departLane="free"/>
  <flow id="JF419908" begin="360" fromJunction="J5" toJunction="J3" end="420" vehsPerHour="254.4124916551502" departLane="free"/>
  <flow id="JF419909" begin="360" fromJunction="J5" toJunction="J6" end="420" vehsPerHour="188.27895132541076" departLane="free"/>
  <flow id="JF419910" begin="360" fromJunction="J5" toJunction="J7" end="420" vehsPerHour="29.606839593347964" departLane="free"/>
  <flow id="JF419911" begin="360" fromJunction="J6" toJunction="J3" end="420" vehsPerHour="215.75020454361842" departLane="free"/>
  <flow id="JF419912" begin="360" fromJunction="J7" toJunction="J4" end="420" vehsPerHour="31.975261675533183" departLane="free"/>
  <flow id="JF419913" begin="360" fromJunction="J7" toJunction="J5" end="420" vehsPerHour="126.13629290034665" departLane="free"/>
  <flow id="JF419914" begin="360" fromJunction="J7" toJunction="J6" end="420" vehsPerHour="105.19489025912222" departLane="free"/>
  <flow id="JF419915" begin="420" fromJunction="J0" toJunction="J3" end="480" vehsPerHour="153.50951058907856" departLane="free"/>
  <flow id="JF419916" begin="420" fromJunction="J0" toJunction="J6" end="480" vehsPerHour="163.05085950041382" departLane="free"/>
  <flow id="JF419917" begin="420" fromJunction="J0" toJunction="J7" end="480" vehsPerHour="283.2459913740822" departLane="free"/>
  <flow id="JF419918" begin="420" fromJunction="J3" toJunction="J0" end="480" vehsPerHour="409.0056456540149" departLane="free"/>
  <flow id="JF419919" begin="420" fromJunction="J3" toJunction="J5" end="480" vehsPerHour="395.9881513995735" departLane="free"/>
  <flow id="JF419920" begin="420" fromJunction="J3" toJunction="J7" end="480" vehsPerHour="112.40604479344753" departLane="free"/>
  <flow id="JF419921" begin="420" fromJunction="J4" toJunction="J3" end="480" vehsPerHour="65.59368276770302" departLane="free"/>
  <flow id="JF419922" begin="420" fromJunction="J4" toJunction="J5" end="480" vehsPerHour="113.6250326978956" departLane="free"/>
  <flow id="JF419923" begin="420" fromJunction="J4" toJunction="J6" end="480" vehsPerHour="176.3339802079175" departLane="free"/>
  <flow id="JF419924" begin="420" fromJunction="J5" toJunction="J0" end="480" vehsPerHour="127.0466925759537" departLane="free"/>
  <flow id="JF419925" begin="420" fromJunction="J5" toJunction="J3" end="480" vehsPerHour="219.47930727201995" departLane="free"/>
  <flow id="JF419926" begin="420" fromJunction="J5" toJunction="J6" end="480" vehsPerHour="197.9792163449717" departLane="free"/>
  <flow id="JF419927" begin="420" fromJunction="J5" toJunction="J7" end="480" vehsPerHour="219.55164542288992" departLane="free"/>
  <flow id="JF419928" begin="420" fromJunction="J6" toJunction="J3" end="480" vehsPerHour="2.844981804583675" departLane="free"/>
  <flow id="JF419929" begin="420" fromJunction="J6" toJunction="J4" end="480" vehsPerHour="15.163825391060398" departLane="free"/>
  <flow id="JF419930" begin="420" fromJunction="J6" toJunction="J7" end="480" vehsPerHour="47.85608745001131" departLane="free"/>
  <flow id="JF419931" begin="420" fromJunction="J7" toJunction="J0" end="480" vehsPerHour="115.41368941462203" departLane="free"/>
  <flow id="JF419932" begin="420" fromJunction="J7" toJunction="J3" end="480" vehsPerHour="156.1148767398275" departLane="free"/>
  <flow id="JF419933" begin="420" fromJunction="J7" toJunction="J5" end="480" vehsPerHour="211.91346350419258" departLane="free"/>
  <flow id="JF419934" begin="420" fromJunction="J7" toJunction="J6" end="480" vehsPerHour="62.22042343532866" departLane="free"/>
  <flow id="JF419935" begin="480" fromJunction="J0" toJunction="J3" end="540" vehsPerHour="148.2033902852556" departLane="free"/>
  <flow id="JF419936" begin="480" fromJunction="J0" toJunction="J5" end="540" vehsPerHour="71.68468891221623" departLane="free"/>
  <flow id="JF419937" begin="480" fromJunction="J0" toJunction="J6" end="540" vehsPerHour="402.484771034602" departLane="free"/>
  <flow id="JF419938" begin="480" fromJunction="J0" toJunction="J7" end="540" vehsPerHour="112.16845958143064" departLane="free"/>
  <flow id="JF419939" begin="480" fromJunction="J3" toJunction="J0" end="540" vehsPerHour="300.2493148197704" departLane="free"/>
  <flow id="JF419940" begin="480" fromJunction="J3" toJunction="J5" end="540" vehsPerHour="243.95996705511635" departLane="free"/>
  <flow id="JF419941" begin="480" fromJunction="J3" toJunction="J6" end="540" vehsPerHour="435.37631160333154" departLane="free"/>
  <flow id="JF419942" begin="480" fromJunction="J3" toJunction="J7" end="540" vehsPerHour="423.5285547265696" departLane="free"/>
  <flow id="JF419943" begin="480" fromJunction="J4" toJunction="J5" end="540" vehsPerHour="241.79091729239065" departLane="free"/>
  <flow id="JF419944" begin="480" fromJunction="J4" toJunction="J6" end="540" vehsPerHour="142.1662715738676" departLane="free"/>
  <flow id="JF419945" begin="480" fromJunction="J4" toJunction="J7" end="540" vehsPerHour="120.88562326541793" departLane="free"/>
  <flow id="JF419946" begin="480" fromJunction="J5" toJunction="J0" end="540" vehsPerHour="219.2250835385955" departLane="free"/>
  <flow id="JF419947" begin="480" fromJunction="J5" toJunction="J3" end="540" vehsPerHour="199.8693890479432" departLane="free"/>
  <flow id="JF419948" begin="480" fromJunction="J5" toJunction="J4" end="540" vehsPerHour="74.91637355878063" departLane="free"/>
  <flow id="JF419949" begin="480" fromJunction="J5" toJunction="J6" end="540" vehsPerHour="94.20687762018014" departLane="free"/>
  <flow id="JF419950" begin="480" fromJunction="J5" toJunction="J7" end="540" vehsPerHour="237.93936948568313" departLane="free"/>
  <flow id="JF419951" begin="480" fromJunction="J6" toJunction="J0" end="540" vehsPerHour="274.61517085597575" departLane="free"/>
  <flow id="JF419952" begin="480" fromJunction="J6" toJunction="J3" end="540" vehsPerHour="165.73052508145045" departLane="free"/>
  <flow id="JF419953" begin="480" fromJunction="J6" toJunction="J4" end="540" vehsPerHour="40.55372054405877" departLane="free"/>
  <flow id="JF419954" begin="480" fromJunction="J7" toJunction="J0" end="540" vehsPerHour="190.09298109947193" departLane="free"/>
  <flow id="JF419955" begin="480" fromJunction="J7" toJunction="J4" end="540" vehsPerHour="82.63141825342528" departLane="free"/>
  <flow id="JF419956" begin="540" fromJunction="J0" toJunction="J4" end="600" vehsPerHour="70.82659792228647" departLane="free"/>
  <flow id="JF419957" begin="540" fromJunction="J0" toJunction="J5" end="600" vehsPerHour="335.3657229416124" departLane="free"/>
  <flow id="JF419958" begin="540" fromJunction="J0" toJunction="J6" end="600" vehsPerHour="243.84894055390214" departLane="free"/>
  <flow id="JF419959" begin="540" fromJunction="J0" toJunction="J7" end="600" vehsPerHour="328.0120073671506" departLane="free"/>
  <flow id="JF419960" begin="540" fromJunction="J3" toJunction="J0" end="600" vehsPerHour="9.055415034646938" departLane="free"/>
  <flow id="JF419961" begin="540" fromJunction="J3" toJunction="J4" end="600" vehsPerHour="435.2557522164466" departLane="free"/>
  <flow id="JF419962" begin="540" fromJunction="J3" toJunction="J5" end="600" vehsPerHour="289.45938490757015" departLane="free"/>
  <flow id="JF419963" begin="540" fromJunction="J3" toJunction="J6" end="600" vehsPerHour="124.9428141584592" departLane="free"/>
  <flow id="JF419964" begin="540" fromJunction="J4" toJunction="J0" end="600" vehsPerHour="227.9787154327489" departLane="free"/>
  <flow id="JF419965" begin="540" fromJunction="J4" toJunction="J3" end="600" vehsPerHour="32.02650519834519" departLane="free"/>
  <flow id="JF419966" begin="540" fromJunction="J4" toJunction="J5" end="600" vehsPerHour="169.54177917024893" departLane="free"/>
  <flow id="JF419967" begin="540" fromJunction="J4" toJunction="J7" end="600" vehsPerHour="267.26333261645806" departLane="free"/>
  <flow id="JF419968" begin="540" fromJunction="J5" toJunction="J3" end="600" vehsPerHour="178.76398641971684" departLane="free"/>
  <flow id="JF419969" begin="540" fromJunction="J5" toJunction="J7" end="600" vehsPerHour="86.92232226261336" departLane="free"/>
  <flow id="JF419970" begin="540" fromJunction="J6" toJunction="J0" end="600" vehsPerHour="147.38333611651157" departLane="free"/>
  <flow id="JF419971" begin="540" fromJunction="J6" toJunction="J3" end="600" vehsPerHour="84.50458366712053" departLane="free"/>
  <flow id="JF419972" begin="540" fromJunction="J6" toJunction="J4" end="600" vehsPerHour="79.73818836326853" departLane="free"/>
  <flow id="JF419973" begin="540" fromJunction="J7" toJunction="J0" end="600" vehsPerHour="58.0221501930357" departLane="free"/>
  <flow id="JF419974" begin="540" fromJunction="J7" toJunction="J3" end="600" vehsPerHour="87.16308533391457" departLane="free"/>
  <flow id="JF419975" begin="540" fromJunction="J7" toJunction="J4" end="600" vehsPerHour="9.453380253547843" departLane="free"/>
  <flow id="JF419976" begin="600" fromJunction="J0" toJunction="J3" end="660" vehsPerHour="441.6342295660309" departLane="free"/>
  <flow id="JF419977" begin="600" fromJunction="J0" toJunction="J4" end="660" vehsPerHour="390.662157478571" departLane="free"/>
  <flow id="JF419978" begin="600" fromJunction="J0" toJunction="J5" end="660" vehsPerHour="300.3250657272013" departLane="free"/>
  <flow id="JF419979" begin="600" fromJunction="J0" toJunction="J6" end="660" vehsPerHour="513.573093006001" departLane="free"/>
  <flow id="JF419980" begin="600" fromJunction="J3" toJunction="J0" end="660" vehsPerHour="404.82148226744346" departLane="free"/>
  <flow id="JF419981" begin="600" fromJunction="J3" toJunction="J6" end="660" vehsPerHour="521.0805247815588" departLane="free"/>
  <flow id="JF419982" begin="600" fromJunction="J3" toJunction="J7" end="660" vehsPerHour="277.9349103182631" departLane="free"/>
  <flow id="JF419983" begin="600" fromJunction="J4" toJunction="J3" end="660" vehsPerHour="189.64320055170114" departLane="free"/>
  <flow id="JF419984" begin="600" fromJunction="J4" toJunction="J5" end="660" vehsPerHour="81.59492912177166" departLane="free"/>
  <flow id="JF419985" begin="600" fromJunction="J4" toJunction="J6" end="660" vehsPerHour="121.81711997812035" departLane="free"/>
  <flow id="JF419986" begin="600" fromJunction="J4" toJunction="J7" end="660" vehsPerHour="179.25379238286587" departLane="free"/>
  <flow id="JF419987" begin="600" fromJunction="J5" toJunction="J0" end="660" vehsPerHour="266.06769182521623" departLane="free"/>
  <flow id="JF419988" begin="600" fromJunction="J5" toJunction="J4" end="660" vehsPerHour="252.1387574815208" departLane="free"/>
  <flow id="JF419989" begin="600" fromJunction="J5" toJunction="J7" end="660" vehsPerHour="50.853263465877596" departLane="free"/>
  <flow id="JF419990" begin="600" fromJunction="J6" toJunction="J0" end="660" vehsPerHour="66.15627727504956" departLane="free"/>
  <flow id="JF419991" begin="600" fromJunction="J6" toJunction="J3" end="660" vehsPerHour="243.12062354855146" departLane="free"/>
  <flow id="JF419992" begin="600" fromJunction="J7" toJunction="J0" end="660" vehsPerHour="123.80388443874153" departLane="free"/>
  <flow id="JF419993" begin="600" fromJunction="J7" toJunction="J4" end="660" vehsPerHour="18.89525932535185" departLane="free"/>
  <flow id="JF419994" begin="600" fromJunction="J7" toJunction="J5" end="660" vehsPerHour="261.55867593533463" departLane="free"/>
  <flow id="JF419995" begin="660" fromJunction="J0" toJunction="J3" end="720" vehsPerHour="466.3641746697121" departLane="free"/>
  <flow id="JF419996" begin="660" fromJunction="J0" toJunction="J5" end="720" vehsPerHour="480.6415063271205" departLane="free"/>
  <flow id="JF419997" begin="660" fromJunction="J0" toJunction="J6" end="720" vehsPerHour="144.48571270822612" departLane="free"/>
  <flow id="JF419998" begin="660" fromJunction="J0" toJunction="J7" end="720" vehsPerHour="533.8628427773945" departLane="free"/>