<?xml version="1.0" encoding="UTF-8"?>
<routes xmlns:xsi="http://www.w3.org/2001/XMLSchema-instance" xsi:noNamespaceSchemaLocation="http://sumo.dlr.de/xsd/routes_file.xsd">
  <flow id="JF421606" begin="0" fromJunction="J0" toJunction="J5" end="60" vehsPerHour="122.5653211186731" departLane="free"/>
  <flow id="JF421607" begin="0" fromJunction="J3" toJunction="J0" end="60" vehsPerHour="199.67260578676925" departLane="free"/>
  <flow id="JF421608" begin="0" fromJunction="J3" toJunction="J4" end="60" vehsPerHour="74.9633880743813" departLane="free"/>
  <flow id="JF421609" begin="0" fromJunction="J3" toJunction="J5" end="60" vehsPerHour="193.01345625876354" departLane="free"/>
  <flow id="JF421610" begin="0" fromJunction="J3" toJunction="J6" end="60" vehsPerHour="301.5578483936641" departLane="free"/>
  <flow id="JF421611" begin="0" fromJunction="J4" toJunction="J0" end="60" vehsPerHour="122.21372088825524" departLane="free"/>
  <flow id="JF421612" begin="0" fromJunction="J4" toJunction="J3" end="60" vehsPerHour="2.039209460483404" departLane="free"/>
  <flow id="JF421613" begin="0" fromJunction="J4" toJunction="J5" end="60" vehsPerHour="156.94315874765553" departLane="free"/>
  <flow id="JF421614" begin="0" fromJunction="J4" toJunction="J6" end="60" vehsPerHour="249.40104719236203" departLane="free"/>
  <flow id="JF421615" begin="0" fromJunction="J5" toJunction="J3" end="60" vehsPerHour="51.51247755208519" departLane="free"/>
  <flow id="JF421616" begin="0" fromJunction="J5" toJunction="J7" end="60" vehsPerHour="87.39165923571096" departLane="free"/>
  <flow id="JF421617" begin="0" fromJunction="J6" toJunction="J0" end="60" vehsPerHour="84.92334678880134" departLane="free"/>
  <flow id="JF421618" begin="0" fromJunction="J6" toJunction="J3" end="60" vehsPerHour="39.618311395483" departLane="free"/>
  <flow id="JF421619" begin="0" fromJunction="J6" toJunction="J4" end="60" vehsPerHour="46.88411665616382" departLane="free"/>
  <flow id="JF421620" begin="0" fromJunction="J6" toJunction="J5" end="60" vehsPerHour="190.6559195823373" departLane="free"/>
  <flow id="JF421621" begin="0" fromJunction="J7" toJunction="J0" end="60" vehsPerHour="271.2072962342205" departLane="free"/>
  <flow id="JF421622" begin="0" fromJunction="J7" toJunction="J4" end="60" vehsPerHour="131.4089275231461" departLane="free"/>
  <flow id="JF421623" begin="0" fromJunction="J7" toJunction="J6" end="60" vehsPerHour="141.10745187550725" departLane="free"/>
  <flow id="JF421624" begin="60" fromJunction="J0" toJunction="J3" end="120" vehsPerHour="150.59218124716602" departLane="free"/>
  <flow id="JF421625" begin="60" fromJunction="J0" toJunction="J5" end="120" vehsPerHour="8.579800828312228" departLane="free"/>
  <flow id="JF421626" begin="60" fromJunction="J3" toJunction="J0" end="120" vehsPerHour="16.79151137531621" departLane="free"/>
  <flow id="JF421627" begin="60" fromJunction="J3" toJunction="J5" end="120" vehsPerHour="68.13487711159401" departLane="free"/>
  <flow id="JF421628" begin="60" fromJunction="J3" toJunction="J6" end="120" vehsPerHour="179.1605513943048" departLane="free"/>
  <flow id="JF421629" begin="60" fromJunction="J3" toJunction="J7" end="120" vehsPerHour="466.0719866061479" departLane="free"/>
  <flow id="JF421630" begin="60" fromJunction="J4" toJunction="J6" end="120" vehsPerHour="63.64438639200499" departLane="free"/>
  <flow id="JF421631" begin="60" fromJunction="J4" toJunction="J7" end="120" vehsPerHour="260.5789668320697" departLane="free"/>
  <flow id="JF421632" begin="60" fromJunction="J5" toJunction="J3" end="120" vehsPerHour="190.31787250626243" departLane="free"/>
  <flow id="JF421633" begin="60" fromJunction="J5" toJunction="J4" end="120" vehsPerHour="192.05701270008086" departLane="free"/>
  <flow id="JF421634" begin="60" fromJunction="J5" toJunction="J6" end="120" vehsPerHour="116.8399378111654" departLane="free"/>
  <flow id="JF421635" begin="60" fromJunction="J6" toJunction="J0" end="120" vehsPerHour="212.02245602602974" departLane="free"/>
  <flow id="JF421636" begin="60" fromJunction="J6" toJunction="J4" end="120" vehsPerHour="180.4934559923104" departLane="free"/>
  <flow id="JF421637" begin="60" fromJunction="J6" toJunction="J7" end="120" vehsPerHour="69.47900229269125" departLane="free"/>
  <flow id="JF421638" begin="60" fromJunction="J7" toJunction="J0" end="120" vehsPerHour="247.25300254662181" departLane="free"/>
  <flow id="JF421639" begin="60" fromJunction="J7" toJunction="J3" end="120" vehsPerHour="197.90979456816277" departLane="free"/>
  <flow id="JF421640" begin="60" fromJunction="J7" toJunction="J4" end="120" vehsPerHour="51.46304951682535" departLane="free"/>
  <flow id="JF421641" begin="60" fromJunction="J7" toJunction="J5" end="120" vehsPerHour="24.9644353489336" departLane="free"/>
  <flow id="JF421642" begin="60" fromJunction="J7" toJunction="J6" end="120" vehsPerHour="62.082467589537146" departLane="free"/>
  <flow id="JF421643" begin="120" fromJunction="J0" toJunction="J3" end="180" vehsPerHour="78.34391805909316" departLane="free"/>
  <flow id="JF421644" begin="120" fromJunction="J3" toJunction="J5" end="180" vehsPerHour="461.46581240350235" departLane="free"/>
  <flow id="JF421645" begin="120" fromJunction="J3" toJunction="J6" end="180" vehsPerHour="291.429639298189" departLane="free"/>
  <flow id="JF421646" begin="120" fromJunction="J3" toJunction="J7" end="180" vehsPerHour="547.9335425232777" departLane="free"/>
  <flow id="JF421647" begin="120" fromJunction="J4" toJunction="J5" end="180" vehsPerHour="235.16698059978745" departLane="free"/>
  <flow id="JF421648" begin="120" fromJunction="J4" toJunction="J6" end="180" vehsPerHour="136.44408667176103" departLane="free"/>
  <flow id="JF421649" begin="120" fromJunction="J5" toJunction="J0" end="180" vehsPerHour="259.607266367828" departLane="free"/>
  <flow id="JF421650" begin="120" fromJunction="J5" toJunction="J4" end="180" vehsPerHour="193.29111009284608" departLane="free"/>
  <flow id="JF421651" begin="120" fromJunction="J5" toJunction="J6" end="180" vehsPerHour="7.408503903780812" departLane="free"/>
  <flow id="JF421652" begin="120" fromJunction="J5" toJunction="J7" end="180" vehsPerHour="170.19889875713739" departLane="free"/>
  <flow id="JF421653" begin="120" fromJunction="J6" toJunction="J4" end="180" vehsPerHour="141.94146294911508" departLane="free"/>
  <flow id="JF421654" begin="120" fromJunction="J6" toJunction="J5" end="180" vehsPerHour="204.1389995064017" departLane="free"/>
  <flow id="JF421655" begin="120" fromJunction="J6" toJunction="J7" end="180" vehsPerHour="236.5274924091742" departLane="free"/>
  <flow id="JF421656" begin="120" fromJunction="J7" toJunction="J0" end="180" vehsPerHour="223.88078281731867" departLane="free"/>
  <flow id="JF421657" begin="120" fromJunction="J7" toJunction="J4" end="180" vehsPerHour="198.59045889713914" departLane="free"/>
  <flow id="JF421658" begin="120" fromJunction="J7" toJunction="J6" end="180" vehsPerHour="8.621464200674493" departLane="free"/>
  <flow id="JF421659" begin="180" fromJunction="J0" toJunction="J4" end="240" vehsPerHour="189.99172089810563" departLane="free"/>
  <flow id="JF421660" begin="180" fromJunction="J0" toJunction="J5" end="240" vehsPerHour="472.43928917489967" departLane="free"/>
  <flow id="JF421661" begin="180" fromJunction="J0" toJunction="J6" end="240" vehsPerHour="229.69676438166672" departLane="free"/>
  <flow id="JF421662" begin="180" fromJunction="J3" toJunction="J0" end="240" vehsPerHour="530.269237999249" departLane="free"/>
  <flow id="JF421663" begin="180" fromJunction="J3" toJunction="J4" end="240" vehsPerHour="165.20121303962844" departLane="free"/>
  <flow id="JF421664" begin="180" fromJunction="J3" toJunction="J5" end="240" vehsPerHour="450.90645816112254" departLane="free"/>
  <flow id="JF421665" begin="180" fromJunction="J3" toJunction="J6" end="240" vehsPerHour="311.92380258232345" departLane="free"/>
  <flow id="JF421666" begin="180" fromJunction="J3" toJunction="J7" end="240" vehsPerHour="30.192405969621433" departLane="free"/>
  <flow id="JF421667" begin="180" fromJunction="J4" toJunction="J3" end="240" vehsPerHour="15.724871820775423" departLane="free"/>
  <flow id="JF421668" begin="180" fromJunction="J4" toJunction="J6" end="240" vehsPerHour="85.2532410571961" departLane="free"/>
  <flow id="JF421669" begin="180" fromJunction="J5" toJunction="J0" end="240" vehsPerHour="218.6291068848661" departLane="free"/>
  <flow id="JF421670" begin="180" fromJunction="J5" toJunction="J4" end="240" vehsPerHour="40.98600267732474" departLane="free"/>
  <flow id="JF421671" begin="180" fromJunction="J5" toJunction="J6" end="240" vehsPerHour="46.567558715643266" departLane="free"/>
  <flow id="JF421672" begin="180" fromJunction="J5" toJunction="J7" end="240" vehsPerHour="242.87011957282135" departLane="free"/>
  <flow id="JF421673" begin="180" fromJunction="J6" toJunction="J0" end="240" vehsPerHour="65.76277653909011" departLane="free"/>
  <flow id="JF421674" begin="180" fromJunction="J6" toJunction="J3" end="240" vehsPerHour="227.27180165723783" departLane="free"/>
  <flow id="JF421675" begin="180" fromJunction="J6" toJunction="J4" end="240" vehsPerHour="241.51756103118166" departLane="free"/>
  <flow id="JF421676" begin="180" fromJunction="J6" toJunction="J5" end="240" vehsPerHour="237.67153299043707" departLane="free"/>
  <flow id="JF421677" begin="180" fromJunction="J6" toJunction="J7" end="240" vehsPerHour="70.24151435177093" departLane="free"/>
  <flow id="JF421678" begin="180" fromJunction="J7" toJunction="J0" end="240" vehsPerHour="158.1406738502737" departLane="free"/>
  <flow id="JF421679" begin="180" fromJunction="J7" toJunction="J3" end="240" vehsPerHour="29.225711306643827" departLane="free"/>
  <flow id="JF421680" begin="180" fromJunction="J7" toJunction="J4" end="240" vehsPerHour="100.00208797731851" departLane="free"/>
  <flow id="JF421681" begin="240" fromJunction="J0" toJunction="J3" end="300" vehsPerHour="470.1199999528404" departLane="free"/>
  <flow id="JF421682" begin="240" fromJunction="J0" toJunction="J5" end="300" vehsPerHour="54.1155419572062" departLane="free"/>
  <flow id="JF421683" begin="240" fromJunction="J0" toJunction="J6" end="300" vehsPerHour="229.42876044406702" departLane="free"/>
  <flow id="JF421684" begin="240" fromJunction="J0" toJunction="J7" end="300" vehsPerHour="497.9764407422862" departLane="free"/>
  <flow id="JF421685" begin="240" fromJunction="J3" toJunction="J0" end="300" vehsPerHour="78.5125322941177" departLane="free"/>
  <flow id="JF421686" begin="240" fromJunction="J3" toJunction="J4" end="300" vehsPerHour="179.85985048139312" departLane="free"/>
  <flow id="JF421687" begin="240" fromJunction="J3" toJunction="J6" end="300" vehsPerHour="504.7683109606139" departLane="free"/>
  <flow id="JF421688" begin="240" fromJunction="J4" toJunction="J3" end="300" vehsPerHour="233.15098757095745" departLane="free"/>
  <flow id="JF421689" begin="240" fromJunction="J4" toJunction="J6" end="300" vehsPerHour="91.55749971505304" departLane="free"/>
  <flow id="JF421690" begin="240" fromJunction="J5" toJunction="J0" end="300" vehsPerHour="106.08185257677552" departLane="free"/>
  <flow id="JF421691" begin="240" fromJunction="J5" toJunction="J4" end="300" vehsPerHour="168.75370890013943" departLane="free"/>
  <flow id="JF421692" begin="240" fromJunction="J5" toJunction="J6" end="300" vehsPerHour="270.8399603653412" departLane="free"/>
  <flow id="JF421693" begin="240" fromJunction="J5" toJunction="J7" end="300" vehsPerHour="251.2002612899093" departLane="free"/>
  <flow id="JF421694" begin="240" fromJunction="J6" toJunction="J3" end="300" vehsPerHour="143.90446200053782" departLane="free"/>
  <flow id="JF421695" begin="240" fromJunction="J6" toJunction="J4" end="300" vehsPerHour="21.09063645010854" departLane="free"/>
  <flow id="JF421696" begin="240" fromJunction="J6" toJunction="J5" end="300" vehsPerHour="144.00200076854875" departLane="free"/>
  <flow id="JF421697" begin="240" fromJunction="J6" toJunction="J7" end="300" vehsPerHour="268.726253453425" departLane="free"/>
  <flow id="JF421698" begin="240" fromJunction="J7" toJunction="J0" end="300" vehsPerHour="94.83192097788263" departLane="free"/>
  <flow id="JF421699" begin="240" fromJunction="J7" toJunction="J3" end="300" vehsPerHour="49.7036516054636" departLane="free"/>
  <flow id="JF421700" begin="240" fromJunction="J7" toJunction="J5" end="300" vehsPerHour="232.69024602133788" departLane="free"/>
  <flow id="JF421701" begin="240" fromJunction="J7" toJunction="J6" end="300" vehsPerHour="5.130684367730966" departLane="free"/>
  <flow id="JF421702" begin="300" fromJunction="J0" toJunction="J3" end="360" vehsPerHour="491.66455444317097" departLane="free"/>
  <flow id="JF421703" begin="300" fromJunction="J0" toJunction="J4" end="360" vehsPerHour="366.7752896415037" departLane="free"/>
  <flow id="JF421704" begin="300" fromJunction="J0" toJunction="J7" end="360" vehsPerHour="11.009015463339447" departLane="free"/>
  <flow id="JF421705" begin="300" fromJunction="J3" toJunction="J0" end="360" vehsPerHour="110.7756562283655" departLane="free"/>
  <flow id="JF421706" begin="300" fromJunction="J3" toJunction="J4" end="360" vehsPerHour="256.0907918668849" departLane="free"/>
  <flow id="JF421707" begin="300" fromJunction="J3" toJunction="J5" end="360" vehsPerHour="87.05814786315862" departLane="free"/>
  <flow id="JF421708" begin="300" fromJunction="J3" toJunction="J6" end="360" vehsPerHour="373.61341815250097" departLane="free"/>
  <flow id="JF421709" begin="300" fromJunction="J4" toJunction="J0" end="360" vehsPerHour="5.6530350835480885" departLane="free"/>
  <flow id="JF421710" begin="300" fromJunction="J4" toJunction="J3" end="360" vehsPerHour="125.92030273484986" departLane="free"/>
  <flow id="JF421711" begin="300" fromJunction="J4" toJunction="J5" end="360" vehsPerHour="266.890026125566" departLane="free"/>
  <flow id="JF421712" begin="300" fromJunction="J4" toJunction="J6" end="360" vehsPerHour="192.14792281962593" departLane="free"/>
  <flow id="JF421713" begin="300" fromJunction="J5" toJunction="J0" end="360" vehsPerHour="236.3574434585415" departLane="free"/>
  <flow id="JF421714" begin="300" fromJunction="J5" toJunction="J6" end="360" vehsPerHour="62.802759912568895" departLane="free"/>
  <flow id="JF421715" begin="300" fromJunction="J5" toJunction="J7" end="360" vehsPerHour="33.73939899394508" departLane="free"/>
  <flow id="JF421716" begin="300" fromJunction="J6" toJunction="J0" end="360" vehsPerHour="155.11902334708097" departLane="free"/>
  <flow id="JF421717" begin="300" fromJunction="J6" toJunction="J3" end="360" vehsPerHour="239.6218766037275" departLane="free"/>
  <flow id="JF421718" begin="300" fromJunction="J6" toJunction="J4" end="360" vehsPerHour="27.978846363827284" departLane="free"/>
  <flow id="JF421719" begin="300" fromJunction="J6" toJunction="J5" end="360" vehsPerHour="262.3039179415237" departLane="free"/>
  <flow id="JF421720" begin="300" fromJunction="J6" toJunction="J7" end="360" vehsPerHour="102.81552104341402" departLane="free"/>
  <flow id="JF421721" begin="300" fromJunction="J7" toJunction="J3" end="360" vehsPerHour="88.78887296420584" departLane="free"/>
  <flow id="JF421722" begin="300" fromJunction="J7" toJunction="J4" end="360" vehsPerHour="190.47740857173423" departLane="free"/>
  <flow id="JF421723" begin="300" fromJunction="J7" toJunction="J5" end="360" vehsPerHour="77.5727272725563" departLane="free"/>
  <flow id="JF421724" begin="300" fromJunction="J7" toJunction="J6" end="360" vehsPerHour="32.29736457740557" departLane="free"/>
  <flow id="JF421725" begin="360" fromJunction="J0" toJunction="J3" end="420" vehsPerHour="505.683882973552" departLane="free"/>
  <flow id="JF421726" begin="360" fromJunction="J0" toJunction="J4" end="420" vehsPerHour="398.60699791324635" departLane="free"/>
  <flow id="JF421727" begin="360" fromJunction="J0" toJunction="J7" end="420" vehsPerHour="219.840469198678" departLane="free"/>
  <flow id="JF421728" begin="360" fromJunction="J3" toJunction="J4" end="420" vehsPerHour="397.0989320345843" departLane="free"/>
  <flow id="JF421729" begin="360" fromJunction="J3" toJunction="J5" end="420" vehsPerHour="25.75815303578815" departLane="free"/>
  <flow id="JF421730" begin="360" fromJunction="J3" toJunction="J6" end="420" vehsPerHour="124.04550062891948" departLane="free"/>
  <flow id="JF421731" begin="360" fromJunction="J3" toJunction="J7" end="420" vehsPerHour="451.7548435689542" departLane="free"/>
  <flow id="JF421732" begin="360" fromJunction="J4" toJunction="J0" end="420" vehsPerHour="63.149000677595154" departLane="free"/>
  <flow id="JF421733" begin="360" fromJunction="J4" toJunction="J3" end="420" vehsPerHour="0.7790635390294024" departLane="free"/>
  <flow id="JF421734" begin="360" fromJunction="J4" toJunction="J7" end="420" vehsPerHour="72.2711884295821" departLane="free"/>
  <flow id="JF421735" begin="360" fromJunction="J5" toJunction="J0" end="420" vehsPerHour="154.81778557978572" departLane="free"/>
  <flow id="JF421736" begin="360" fromJunction="J5" toJunction="J3" end="420" vehsPerHour="72.53162865758877" departLane="free"/>
  <flow id="JF421737" begin="360" fromJunction="J5" toJunction="J4" end="420" vehsPerHour="226.86760179787495" departLane="free"/>
  <flow id="JF421738" begin="360" fromJunction="J5" toJunction="J6" end="420" vehsPerHour="274.01184815486545" departLane="free"/>
  <flow id="JF421739" begin="360" fromJunction="J5" toJunction="J7" end="420" vehsPerHour="124.42191656525075" departLane="free"/>
  <flow id="JF421740" begin="360" fromJunction="J6" toJunction="J0" end="420" vehsPerHour="140.7937222865532" departLane="free"/>
  <flow id="JF421741" begin="360" fromJunction="J6" toJunction="J3" end="420" vehsPerHour="260.56524837710504" departLane="free"/>
  <flow id="JF421742" begin="360" fromJunction="J6" toJunction="J5" end="420" vehsPerHour="235.97401724321782" departLane="free"/>
  <flow id="JF421743" begin="360" fromJunction="J6" toJunction="J7" end="420" vehsPerHour="138.20915547721182" departLane="free"/>
  <flow id="JF421744" begin="360" fromJunction="J7" toJunction="J0" end="420" vehsPerHour="239.0498160826166" departLane="free"/>
  <flow id="JF421745" begin="360" fromJunction="J7" toJunction="J3" end="420" vehsPerHour="155.3889199864641" departLane="free"/>
  <flow id="JF421746" begin="360" fromJunction="J7" toJunction="J4" end="420" vehsPerHour="245.2481538161901" departLane="free"/>
  <flow id="JF421747" begin="420" fromJunction="J0" toJunction="J3" end="480" vehsPerHour="313.16420870840614" departLane="free"/>
  <flow id="JF421748" begin="420" fromJunction="J0" toJunction="J4" end="480" vehsPerHour="427.89424276916685" departLane="free"/>
  <flow id="JF421749" begin="420" fromJunction="J0" toJunction="J5" end="480" vehsPerHour="414.3336965903931" departLane="free"/>
  <flow id="JF421750" begin="420" fromJunction="J3" toJunction="J4" end="480" vehsPerHour="292.08169301671353" departLane="free"/>
  <flow id="JF421751" begin="420" fromJunction="J3" toJunction="J5" end="480" vehsPerHour="245.62325128850648" departLane="free"/>
  <flow id="JF421752" begin="420" fromJunction="J3" toJunction="J6" end="480" vehsPerHour="167.0711686505538" departLane="free"/>
  <flow id="JF421753" begin="420" fromJunction="J3" toJunction="J7" end="480" vehsPerHour="30.93053020922621" departLane="free"/>
  <flow id="JF421754" begin="420" fromJunction="J4" toJunction="J3" end="480" vehsPerHour="84.59718924894182" departLane="free"/>
  <flow id="JF421755" begin="420" fromJunction="J4" toJunction="J5" end="480" vehsPerHour="122.19801994525938" departLane="free"/>
  <flow id="JF421756" begin="420" fromJunction="J4" toJunction="J6" end="480" vehsPerHour="255.46537618024587" departLane="free"/>
  <flow id="JF421757" begin="420" fromJunction="J4" toJunction="J7" end="480" vehsPerHour="130.0181415397492" departLane="free"/>
  <flow id="JF421758" begin="420" fromJunction="J5" toJunction="J0" end="480" vehsPerHour="49.028284269173646" departLane="free"/>
  <flow id="JF421759" begin="420" fromJunction="J5" toJunction="J3" end="480" vehsPerHour="142.53815055689265" departLane="free"/>
  <flow id="JF421760" begin="420" fromJunction="J5" toJunction="J7" end="480" vehsPerHour="15.567357507367612" departLane="free"/>
  <flow id="JF421761" begin="420" fromJunction="J6" toJunction="J3" end="480" vehsPerHour="53.35833805124603" departLane="free"/>
  <flow id="JF421762" begin="420" fromJunction="J6" toJunction="J5" end="480" vehsPerHour="214.93865295417973" departLane="free"/>
  <flow id="JF421763" begin="420" fromJunction="J6" toJunction="J7" end="480" vehsPerHour="109.64938552059834" departLane="free"/>
  <flow id="JF421764" begin="420" fromJunction="J7" toJunction="J0" end="480" vehsPerHour="163.4368043997277" departLane="free"/>
  <flow id="JF421765" begin="420" fromJunction="J7" toJunction="J3" end="480" vehsPerHour="214.36865134238738" departLane="free"/>
  <flow id="JF421766" begin="420" fromJunction="J7" toJunction="J4" end="480" vehsPerHour="145.62043623818792" departLane="free"/>
  <flow id="JF421767" begin="420" fromJunction="J7" toJunction="J5" end="480" vehsPerHour="203.0559667785116" departLane="free"/>
  <flow id="JF421768" begin="420" fromJunction="J7" toJunction="J6" end="480" vehsPerHour="210.96872002640183" departLane="free"/>
  <flow id="JF421769" begin="480" fromJunction="J0" toJunction="J4" end="540" vehsPerHour="216.69840315391318" departLane="free"/>
  <flow id="JF421770" begin="480" fromJunction="J0" toJunction="J5" end="540" vehsPerHour="299.78187813831204" departLane="free"/>
  <flow id="JF421771" begin="480" fromJunction="J0" toJunction="J6" end="540" vehsPerHour="220.75536668954058" departLane="free"/>
  <flow id="JF421772" begin="480" fromJunction="J3" toJunction="J5" end="540" vehsPerHour="380.9140932834545" departLane="free"/>
  <flow id="JF421773" begin="480" fromJunction="J4" toJunction="J0" end="540" vehsPerHour="231.76424302689298" departLane="free"/>
  <flow id="JF421774" begin="480" fromJunction="J4" toJunction="J5" end="540" vehsPerHour="48.240800828941346" departLane="free"/>
  <flow id="JF421775" begin="480" fromJunction="J4" toJunction="J6" end="540" vehsPerHour="141.92678466749575" departLane="free"/>
  <flow id="JF421776" begin="480" fromJunction="J4" toJunction="J7" end="540" vehsPerHour="2.2452847161077982" departLane="free"/>
  <flow id="JF421777" begin="480" fromJunction="J5" toJunction="J3" end="540" vehsPerHour="230.48284230969475" departLane="free"/>
  <flow id="JF421778" begin="480" fromJunction="J5" toJunction="J4" end="540" vehsPerHour="38.089344086712615" departLane="free"/>
  <flow id="JF421779" begin="480" fromJunction="J5" toJunction="J6" end="540" vehsPerHour="216.21034176280085" departLane="free"/>
  <flow id="JF421780" begin="480" fromJunction="J6" toJunction="J0" end="540" vehsPerHour="49.36006576559391" departLane="free"/>
  <flow id="JF421781" begin="480" fromJunction="J6" toJunction="J4" end="540" vehsPerHour="143.0799695438905" departLane="free"/>
  <flow id="JF421782" begin="480" fromJunction="J6" toJunction="J7" end="540" vehsPerHour="238.22446913763724" departLane="free"/>
  <flow id="JF421783" begin="480" fromJunction="J7" toJunction="J0" end="540" vehsPerHour="65.9739174810474" departLane="free"/>
  <flow id="JF421784" begin="480" fromJunction="J7" toJunction="J3" end="540" vehsPerHour="228.5418297914846" departLane="free"/>
  <flow id="JF421785" begin="480" fromJunction="J7" toJunction="J6" end="540" vehsPerHour="99.51002940585778" departLane="free"/>
  <flow id="JF421786" begin="540" fromJunction="J0" toJunction="J3" end="600" vehsPerHour="490.1176716160796" departLane="free"/>
  <flow id="JF421787" begin="540" fromJunction="J0" toJunction="J4" end="600" vehsPerHour="266.818195001387" departLane="free"/>
  <flow id="JF421788" begin="540" fromJunction="J0" toJunction="J6" end="600" vehsPerHour="332.436473559094" departLane="free"/>
  <flow id="JF421789" begin="540" fromJunction="J3" toJunction="J5" end="600" vehsPerHour="113.06458497571705" departLane="free"/>
  <flow id="JF421790" begin="540" fromJunction="J3" toJunction="J6" end="600" vehsPerHour="69.43808499307728" departLane="free"/>
  <flow id="JF421791" begin="540" fromJunction="J3" toJunction="J7" end="600" vehsPerHour="44.851717446107806" departLane="free"/>
  <flow id="JF421792" begin="540" fromJunction="J4" toJunction="J0" end="600" vehsPerHour="253.74238535629405" departLane="free"/>
  <flow id="JF421793" begin="540" fromJunction="J4" toJunction="J5" end="600" vehsPerHour="270.38530353782613" departLane="free"/>
  <flow id="JF421794" begin="540" fromJunction="J4" toJunction="J6" end="600" vehsPerHour="28.114673641312923" departLane="free"/>
  <flow id="JF421795" begin="540" fromJunction="J4" toJunction="J7" end="600" vehsPerHour="134.43127504438806" departLane="free"/>
  <flow id="JF421796" begin="540" fromJunction="J5" toJunction="J3" end="600" vehsPerHour="258.38817714148973" departLane="free"/>
  <flow id="JF421797" begin="540" fromJunction="J5" toJunction="J4" end="600" vehsPerHour="83.81918916950173" departLane="free"/>
  <flow id="JF421798" begin="540" fromJunction="J5" toJunction="J6" end="600" vehsPerHour="209.9999219000032" departLane="free"/>
  <flow id="JF421799" begin="540" fromJunction="J5" toJunction="J7" end="600" vehsPerHour="25.757808351602097" departLane="free"/>
  <flow id="JF421800" begin="540" fromJunction="J6" toJunction="J0" end="600" vehsPerHour="147.2868211691465" departLane="free"/>
  <flow id="JF421801" begin="540" fromJunction="J6" toJunction="J3" end="600" vehsPerHour="262.9838863682359" departLane="free"/>
  <flow id="JF421802" begin="540" fromJunction="J6" toJunction="J4" end="600" vehsPerHour="76.2540622625706" departLane="free"/>
  <flow id="JF421803" begin="540" fromJunction="J6" toJunction="J7" end="600" vehsPerHour="92.56376515185754" departLane="free"/>
  <flow id="JF421804" begin="540" fromJunction="J7" toJunction="J0" end="600" vehsPerHour="174.88648914133225" departLane="free"/>
  <flow id="JF421805" begin="540" fromJunction="J7" toJunction="J3" end="600" vehsPerHour="71.27858759220015" departLane="free"/>
  <flow id="JF421806" begin="540" fromJunction="J7" toJunction="J4" end="600" vehsPerHour="182.6090787331995" departLane="free"/>
  <flow id="JF421807" begin="540" fromJunction="J7" toJunction="J5" end="600" vehsPerHour="38.53903422779885" departLane="free"/>
  <flow id="JF421808" begin="540" fromJunction="J7" toJunction="J6" end="600" vehsPerHour="181.0715708065297" departLane="free"/>
  <flow id="JF421809" begin="600" fromJunction="J0" toJunction="J3" end="660" vehsPerHour="123.21982781485818" departLane="free"/>
  <flow id="JF421810" begin="600" fromJunction="J0" toJunction="J4" end="660" vehsPerHour="173.5054460399269" departLane="free"/>
  <flow id="JF421811" begin="600" fromJunction="J0" toJunction="J5" end="660" vehsPerHour="473.20444402438255" departLane="free"/>
  <flow id="JF421812" begin="600" fromJunction="J0" toJunction="J6" end="660" vehsPerHour="268.2613502491146" departLane="free"/>
  <flow id="JF421813" begin="600" fromJunction="J0" toJunction="J7" end="660" vehsPerHour="11.091631844707997" departLane="free"/>
  <flow id="JF421814" begin="600" fromJunction="J3" toJunction="J0" end="660" vehsPerHour="403.548568502108" departLane="free"/>
  <flow id="JF421815" begin="600" fromJunction="J3" toJunction="J4" end="660" vehsPerHour="339.7790025367542" departLane="free"/>
  <flow id="JF421816" begin="600" fromJunction="J3" toJunction="J5" end="660" vehsPerHour="343.7816611035623" departLane="free"/>
  <flow id="JF421817" begin="600" fromJunction="J3" toJunction="J6" end="660" vehsPerHour="277.0489720218257" departLane="free"/>
  <flow id="JF421818" begin="600" fromJunction="J3" toJunction="J7" end="660" vehsPerHour="74.93694820917942" departLane="free"/>
  <flow id="JF421819" begin="600" fromJunction="J4" toJunction="J5" end="660" vehsPerHour="234.01813794607958" departLane="free"/>
  <flow id="JF421820" begin="600" fromJunction="J4" toJunction="J7" end="660" vehsPerHour="6.531528294257189" departLane="free"/>
  <flow id="JF421821" begin="600" fromJunction="J5" toJunction="J0" end="660" vehsPerHour="95.02418792136126" departLane="free"/>
  <flow id="JF421822" begin="600" fromJunction="J5" toJunction="J6" end="660" vehsPerHour="12.450348624135152" departLane="free"/>
  <flow id="JF421823" begin="600" fromJunction="J5" toJunction="J7" end="660" vehsPerHour="30.979621474367868" departLane="free"/>
  <flow id="JF421824" begin="600" fromJunction="J6" toJunction="J4" end="660" vehsPerHour="65.11405142679328" departLane="free"/>
  <flow id="JF421825" begin="600" fromJunction="J6" toJunction="J5" end="660" vehsPerHour="224.86142191168705" departLane="free"/>
  <flow id="JF421826" begin="600" fromJunction="J6" toJunction="J7" end="660" vehsPerHour="157.14193037573892" departLane="free"/>
  <flow id="JF421827" begin="600" fromJunction="J7" toJunction="J0" end="660" vehsPerHour="1.69852446154679" departLane="free"/>
  <flow id="JF421828" begin="600" fromJunction="J7" toJunction="J3" end="660" vehsPerHour="93.19548245749921" departLane="free"/>
  <flow id="JF421829" begin="600" fromJunction="J7" toJunction="J5" end="660" vehsPerHour="6.909977442167842" departLane="free"/>
  <flow id="JF421830" begin="600" fromJunction="J7" toJunction="J6" end="660" vehsPerHour="86.48072260579366" departLane="free"/>
  <flow id="JF421831" begin="660" fromJunction="J0" toJunction="J3" end="720" vehsPerHour="165.41838844460335" departLane="free"/>
  <flow id="JF421832" begin="660" fromJunction="J0" toJunction="J4" end="720" vehsPerHour="233.01696056867206" departLane="free"/>
  <flow id="JF421833" begin="660" fromJunction="J0" toJunction="J5" end="720" vehsPerHour="340.17270846004953" departLane="free"/>
  <flow id="JF421834" begin="660" fromJunction="J3" toJunction="J0" end="720" vehsPerHour="315.4114492389533" departLane="free"/>