<?xml version="1.0" encoding="UTF-8"?>
<routes xmlns:xsi="http://www.w3.org/2001/XMLSchema-instance" xsi:noNamespaceSchemaLocation="http://sumo.dlr.de/xsd/routes_file.xsd">
  <flow id="JF423385" begin="0" fromJunction="J0" toJunction="J5" end="60" vehsPerHour="439.145901559516" departLane="free"/>
  <flow id="JF423386" begin="0" fromJunction="J0" toJunction="J6" end="60" vehsPerHour="315.1946086629507" departLane="free"/>
  <flow id="JF423387" begin="0" fromJunction="J3" toJunction="J0" end="60" vehsPerHour="308.60476434563935" departLane="free"/>
  <flow id="JF423388" begin="0" fromJunction="J3" toJunction="J4" end="60" vehsPerHour="403.09725575321715" departLane="free"/>
  <flow id="JF423389" begin="0" fromJunction="J3" toJunction="J5" end="60" vehsPerHour="363.9651651307764" departLane="free"/>
  <flow id="JF423390" begin="0" fromJunction="J3" toJunction="J6" end="60" vehsPerHour="113.50559197804574" departLane="free"/>
  <flow id="JF423391" begin="0" fromJunction="J3" toJunction="J7" end="60" vehsPerHour="214.61912089106949" departLane="free"/>
  <flow id="JF423392" begin="0" fromJunction="J4" toJunction="J0" end="60" vehsPerHour="118.77001526474675" departLane="free"/>
  <flow id="JF423393" begin="0" fromJunction="J4" toJunction="J3" end="60" vehsPerHour="110.67591974362173" departLane="free"/>
  <flow id="JF423394" begin="0" fromJunction="J4" toJunction="J6" end="60" vehsPerHour="105.34516619010728" departLane="free"/>
  <flow id="JF423395" begin="0" fromJunction="J4" toJunction="J7" end="60" vehsPerHour="262.94881458700104" departLane="free"/>
  <flow id="JF423396" begin="0" fromJunction="J5" toJunction="J3" end="60" vehsPerHour="114.58434823547249" departLane="free"/>
  <flow id="JF423397" begin="0" fromJunction="J5" toJunction="J6" end="60" vehsPerHour="198.5850500748433" departLane="free"/>
  <flow id="JF423398" begin="0" fromJunction="J5" toJunction="J7" end="60" vehsPerHour="150.57389629784902" departLane="free"/>
  <flow id="JF423399" begin="0" fromJunction="J6" toJunction="J3" end="60" vehsPerHour="8.774083958957107" departLane="free"/>
  <flow id="JF423400" begin="0" fromJunction="J6" toJunction="J4" end="60" vehsPerHour="182.2742307527796" departLane="free"/>
  <flow id="JF423401" begin="0" fromJunction="J6" toJunction="J5" end="60" vehsPerHour="270.76120285837106" departLane="free"/>
  <flow id="JF423402" begin="0" fromJunction="J6" toJunction="J7" end="60" vehsPerHour="226.45879127158935" departLane="free"/>
  <flow id="JF423403" begin="0" fromJunction="J7" toJunction="J0" end="60" vehsPerHour="158.39517436782228" departLane="free"/>
  <flow id="JF423404" begin="0" fromJunction="J7" toJunction="J3" end="60" vehsPerHour="261.5760723416873" departLane="free"/>
  <flow id="JF423405" begin="0" fromJunction="J7" toJunction="J4" end="60" vehsPerHour="210.96571836560847" departLane="free"/>
  <flow id="JF423406" begin="0" fromJunction="J7" toJunction="J6" end="60" vehsPerHour="160.6734236373609" departLane="free"/>
  <flow id="JF423407" begin="60" fromJunction="J0" toJunction="J3" end="120" vehsPerHour="506.9402427098982" departLane="free"/>
  <flow id="JF423408" begin="60" fromJunction="J0" toJunction="J5" end="120" vehsPerHour="82.85666019831028" departLane="free"/>
  <flow id="JF423409" begin="60" fromJunction="J0" toJunction="J7" end="120" vehsPerHour="294.21660151972213" departLane="free"/>
  <flow id="JF423410" begin="60" fromJunction="J3" toJunction="J4" end="120" vehsPerHour="231.86393355011475" departLane="free"/>
  <flow id="JF423411" begin="60" fromJunction="J3" toJunction="J5" end="120" vehsPerHour="443.454952442533" departLane="free"/>
  <flow id="JF423412" begin="60" fromJunction="J3" toJunction="J6" end="120" vehsPerHour="504.5833395838684" departLane="free"/>
  <flow id="JF423413" begin="60" fromJunction="J3" toJunction="J7" end="120" vehsPerHour="151.20258684788072" departLane="free"/>
  <flow id="JF423414" begin="60" fromJunction="J4" toJunction="J6" end="120" vehsPerHour="118.6147575196558" departLane="free"/>
  <flow id="JF423415" begin="60" fromJunction="J5" toJunction="J0" end="120" vehsPerHour="171.8532893366387" departLane="free"/>
  <flow id="JF423416" begin="60" fromJunction="J5" toJunction="J3" end="120" vehsPerHour="154.7868237629279" departLane="free"/>
  <flow id="JF423417" begin="60" fromJunction="J5" toJunction="J4" end="120" vehsPerHour="192.26522497227032" departLane="free"/>
  <flow id="JF423418" begin="60" fromJunction="J6" toJunction="J0" end="120" vehsPerHour="48.0466221272262" departLane="free"/>
  <flow id="JF423419" begin="60" fromJunction="J6" toJunction="J4" end="120" vehsPerHour="114.58539366020507" departLane="free"/>
  <flow id="JF423420" begin="60" fromJunction="J6" toJunction="J5" end="120" vehsPerHour="215.46944138543884" departLane="free"/>
  <flow id="JF423421" begin="60" fromJunction="J6" toJunction="J7" end="120" vehsPerHour="244.16446457155953" departLane="free"/>
  <flow id="JF423422" begin="60" fromJunction="J7" toJunction="J3" end="120" vehsPerHour="95.1624320669419" departLane="free"/>
  <flow id="JF423423" begin="60" fromJunction="J7" toJunction="J5" end="120" vehsPerHour="33.320758215850745" departLane="free"/>
  <flow id="JF423424" begin="60" fromJunction="J7" toJunction="J6" end="120" vehsPerHour="158.86827540194068" departLane="free"/>
  <flow id="JF423425" begin="120" fromJunction="J0" toJunction="J3" end="180" vehsPerHour="121.85258573840436" departLane="free"/>
  <flow id="JF423426" begin="120" fromJunction="J0" toJunction="J5" end="180" vehsPerHour="116.41793135211549" departLane="free"/>
  <flow id="JF423427" begin="120" fromJunction="J3" toJunction="J0" end="180" vehsPerHour="150.49282464285756" departLane="free"/>
  <flow id="JF423428" begin="120" fromJunction="J3" toJunction="J4" end="180" vehsPerHour="451.5387209754503" departLane="free"/>
  <flow id="JF423429" begin="120" fromJunction="J3" toJunction="J5" end="180" vehsPerHour="387.25970554242997" departLane="free"/>
  <flow id="JF423430" begin="120" fromJunction="J3" toJunction="J6" end="180" vehsPerHour="187.76707037404702" departLane="free"/>
  <flow id="JF423431" begin="120" fromJunction="J3" toJunction="J7" end="180" vehsPerHour="425.51617067006003" departLane="free"/>
  <flow id="JF423432" begin="120" fromJunction="J4" toJunction="J0" end="180" vehsPerHour="26.120608484554136" departLane="free"/>
  <flow id="JF423433" begin="120" fromJunction="J4" toJunction="J5" end="180" vehsPerHour="37.395782319823915" departLane="free"/>
  <flow id="JF423434" begin="120" fromJunction="J4" toJunction="J6" end="180" vehsPerHour="199.68566875160136" departLane="free"/>
  <flow id="JF423435" begin="120" fromJunction="J5" toJunction="J0" end="180" vehsPerHour="74.25762936962391" departLane="free"/>
  <flow id="JF423436" begin="120" fromJunction="J5" toJunction="J3" end="180" vehsPerHour="37.958455706157274" departLane="free"/>
  <flow id="JF423437" begin="120" fromJunction="J5" toJunction="J6" end="180" vehsPerHour="89.7839075645445" departLane="free"/>
  <flow id="JF423438" begin="120" fromJunction="J5" toJunction="J7" end="180" vehsPerHour="171.6486117399642" departLane="free"/>
  <flow id="JF423439" begin="120" fromJunction="J6" toJunction="J3" end="180" vehsPerHour="222.6110321801543" departLane="free"/>
  <flow id="JF423440" begin="120" fromJunction="J6" toJunction="J4" end="180" vehsPerHour="236.0033873092757" departLane="free"/>
  <flow id="JF423441" begin="120" fromJunction="J6" toJunction="J7" end="180" vehsPerHour="55.34138583961521" departLane="free"/>
  <flow id="JF423442" begin="120" fromJunction="J7" toJunction="J0" end="180" vehsPerHour="116.21519347982547" departLane="free"/>
  <flow id="JF423443" begin="120" fromJunction="J7" toJunction="J3" end="180" vehsPerHour="221.1698956255831" departLane="free"/>
  <flow id="JF423444" begin="120" fromJunction="J7" toJunction="J4" end="180" vehsPerHour="47.14129848909425" departLane="free"/>
  <flow id="JF423445" begin="120" fromJunction="J7" toJunction="J5" end="180" vehsPerHour="78.25743228351594" departLane="free"/>
  <flow id="JF423446" begin="120" fromJunction="J7" toJunction="J6" end="180" vehsPerHour="1.399254663509101" departLane="free"/>
  <flow id="JF423447" begin="180" fromJunction="J0" toJunction="J3" end="240" vehsPerHour="97.4483926808745" departLane="free"/>
  <flow id="JF423448" begin="180" fromJunction="J0" toJunction="J5" end="240" vehsPerHour="115.46215787577076" departLane="free"/>
  <flow id="JF423449" begin="180" fromJunction="J0" toJunction="J6" end="240" vehsPerHour="255.08145237325" departLane="free"/>
  <flow id="JF423450" begin="180" fromJunction="J3" toJunction="J0" end="240" vehsPerHour="483.0854878556607" departLane="free"/>
  <flow id="JF423451" begin="180" fromJunction="J3" toJunction="J4" end="240" vehsPerHour="454.41892408097544" departLane="free"/>
  <flow id="JF423452" begin="180" fromJunction="J3" toJunction="J5" end="240" vehsPerHour="404.0195026382932" departLane="free"/>
  <flow id="JF423453" begin="180" fromJunction="J3" toJunction="J7" end="240" vehsPerHour="392.735591805763" departLane="free"/>
  <flow id="JF423454" begin="180" fromJunction="J4" toJunction="J0" end="240" vehsPerHour="200.51925641585467" departLane="free"/>
  <flow id="JF423455" begin="180" fromJunction="J4" toJunction="J3" end="240" vehsPerHour="191.0992943855836" departLane="free"/>
  <flow id="JF423456" begin="180" fromJunction="J4" toJunction="J5" end="240" vehsPerHour="217.14135167339936" departLane="free"/>
  <flow id="JF423457" begin="180" fromJunction="J4" toJunction="J7" end="240" vehsPerHour="52.66720411373957" departLane="free"/>
  <flow id="JF423458" begin="180" fromJunction="J5" toJunction="J0" end="240" vehsPerHour="95.03529094641465" departLane="free"/>
  <flow id="JF423459" begin="180" fromJunction="J5" toJunction="J4" end="240" vehsPerHour="268.4093546878913" departLane="free"/>
  <flow id="JF423460" begin="180" fromJunction="J5" toJunction="J7" end="240" vehsPerHour="170.59345932072128" departLane="free"/>
  <flow id="JF423461" begin="180" fromJunction="J6" toJunction="J0" end="240" vehsPerHour="87.1922859497842" departLane="free"/>
  <flow id="JF423462" begin="180" fromJunction="J6" toJunction="J3" end="240" vehsPerHour="3.8020056464412217" departLane="free"/>
  <flow id="JF423463" begin="180" fromJunction="J6" toJunction="J5" end="240" vehsPerHour="34.60892243603612" departLane="free"/>
  <flow id="JF423464" begin="180" fromJunction="J6" toJunction="J7" end="240" vehsPerHour="85.90878402890202" departLane="free"/>
  <flow id="JF423465" begin="180" fromJunction="J7" toJunction="J0" end="240" vehsPerHour="129.27692661611684" departLane="free"/>
  <flow id="JF423466" begin="180" fromJunction="J7" toJunction="J3" end="240" vehsPerHour="236.65082828299984" departLane="free"/>
  <flow id="JF423467" begin="180" fromJunction="J7" toJunction="J5" end="240" vehsPerHour="130.28442899752434" departLane="free"/>
  <flow id="JF423468" begin="180" fromJunction="J7" toJunction="J6" end="240" vehsPerHour="253.97600639796542" departLane="free"/>
  <flow id="JF423469" begin="240" fromJunction="J0" toJunction="J3" end="300" vehsPerHour="389.01109370462893" departLane="free"/>
  <flow id="JF423470" begin="240" fromJunction="J0" toJunction="J4" end="300" vehsPerHour="101.69254124312748" departLane="free"/>
  <flow id="JF423471" begin="240" fromJunction="J0" toJunction="J5" end="300" vehsPerHour="179.06064963915526" departLane="free"/>
  <flow id="JF423472" begin="240" fromJunction="J0" toJunction="J6" end="300" vehsPerHour="74.75247685382394" departLane="free"/>
  <flow id="JF423473" begin="240" fromJunction="J0" toJunction="J7" end="300" vehsPerHour="408.2722057269062" departLane="free"/>
  <flow id="JF423474" begin="240" fromJunction="J3" toJunction="J0" end="300" vehsPerHour="15.720123452639411" departLane="free"/>
  <flow id="JF423475" begin="240" fromJunction="J3" toJunction="J4" end="300" vehsPerHour="33.09240344043177" departLane="free"/>
  <flow id="JF423476" begin="240" fromJunction="J3" toJunction="J5" end="300" vehsPerHour="331.21278456359875" departLane="free"/>
  <flow id="JF423477" begin="240" fromJunction="J3" toJunction="J7" end="300" vehsPerHour="148.01468987535708" departLane="free"/>
  <flow id="JF423478" begin="240" fromJunction="J4" toJunction="J3" end="300" vehsPerHour="132.76204745712843" departLane="free"/>
  <flow id="JF423479" begin="240" fromJunction="J4" toJunction="J5" end="300" vehsPerHour="231.65758313742086" departLane="free"/>
  <flow id="JF423480" begin="240" fromJunction="J4" toJunction="J6" end="300" vehsPerHour="259.45469930062444" departLane="free"/>
  <flow id="JF423481" begin="240" fromJunction="J4" toJunction="J7" end="300" vehsPerHour="39.500787910954756" departLane="free"/>
  <flow id="JF423482" begin="240" fromJunction="J5" toJunction="J0" end="300" vehsPerHour="252.44168208679218" departLane="free"/>
  <flow id="JF423483" begin="240" fromJunction="J5" toJunction="J3" end="300" vehsPerHour="266.4158221776033" departLane="free"/>
  <flow id="JF423484" begin="240" fromJunction="J5" toJunction="J4" end="300" vehsPerHour="109.5344621412966" departLane="free"/>
  <flow id="JF423485" begin="240" fromJunction="J5" toJunction="J6" end="300" vehsPerHour="93.97648590836172" departLane="free"/>
  <flow id="JF423486" begin="240" fromJunction="J5" toJunction="J7" end="300" vehsPerHour="127.120081858776" departLane="free"/>
  <flow id="JF423487" begin="240" fromJunction="J6" toJunction="J0" end="300" vehsPerHour="171.09388940008603" departLane="free"/>
  <flow id="JF423488" begin="240" fromJunction="J6" toJunction="J4" end="300" vehsPerHour="9.382365519166154" departLane="free"/>
  <flow id="JF423489" begin="240" fromJunction="J6" toJunction="J5" end="300" vehsPerHour="4.417082940650865" departLane="free"/>
  <flow id="JF423490" begin="240" fromJunction="J6" toJunction="J7" end="300" vehsPerHour="67.56963546926237" departLane="free"/>
  <flow id="JF423491" begin="240" fromJunction="J7" toJunction="J0" end="300" vehsPerHour="273.76626450298767" departLane="free"/>
  <flow id="JF423492" begin="240" fromJunction="J7" toJunction="J3" end="300" vehsPerHour="14.905771256252441" departLane="free"/>
  <flow id="JF423493" begin="240" fromJunction="J7" toJunction="J4" end="300" vehsPerHour="259.7930813486768" departLane="free"/>
  <flow id="JF423494" begin="240" fromJunction="J7" toJunction="J5" end="300" vehsPerHour="41.027641036916236" departLane="free"/>
  <flow id="JF423495" begin="240" fromJunction="J7" toJunction="J6" end="300" vehsPerHour="165.69809933722834" departLane="free"/>
  <flow id="JF423496" begin="300" fromJunction="J0" toJunction="J3" end="360" vehsPerHour="178.58593696871293" departLane="free"/>
  <flow id="JF423497" begin="300" fromJunction="J0" toJunction="J4" end="360" vehsPerHour="366.91237900164043" departLane="free"/>
  <flow id="JF423498" begin="300" fromJunction="J0" toJunction="J5" end="360" vehsPerHour="290.32004112657654" departLane="free"/>
  <flow id="JF423499" begin="300" fromJunction="J0" toJunction="J6" end="360" vehsPerHour="346.3268849741391" departLane="free"/>
  <flow id="JF423500" begin="300" fromJunction="J0" toJunction="J7" end="360" vehsPerHour="243.1526781007608" departLane="free"/>
  <flow id="JF423501" begin="300" fromJunction="J3" toJunction="J0" end="360" vehsPerHour="203.22906444644966" departLane="free"/>
  <flow id="JF423502" begin="300" fromJunction="J3" toJunction="J4" end="360" vehsPerHour="235.69517174079732" departLane="free"/>
  <flow id="JF423503" begin="300" fromJunction="J3" toJunction="J5" end="360" vehsPerHour="40.48960870586673" departLane="free"/>
  <flow id="JF423504" begin="300" fromJunction="J3" toJunction="J6" end="360" vehsPerHour="263.7469381023477" departLane="free"/>
  <flow id="JF423505" begin="300" fromJunction="J4" toJunction="J3" end="360" vehsPerHour="59.60424440143788" departLane="free"/>
  <flow id="JF423506" begin="300" fromJunction="J4" toJunction="J6" end="360" vehsPerHour="269.74311208991213" departLane="free"/>
  <flow id="JF423507" begin="300" fromJunction="J4" toJunction="J7" end="360" vehsPerHour="215.50390492051554" departLane="free"/>
  <flow id="JF423508" begin="300" fromJunction="J5" toJunction="J0" end="360" vehsPerHour="93.8125009920187" departLane="free"/>
  <flow id="JF423509" begin="300" fromJunction="J5" toJunction="J3" end="360" vehsPerHour="78.20213791543426" departLane="free"/>
  <flow id="JF423510" begin="300" fromJunction="J5" toJunction="J6" end="360" vehsPerHour="75.79561049753774" departLane="free"/>
  <flow id="JF423511" begin="300" fromJunction="J6" toJunction="J0" end="360" vehsPerHour="84.11261115534674" departLane="free"/>
  <flow id="JF423512" begin="300" fromJunction="J6" toJunction="J3" end="360" vehsPerHour="195.7923325450043" departLane="free"/>
  <flow id="JF423513" begin="300" fromJunction="J6" toJunction="J4" end="360" vehsPerHour="226.10374031836633" departLane="free"/>
  <flow id="JF423514" begin="300" fromJunction="J6" toJunction="J7" end="360" vehsPerHour="134.17997024410187" departLane="free"/>
  <flow id="JF423515" begin="300" fromJunction="J7" toJunction="J0" end="360" vehsPerHour="102.0218966288061" departLane="free"/>
  <flow id="JF423516" begin="300" fromJunction="J7" toJunction="J3" end="360" vehsPerHour="127.52055513731024" departLane="free"/>
  <flow id="JF423517" begin="300" fromJunction="J7" toJunction="J4" end="360" vehsPerHour="16.263340622439678" departLane="free"/>
  <flow id="JF423518" begin="300" fromJunction="J7" toJunction="J5" end="360" vehsPerHour="122.13431782525421" departLane="free"/>
  <flow id="JF423519" begin="360" fromJunction="J0" toJunction="J3" end="420" vehsPerHour="178.5219385787202" departLane="free"/>
  <flow id="JF423520" begin="360" fromJunction="J0" toJunction="J4" end="420" vehsPerHour="127.19768103211582" departLane="free"/>
  <flow id="JF423521" begin="360" fromJunction="J0" toJunction="J5" end="420" vehsPerHour="488.67257766294193" departLane="free"/>
  <flow id="JF423522" begin="360" fromJunction="J0" toJunction="J6" end="420" vehsPerHour="3.4047509736601245" departLane="free"/>
  <flow id="JF423523" begin="360" fromJunction="J3" toJunction="J5" end="420" vehsPerHour="285.0900485861102" departLane="free"/>
  <flow id="JF423524" begin="360" fromJunction="J3" toJunction="J6" end="420" vehsPerHour="410.20596473147697" departLane="free"/>
  <flow id="JF423525" begin="360" fromJunction="J3" toJunction="J7" end="420" vehsPerHour="367.77309596551805" departLane="free"/>
  <flow id="JF423526" begin="360" fromJunction="J4" toJunction="J0" end="420" vehsPerHour="221.6820385978853" departLane="free"/>
  <flow id="JF423527" begin="360" fromJunction="J4" toJunction="J6" end="420" vehsPerHour="5.327629809582382" departLane="free"/>
  <flow id="JF423528" begin="360" fromJunction="J4" toJunction="J7" end="420" vehsPerHour="103.70955706772133" departLane="free"/>
  <flow id="JF423529" begin="360" fromJunction="J5" toJunction="J0" end="420" vehsPerHour="243.5753753508455" departLane="free"/>
  <flow id="JF423530" begin="360" fromJunction="J5" toJunction="J6" end="420" vehsPerHour="36.329414071219546" departLane="free"/>
  <flow id="JF423531" begin="360" fromJunction="J5" toJunction="J7" end="420" vehsPerHour="201.39510792823708" departLane="free"/>
  <flow id="JF423532" begin="360" fromJunction="J6" toJunction="J0" end="420" vehsPerHour="219.80489151736893" departLane="free"/>
  <flow id="JF423533" begin="360" fromJunction="J6" toJunction="J3" end="420" vehsPerHour="234.07118648974904" departLane="free"/>
  <flow id="JF423534" begin="360" fromJunction="J6" toJunction="J4" end="420" vehsPerHour="82.69808125348992" departLane="free"/>
  <flow id="JF423535" begin="360" fromJunction="J6" toJunction="J7" end="420" vehsPerHour="53.903623912099505" departLane="free"/>
  <flow id="JF423536" begin="360" fromJunction="J7" toJunction="J0" end="420" vehsPerHour="84.05750396753625" departLane="free"/>
  <flow id="JF423537" begin="360" fromJunction="J7" toJunction="J3" end="420" vehsPerHour="104.66672270142391" departLane="free"/>
  <flow id="JF423538" begin="360" fromJunction="J7" toJunction="J4" end="420" vehsPerHour="84.0750730087673" departLane="free"/>
  <flow id="JF423539" begin="360" fromJunction="J7" toJunction="J5" end="420" vehsPerHour="35.729642185189384" departLane="free"/>
  <flow id="JF423540" begin="360" fromJunction="J7" toJunction="J6" end="420" vehsPerHour="9.800742190267577" departLane="free"/>
  <flow id="JF423541" begin="420" fromJunction="J0" toJunction="J3" end="480" vehsPerHour="195.41490359934485" departLane="free"/>
  <flow id="JF423542" begin="420" fromJunction="J0" toJunction="J4" end="480" vehsPerHour="528.3159083966804" departLane="free"/>
  <flow id="JF423543" begin="420" fromJunction="J0" toJunction="J5" end="480" vehsPerHour="460.0032238261239" departLane="free"/>
  <flow id="JF423544" begin="420" fromJunction="J0" toJunction="J6" end="480" vehsPerHour="437.7148370394893" departLane="free"/>
  <flow id="JF423545" begin="420" fromJunction="J3" toJunction="J4" end="480" vehsPerHour="123.48258966505887" departLane="free"/>
  <flow id="JF423546" begin="420" fromJunction="J3" toJunction="J6" end="480" vehsPerHour="42.12363409236582" departLane="free"/>
  <flow id="JF423547" begin="420" fromJunction="J3" toJunction="J7" end="480" vehsPerHour="361.39663296649854" departLane="free"/>
  <flow id="JF423548" begin="420" fromJunction="J4" toJunction="J0" end="480" vehsPerHour="83.41291777192606" departLane="free"/>
  <flow id="JF423549" begin="420" fromJunction="J4" toJunction="J5" end="480" vehsPerHour="9.377949583012837" departLane="free"/>
  <flow id="JF423550" begin="420" fromJunction="J4" toJunction="J7" end="480" vehsPerHour="130.4986016039133" departLane="free"/>
  <flow id="JF423551" begin="420" fromJunction="J5" toJunction="J0" end="480" vehsPerHour="240.67328317148147" departLane="free"/>
  <flow id="JF423552" begin="420" fromJunction="J5" toJunction="J3" end="480" vehsPerHour="237.38796457112335" departLane="free"/>
  <flow id="JF423553" begin="420" fromJunction="J5" toJunction="J6" end="480" vehsPerHour="58.07386525012028" departLane="free"/>
  <flow id="JF423554" begin="420" fromJunction="J5" toJunction="J7" end="480" vehsPerHour="107.6472576702317" departLane="free"/>
  <flow id="JF423555" begin="420" fromJunction="J6" toJunction="J4" end="480" vehsPerHour="238.10670764664616" departLane="free"/>
  <flow id="JF423556" begin="420" fromJunction="J6" toJunction="J5" end="480" vehsPerHour="237.38008041939227" departLane="free"/>
  <flow id="JF423557" begin="420" fromJunction="J7" toJunction="J0" end="480" vehsPerHour="253.62348478864072" departLane="free"/>
  <flow id="JF423558" begin="420" fromJunction="J7" toJunction="J3" end="480" vehsPerHour="90.93048820097964" departLane="free"/>
  <flow id="JF423559" begin="420" fromJunction="J7" toJunction="J5" end="480" vehsPerHour="115.11991892819223" departLane="free"/>
  <flow id="JF423560" begin="420" fromJunction="J7" toJunction="J6" end="480" vehsPerHour="18.982312066746065" departLane="free"/>
  <flow id="JF423561" begin="480" fromJunction="J0" toJunction="J3" end="540" vehsPerHour="493.4260725089434" departLane="free"/>
  <flow id="JF423562" begin="480" fromJunction="J0" toJunction="J4" end="540" vehsPerHour="99.31131259415689" departLane="free"/>
  <flow id="JF423563" begin="480" fromJunction="J0" toJunction="J5" end="540" vehsPerHour="94.61499390762836" departLane="free"/>
  <flow id="JF423564" begin="480" fromJunction="J0" toJunction="J6" end="540" vehsPerHour="457.3860249545146" departLane="free"/>
  <flow id="JF423565" begin="480" fromJunction="J0" toJunction="J7" end="540" vehsPerHour="68.40724852731434" departLane="free"/>
  <flow id="JF423566" begin="480" fromJunction="J3" toJunction="J0" end="540" vehsPerHour="251.55973508535396" departLane="free"/>
  <flow id="JF423567" begin="480" fromJunction="J3" toJunction="J5" end="540" vehsPerHour="514.7952505195406" departLane="free"/>
  <flow id="JF423568" begin="480" fromJunction="J3" toJunction="J6" end="540" vehsPerHour="137.03808451812213" departLane="free"/>
  <flow id="JF423569" begin="480" fromJunction="J3" toJunction="J7" end="540" vehsPerHour="291.7183576410822" departLane="free"/>
  <flow id="JF423570" begin="480" fromJunction="J4" toJunction="J0" end="540" vehsPerHour="38.4529241684382" departLane="free"/>
  <flow id="JF423571" begin="480" fromJunction="J4" toJunction="J5" end="540" vehsPerHour="138.07523681716762" departLane="free"/>
  <flow id="JF423572" begin="480" fromJunction="J4" toJunction="J6" end="540" vehsPerHour="87.58919005382657" departLane="free"/>
  <flow id="JF423573" begin="480" fromJunction="J4" toJunction="J7" end="540" vehsPerHour="122.91178699830787" departLane="free"/>
  <flow id="JF423574" begin="480" fromJunction="J5" toJunction="J3" end="540" vehsPerHour="269.5169841751577" departLane="free"/>
  <flow id="JF423575" begin="480" fromJunction="J5" toJunction="J4" end="540" vehsPerHour="88.30814906768106" departLane="free"/>
  <flow id="JF423576" begin="480" fromJunction="J5" toJunction="J7" end="540" vehsPerHour="49.05083622840397" departLane="free"/>
  <flow id="JF423577" begin="480" fromJunction="J6" toJunction="J3" end="540" vehsPerHour="123.87847210090253" departLane="free"/>
  <flow id="JF423578" begin="480" fromJunction="J6" toJunction="J5" end="540" vehsPerHour="46.771363381191" departLane="free"/>
  <flow id="JF423579" begin="480" fromJunction="J6" toJunction="J7" end="540" vehsPerHour="114.28880992245433" departLane="free"/>
  <flow id="JF423580" begin="480" fromJunction="J7" toJunction="J0" end="540" vehsPerHour="99.51687741644231" departLane="free"/>
  <flow id="JF423581" begin="480" fromJunction="J7" toJunction="J3" end="540" vehsPerHour="195.60241968460713" departLane="free"/>
  <flow id="JF423582" begin="480" fromJunction="J7" toJunction="J4" end="540" vehsPerHour="123.46022903166973" departLane="free"/>
  <flow id="JF423583" begin="480" fromJunction="J7" toJunction="J5" end="540" vehsPerHour="270.5667806765335" departLane="free"/>
  <flow id="JF423584" begin="480" fromJunction="J7" toJunction="J6" end="540" vehsPerHour="174.5409285115133" departLane="free"/>
  <flow id="JF423585" begin="540" fromJunction="J0" toJunction="J7" end="600" vehsPerHour="49.56701057063431" departLane="free"/>
  <flow id="JF423586" begin="540" fromJunction="J3" toJunction="J0" end="600" vehsPerHour="224.16854649827323" departLane="free"/>
  <flow id="JF423587" begin="540" fromJunction="J3" toJunction="J4" end="600" vehsPerHour="36.63946547651997" departLane="free"/>
  <flow id="JF423588" begin="540" fromJunction="J3" toJunction="J5" end="600" vehsPerHour="99.03532436910345" departLane="free"/>
  <flow id="JF423589" begin="540" fromJunction="J3" toJunction="J6" end="600" vehsPerHour="14.113855968412704" departLane="free"/>
  <flow id="JF423590" begin="540" fromJunction="J4" toJunction="J0" end="600" vehsPerHour="164.82169384274243" departLane="free"/>
  <flow id="JF423591" begin="540" fromJunction="J4" toJunction="J3" end="600" vehsPerHour="150.6706070420432" departLane="free"/>
  <flow id="JF423592" begin="540" fromJunction="J4" toJunction="J6" end="600" vehsPerHour="269.0748072465763" departLane="free"/>
  <flow id="JF423593" begin="540" fromJunction="J5" toJunction="J0" end="600" vehsPerHour="80.12698858173435" departLane="free"/>
  <flow id="JF423594" begin="540" fromJunction="J5" toJunction="J3" end="600" vehsPerHour="237.43224788186302" departLane="free"/>
  <flow id="JF423595" begin="540" fromJunction="J5" toJunction="J4" end="600" vehsPerHour="81.65679917058263" departLane="free"/>
  <flow id="JF423596" begin="540" fromJunction="J5" toJunction="J7" end="600" vehsPerHour="126.10291560062457" departLane="free"/>
  <flow id="JF423597" begin="540" fromJunction="J6" toJunction="J3" end="600" vehsPerHour="58.55480248365869" departLane="free"/>
  <flow id="JF423598" begin="540" fromJunction="J6" toJunction="J4" end="600" vehsPerHour="154.53062991169608" departLane="free"/>
  <flow id="JF423599" begin="540" fromJunction="J6" toJunction="J5" end="600" vehsPerHour="54.90848847389618" departLane="free"/>
  <flow id="JF423600" begin="540" fromJunction="J7" toJunction="J0" end="600" vehsPerHour="33.30072306354052" departLane="free"/>
  <flow id="JF423601" begin="540" fromJunction="J7" toJunction="J4" end="600" vehsPerHour="184.67029324833612" departLane="free"/>
  <flow id="JF423602" begin="540" fromJunction="J7" toJunction="J5" end="600" vehsPerHour="178.5802872678198" departLane="free"/>
  <flow id="JF423603" begin="540" fromJunction="J7" toJunction="J6" end="600" vehsPerHour="59.22061231455571" departLane="free"/>
  <flow id="JF423604" begin="600" fromJunction="J0" toJunction="J4" end="660" vehsPerHour="268.71082983332457" departLane="free"/>
  <flow id="JF423605" begin="600" fromJunction="J0" toJunction="J6" end="660" vehsPerHour="321.67041760032214" departLane="free"/>
  <flow id="JF423606" begin="600" fromJunction="J0" toJunction="J7" end="660" vehsPerHour="262.4264599595304" departLane="free"/>
  <flow id="JF423607" begin="600" fromJunction="J3" toJunction="J4" end="660" vehsPerHour="192.20017264200894" departLane="free"/>
  <flow id="JF423608" begin="600" fromJunction="J4" toJunction="J0" end="660" vehsPerHour="105.37977366121886" departLane="free"/>
  <flow id="JF423609" begin="600" fromJunction="J4" toJunction="J3" end="660" vehsPerHour="104.38321949505041" departLane="free"/>
  <flow id="JF423610" begin="600" fromJunction="J4" toJunction="J5" end="660" vehsPerHour="27.11719499533685" departLane="free"/>
  <flow id="JF423611" begin="600" fromJunction="J5" toJunction="J0" end="660" vehsPerHour="223.35213997262576" departLane="free"/>
  <flow id="JF423612" begin="600" fromJunction="J5" toJunction="J7" end="660" vehsPerHour="26.669075140176684" departLane="free"/>
  <flow id="JF423613" begin="600" fromJunction="J6" toJunction="J3" end="660" vehsPerHour="231.65274305468384" departLane="free"/>