<?xml version="1.0" encoding="UTF-8"?>
<routes xmlns:xsi="http://www.w3.org/2001/XMLSchema-instance" xsi:noNamespaceSchemaLocation="http://sumo.dlr.de/xsd/routes_file.xsd">
  <flow id="JF76947" begin="0" fromJunction="J0" toJunction="J3" end="5000" vehsPerHour="568.7485075482913" departLane="free"/>
  <flow id="JF76948" begin="0" fromJunction="J3" toJunction="J0" end="5000" vehsPerHour="258.78530117900584" departLane="free"/>
  <flow id="JF76949" begin="0" fromJunction="J0" toJunction="J4" end="5000" vehsPerHour="83.0300361426301" departLane="free"/>
  <flow id="JF76950" begin="0" fromJunction="J0" toJunction="J7" end="5000" vehsPerHour="32.87546765759362" departLane="free"/>
  <flow id="JF76951" begin="0" fromJunction="J0" toJunction="J6" end="5000" vehsPerHour="78.84777554786308" departLane="free"/>
  <flow id="JF76952" begin="0" fromJunction="J0" toJunction="J5" end="5000" vehsPerHour="70.41951320992546" departLane="free"/>
  <flow id="JF76953" begin="0" fromJunction="J3" toJunction="J4" end="5000" vehsPerHour="81.20066037844121" departLane="free"/>
  <flow id="JF76954" begin="0" fromJunction="J3" toJunction="J7" end="5000" vehsPerHour="111.17490715300335" departLane="free"/>
  <flow id="JF76955" begin="0" fromJunction="J3" toJunction="J6" end="5000" vehsPerHour="114.99852872357737" departLane="free"/>
  <flow id="JF76956" begin="0" fromJunction="J3" toJunction="J5" end="5000" vehsPerHour="54.685321299580565" departLane="free"/>
  <flow id="JF76957" begin="0" fromJunction="J4" toJunction="J7" end="5000" vehsPerHour="39.91814365927088" departLane="free"/>
  <flow id="JF76958" begin="0" fromJunction="J4" toJunction="J6" end="5000" vehsPerHour="36.99708014142616" departLane="free"/>
  <flow id="JF76959" begin="0" fromJunction="J4" toJunction="J5" end="5000" vehsPerHour="24.783012219449322" departLane="free"/>
  <flow id="JF76960" begin="0" fromJunction="J7" toJunction="J4" end="5000" vehsPerHour="49.89257338228987" departLane="free"/>
  <flow id="JF76961" begin="0" fromJunction="J7" toJunction="J6" end="5000" vehsPerHour="16.765214936653464" departLane="free"/>
  <flow id="JF76962" begin="0" fromJunction="J7" toJunction="J5" end="5000" vehsPerHour="18.692412272099144" departLane="free"/>
  <flow id="JF76963" begin="0" fromJunction="J6" toJunction="J4" end="5000" vehsPerHour="6.672956975195401" departLane="free"/>
  <flow id="JF76964" begin="0" fromJunction="J6" toJunction="J7" end="5000" vehsPerHour="2.1520467143642965" departLane="free"/>
  <flow id="JF76965" begin="0" fromJunction="J6" toJunction="J5" end="5000" vehsPerHour="48.3735213726594" departLane="free"/>
  <flow id="JF76966" begin="0" fromJunction="J5" toJunction="J4" end="5000" vehsPerHour="43.113096296449676" departLane="free"/>
  <flow id="JF76967" begin="0" fromJunction="J5" toJunction="J7" end="5000" vehsPerHour="7.26965720159694" departLane="free"/>
  <flow id="JF76968" begin="0" fromJunction="J5" toJunction="J6" end="5000" vehsPerHour="56.724186744473634" departLane="free"/>
  <flow id="JF76969" begin="0" fromJunction="J4" toJunction="J0" end="5000" vehsPerHour="7.581526955219719" departLane="free"/>
  <flow id="JF76970" begin="0" fromJunction="J4" toJunction="J3" end="5000" vehsPerHour="21.097091253397828" departLane="free"/>
  <flow id="JF76971" begin="0" fromJunction="J7" toJunction="J0" end="5000" vehsPerHour="46.27449094191251" departLane="free"/>
  <flow id="JF76972" begin="0" fromJunction="J7" toJunction="J3" end="5000" vehsPerHour="26.191145424700245" departLane="free"/>
  <flow id="JF76973" begin="0" fromJunction="J6" toJunction="J0" end="5000" vehsPerHour="9.052102145301358" departLane="free"/>
  <flow id="JF76974" begin="0" fromJunction="J6" toJunction="J3" end="5000" vehsPerHour="26.980371325531145" departLane="free"/>
  <flow id="JF76975" begin="0" fromJunction="J5" toJunction="J0" end="5000" vehsPerHour="23.27542381628344" departLane="free"/>
  <flow id="JF76976" begin="0" fromJunction="J5" toJunction="J3" end="5000" vehsPerHour="52.14113866916532" departLane="free"/>
  <flow id="JF76977" begin="5000" fromJunction="J0" toJunction="J4" end="5060" vehsPerHour="78.99901507919049" departLane="free"/>
  <flow id="JF76978" begin="5000" fromJunction="J0" toJunction="J5" end="5060" vehsPerHour="361.0530999630533" departLane="free"/>
  <flow id="JF76979" begin="5000" fromJunction="J0" toJunction="J6" end="5060" vehsPerHour="509.7776212806956" departLane="free"/>
  <flow id="JF76980" begin="5000" fromJunction="J0" toJunction="J7" end="5060" vehsPerHour="142.94093984174566" departLane="free"/>
  <flow id="JF76981" begin="5000" fromJunction="J3" toJunction="J0" end="5060" vehsPerHour="203.08043531730317" departLane="free"/>
  <flow id="JF76982" begin="5000" fromJunction="J3" toJunction="J6" end="5060" vehsPerHour="200.11084209255887" departLane="free"/>
  <flow id="JF76983" begin="5000" fromJunction="J3" toJunction="J7" end="5060" vehsPerHour="398.23830803313433" departLane="free"/>
  <flow id="JF76984" begin="5000" fromJunction="J4" toJunction="J0" end="5060" vehsPerHour="263.677342998998" departLane="free"/>
  <flow id="JF76985" begin="5000" fromJunction="J4" toJunction="J3" end="5060" vehsPerHour="71.78537162529602" departLane="free"/>
  <flow id="JF76986" begin="5000" fromJunction="J4" toJunction="J6" end="5060" vehsPerHour="8.75281565071934" departLane="free"/>
  <flow id="JF76987" begin="5000" fromJunction="J4" toJunction="J7" end="5060" vehsPerHour="135.88727089999279" departLane="free"/>
  <flow id="JF76988" begin="5000" fromJunction="J5" toJunction="J0" end="5060" vehsPerHour="72.3289480496745" departLane="free"/>
  <flow id="JF76989" begin="5000" fromJunction="J5" toJunction="J7" end="5060" vehsPerHour="114.12292217804685" departLane="free"/>
  <flow id="JF76990" begin="5000" fromJunction="J6" toJunction="J0" end="5060" vehsPerHour="18.233645071346817" departLane="free"/>
  <flow id="JF76991" begin="5000" fromJunction="J6" toJunction="J3" end="5060" vehsPerHour="71.37741563753296" departLane="free"/>
  <flow id="JF76992" begin="5000" fromJunction="J6" toJunction="J4" end="5060" vehsPerHour="267.3564436485695" departLane="free"/>
  <flow id="JF76993" begin="5000" fromJunction="J6" toJunction="J5" end="5060" vehsPerHour="119.00812556512302" departLane="free"/>
  <flow id="JF76994" begin="5000" fromJunction="J6" toJunction="J7" end="5060" vehsPerHour="110.78628970072032" departLane="free"/>
  <flow id="JF76995" begin="5000" fromJunction="J7" toJunction="J0" end="5060" vehsPerHour="101.67671558490895" departLane="free"/>
  <flow id="JF76996" begin="5000" fromJunction="J7" toJunction="J3" end="5060" vehsPerHour="168.49236310206496" departLane="free"/>
  <flow id="JF76997" begin="5000" fromJunction="J7" toJunction="J5" end="5060" vehsPerHour="5.209287054417248" departLane="free"/>
  <flow id="JF76998" begin="5060" fromJunction="J0" toJunction="J3" end="5120" vehsPerHour="431.42027877066516" departLane="free"/>
  <flow id="JF76999" begin="5060" fromJunction="J0" toJunction="J4" end="5120" vehsPerHour="187.59317577099398" departLane="free"/>
  <flow id="JF77000" begin="5060" fromJunction="J0" toJunction="J5" end="5120" vehsPerHour="208.23505361247874" departLane="free"/>
  <flow id="JF77001" begin="5060" fromJunction="J0" toJunction="J6" end="5120" vehsPerHour="81.24732136666357" departLane="free"/>
  <flow id="JF77002" begin="5060" fromJunction="J0" toJunction="J7" end="5120" vehsPerHour="410.03060146782053" departLane="free"/>
  <flow id="JF77003" begin="5060" fromJunction="J3" toJunction="J0" end="5120" vehsPerHour="3.446998496332199" departLane="free"/>
  <flow id="JF77004" begin="5060" fromJunction="J3" toJunction="J4" end="5120" vehsPerHour="492.7916861625186" departLane="free"/>
  <flow id="JF77005" begin="5060" fromJunction="J3" toJunction="J5" end="5120" vehsPerHour="413.7328686553154" departLane="free"/>
  <flow id="JF77006" begin="5060" fromJunction="J3" toJunction="J6" end="5120" vehsPerHour="423.7938369760066" departLane="free"/>
  <flow id="JF77007" begin="5060" fromJunction="J3" toJunction="J7" end="5120" vehsPerHour="235.73003783786828" departLane="free"/>
  <flow id="JF77008" begin="5060" fromJunction="J4" toJunction="J5" end="5120" vehsPerHour="41.899196912635446" departLane="free"/>
  <flow id="JF77009" begin="5060" fromJunction="J4" toJunction="J7" end="5120" vehsPerHour="194.189401684937" departLane="free"/>
  <flow id="JF77010" begin="5060" fromJunction="J5" toJunction="J0" end="5120" vehsPerHour="69.12232221691629" departLane="free"/>
  <flow id="JF77011" begin="5060" fromJunction="J5" toJunction="J3" end="5120" vehsPerHour="244.7588620705642" departLane="free"/>
  <flow id="JF77012" begin="5060" fromJunction="J5" toJunction="J4" end="5120" vehsPerHour="105.74122473120313" departLane="free"/>
  <flow id="JF77013" begin="5060" fromJunction="J5" toJunction="J7" end="5120" vehsPerHour="243.7825959778352" departLane="free"/>
  <flow id="JF77014" begin="5060" fromJunction="J6" toJunction="J0" end="5120" vehsPerHour="60.56450097441201" departLane="free"/>
  <flow id="JF77015" begin="5060" fromJunction="J6" toJunction="J3" end="5120" vehsPerHour="10.734737049336998" departLane="free"/>
  <flow id="JF77016" begin="5060" fromJunction="J6" toJunction="J4" end="5120" vehsPerHour="17.877760193793552" departLane="free"/>
  <flow id="JF77017" begin="5060" fromJunction="J6" toJunction="J7" end="5120" vehsPerHour="159.99733550776983" departLane="free"/>
  <flow id="JF77018" begin="5060" fromJunction="J7" toJunction="J0" end="5120" vehsPerHour="171.10142679993848" departLane="free"/>
  <flow id="JF77019" begin="5060" fromJunction="J7" toJunction="J3" end="5120" vehsPerHour="87.19603159466396" departLane="free"/>
  <flow id="JF77020" begin="5060" fromJunction="J7" toJunction="J4" end="5120" vehsPerHour="143.35542534297676" departLane="free"/>
  <flow id="JF77021" begin="5060" fromJunction="J7" toJunction="J5" end="5120" vehsPerHour="62.09424667213812" departLane="free"/>
  <flow id="JF77022" begin="5120" fromJunction="J0" toJunction="J4" end="5180" vehsPerHour="19.679063748519226" departLane="free"/>
  <flow id="JF77023" begin="5120" fromJunction="J0" toJunction="J5" end="5180" vehsPerHour="496.2566864731466" departLane="free"/>
  <flow id="JF77024" begin="5120" fromJunction="J0" toJunction="J7" end="5180" vehsPerHour="326.8889859560298" departLane="free"/>
  <flow id="JF77025" begin="5120" fromJunction="J3" toJunction="J0" end="5180" vehsPerHour="326.96807615837434" departLane="free"/>
  <flow id="JF77026" begin="5120" fromJunction="J3" toJunction="J5" end="5180" vehsPerHour="309.1210859082833" departLane="free"/>
  <flow id="JF77027" begin="5120" fromJunction="J4" toJunction="J5" end="5180" vehsPerHour="105.61317844404431" departLane="free"/>
  <flow id="JF77028" begin="5120" fromJunction="J4" toJunction="J6" end="5180" vehsPerHour="118.45017570970379" departLane="free"/>
  <flow id="JF77029" begin="5120" fromJunction="J4" toJunction="J7" end="5180" vehsPerHour="119.08048454656657" departLane="free"/>
  <flow id="JF77030" begin="5120" fromJunction="J5" toJunction="J0" end="5180" vehsPerHour="151.07029183064873" departLane="free"/>
  <flow id="JF77031" begin="5120" fromJunction="J5" toJunction="J3" end="5180" vehsPerHour="39.17576145005732" departLane="free"/>
  <flow id="JF77032" begin="5120" fromJunction="J5" toJunction="J6" end="5180" vehsPerHour="238.62196279939144" departLane="free"/>
  <flow id="JF77033" begin="5120" fromJunction="J5" toJunction="J7" end="5180" vehsPerHour="73.24416918976397" departLane="free"/>
  <flow id="JF77034" begin="5120" fromJunction="J6" toJunction="J5" end="5180" vehsPerHour="182.56825881776712" departLane="free"/>
  <flow id="JF77035" begin="5120" fromJunction="J6" toJunction="J7" end="5180" vehsPerHour="143.40458294608436" departLane="free"/>
  <flow id="JF77036" begin="5120" fromJunction="J7" toJunction="J0" end="5180" vehsPerHour="108.94925697871103" departLane="free"/>
  <flow id="JF77037" begin="5120" fromJunction="J7" toJunction="J3" end="5180" vehsPerHour="159.36063691645552" departLane="free"/>
  <flow id="JF77038" begin="5120" fromJunction="J7" toJunction="J4" end="5180" vehsPerHour="234.31380391793994" departLane="free"/>
  <flow id="JF77039" begin="5180" fromJunction="J0" toJunction="J3" end="5240" vehsPerHour="493.4567915580544" departLane="free"/>
  <flow id="JF77040" begin="5180" fromJunction="J0" toJunction="J4" end="5240" vehsPerHour="115.81997428965845" departLane="free"/>
  <flow id="JF77041" begin="5180" fromJunction="J0" toJunction="J5" end="5240" vehsPerHour="187.16805772175917" departLane="free"/>
  <flow id="JF77042" begin="5180" fromJunction="J0" toJunction="J6" end="5240" vehsPerHour="221.62438507629508" departLane="free"/>
  <flow id="JF77043" begin="5180" fromJunction="J3" toJunction="J4" end="5240" vehsPerHour="83.53993118863511" departLane="free"/>
  <flow id="JF77044" begin="5180" fromJunction="J3" toJunction="J7" end="5240" vehsPerHour="52.98580874667183" departLane="free"/>
  <flow id="JF77045" begin="5180" fromJunction="J4" toJunction="J0" end="5240" vehsPerHour="26.05372823736009" departLane="free"/>
  <flow id="JF77046" begin="5180" fromJunction="J4" toJunction="J3" end="5240" vehsPerHour="116.8450969845996" departLane="free"/>
  <flow id="JF77047" begin="5180" fromJunction="J4" toJunction="J5" end="5240" vehsPerHour="170.68022206207422" departLane="free"/>
  <flow id="JF77048" begin="5180" fromJunction="J4" toJunction="J6" end="5240" vehsPerHour="76.87593916317658" departLane="free"/>
  <flow id="JF77049" begin="5180" fromJunction="J4" toJunction="J7" end="5240" vehsPerHour="155.19412529772586" departLane="free"/>
  <flow id="JF77050" begin="5180" fromJunction="J5" toJunction="J0" end="5240" vehsPerHour="256.0177797658887" departLane="free"/>
  <flow id="JF77051" begin="5180" fromJunction="J5" toJunction="J4" end="5240" vehsPerHour="73.27327664022545" departLane="free"/>
  <flow id="JF77052" begin="5180" fromJunction="J5" toJunction="J6" end="5240" vehsPerHour="103.74931022501377" departLane="free"/>
  <flow id="JF77053" begin="5180" fromJunction="J5" toJunction="J7" end="5240" vehsPerHour="148.5842989809066" departLane="free"/>
  <flow id="JF77054" begin="5180" fromJunction="J6" toJunction="J0" end="5240" vehsPerHour="27.85654569597679" departLane="free"/>
  <flow id="JF77055" begin="5180" fromJunction="J6" toJunction="J3" end="5240" vehsPerHour="1.7444161531894875" departLane="free"/>
  <flow id="JF77056" begin="5180" fromJunction="J6" toJunction="J4" end="5240" vehsPerHour="22.114834672588522" departLane="free"/>
  <flow id="JF77057" begin="5180" fromJunction="J6" toJunction="J5" end="5240" vehsPerHour="248.59958216771426" departLane="free"/>
  <flow id="JF77058" begin="5180" fromJunction="J6" toJunction="J7" end="5240" vehsPerHour="6.021982905065734" departLane="free"/>
  <flow id="JF77059" begin="5180" fromJunction="J7" toJunction="J0" end="5240" vehsPerHour="105.6294867515391" departLane="free"/>
  <flow id="JF77060" begin="5180" fromJunction="J7" toJunction="J3" end="5240" vehsPerHour="149.48570640540098" departLane="free"/>
  <flow id="JF77061" begin="5180" fromJunction="J7" toJunction="J4" end="5240" vehsPerHour="30.777926890188887" departLane="free"/>
  <flow id="JF77062" begin="5180" fromJunction="J7" toJunction="J5" end="5240" vehsPerHour="154.74587621271024" departLane="free"/>
  <flow id="JF77063" begin="5180" fromJunction="J7" toJunction="J6" end="5240" vehsPerHour="159.49006058051486" departLane="free"/>
  <flow id="JF77064" begin="5240" fromJunction="J0" toJunction="J3" end="5300" vehsPerHour="242.15179423349227" departLane="free"/>
  <flow id="JF77065" begin="5240" fromJunction="J0" toJunction="J4" end="5300" vehsPerHour="148.4981927815265" departLane="free"/>
  <flow id="JF77066" begin="5240" fromJunction="J0" toJunction="J5" end="5300" vehsPerHour="90.89086593724048" departLane="free"/>
  <flow id="JF77067" begin="5240" fromJunction="J3" toJunction="J0" end="5300" vehsPerHour="333.7874132277295" departLane="free"/>
  <flow id="JF77068" begin="5240" fromJunction="J3" toJunction="J5" end="5300" vehsPerHour="307.9344654304192" departLane="free"/>
  <flow id="JF77069" begin="5240" fromJunction="J3" toJunction="J6" end="5300" vehsPerHour="169.3980651313865" departLane="free"/>
  <flow id="JF77070" begin="5240" fromJunction="J3" toJunction="J7" end="5300" vehsPerHour="210.67561017338707" departLane="free"/>
  <flow id="JF77071" begin="5240" fromJunction="J4" toJunction="J3" end="5300" vehsPerHour="272.5399150875286" departLane="free"/>
  <flow id="JF77072" begin="5240" fromJunction="J4" toJunction="J5" end="5300" vehsPerHour="170.60938677031865" departLane="free"/>
  <flow id="JF77073" begin="5240" fromJunction="J4" toJunction="J6" end="5300" vehsPerHour="117.51101310173149" departLane="free"/>
  <flow id="JF77074" begin="5240" fromJunction="J4" toJunction="J7" end="5300" vehsPerHour="43.53474570305443" departLane="free"/>
  <flow id="JF77075" begin="5240" fromJunction="J5" toJunction="J0" end="5300" vehsPerHour="142.07715751373883" departLane="free"/>
  <flow id="JF77076" begin="5240" fromJunction="J5" toJunction="J3" end="5300" vehsPerHour="262.36594295941387" departLane="free"/>
  <flow id="JF77077" begin="5240" fromJunction="J5" toJunction="J4" end="5300" vehsPerHour="221.14369359739524" departLane="free"/>
  <flow id="JF77078" begin="5240" fromJunction="J5" toJunction="J7" end="5300" vehsPerHour="207.33891153953874" departLane="free"/>
  <flow id="JF77079" begin="5240" fromJunction="J6" toJunction="J0" end="5300" vehsPerHour="109.4020647055401" departLane="free"/>
  <flow id="JF77080" begin="5240" fromJunction="J6" toJunction="J3" end="5300" vehsPerHour="211.1130977493283" departLane="free"/>
  <flow id="JF77081" begin="5240" fromJunction="J6" toJunction="J4" end="5300" vehsPerHour="20.98976156332848" departLane="free"/>
  <flow id="JF77082" begin="5240" fromJunction="J6" toJunction="J5" end="5300" vehsPerHour="264.7953796000688" departLane="free"/>
  <flow id="JF77083" begin="5240" fromJunction="J7" toJunction="J4" end="5300" vehsPerHour="47.574399848376615" departLane="free"/>
  <flow id="JF77084" begin="5240" fromJunction="J7" toJunction="J6" end="5300" vehsPerHour="196.61188516975147" departLane="free"/>
  <flow id="JF77085" begin="5300" fromJunction="J0" toJunction="J6" end="5360" vehsPerHour="474.74606285740174" departLane="free"/>
  <flow id="JF77086" begin="5300" fromJunction="J3" toJunction="J0" end="5360" vehsPerHour="99.64126728969667" departLane="free"/>
  <flow id="JF77087" begin="5300" fromJunction="J3" toJunction="J4" end="5360" vehsPerHour="152.67524895476168" departLane="free"/>
  <flow id="JF77088" begin="5300" fromJunction="J3" toJunction="J5" end="5360" vehsPerHour="222.18121958042354" departLane="free"/>
  <flow id="JF77089" begin="5300" fromJunction="J3" toJunction="J7" end="5360" vehsPerHour="330.99218515194696" departLane="free"/>
  <flow id="JF77090" begin="5300" fromJunction="J4" toJunction="J0" end="5360" vehsPerHour="23.249584536174197" departLane="free"/>
  <flow id="JF77091" begin="5300" fromJunction="J4" toJunction="J3" end="5360" vehsPerHour="11.88492097310909" departLane="free"/>
  <flow id="JF77092" begin="5300" fromJunction="J4" toJunction="J5" end="5360" vehsPerHour="139.77750179235954" departLane="free"/>
  <flow id="JF77093" begin="5300" fromJunction="J4" toJunction="J6" end="5360" vehsPerHour="181.15690310781588" departLane="free"/>
  <flow id="JF77094" begin="5300" fromJunction="J5" toJunction="J3" end="5360" vehsPerHour="11.298779429551018" departLane="free"/>
  <flow id="JF77095" begin="5300" fromJunction="J5" toJunction="J4" end="5360" vehsPerHour="187.61111482976943" departLane="free"/>
  <flow id="JF77096" begin="5300" fromJunction="J5" toJunction="J6" end="5360" vehsPerHour="152.7568125422252" departLane="free"/>
  <flow id="JF77097" begin="5300" fromJunction="J6" toJunction="J0" end="5360" vehsPerHour="186.85756068581148" departLane="free"/>
  <flow id="JF77098" begin="5300" fromJunction="J6" toJunction="J3" end="5360" vehsPerHour="151.96172771474053" departLane="free"/>
  <flow id="JF77099" begin="5300" fromJunction="J6" toJunction="J7" end="5360" vehsPerHour="135.1242227592311" departLane="free"/>
  <flow id="JF77100" begin="5300" fromJunction="J7" toJunction="J3" end="5360" vehsPerHour="273.8406300989849" departLane="free"/>
  <flow id="JF77101" begin="5300" fromJunction="J7" toJunction="J4" end="5360" vehsPerHour="246.71326448764074" departLane="free"/>
  <flow id="JF77102" begin="5300" fromJunction="J7" toJunction="J5" end="5360" vehsPerHour="192.43556990223354" departLane="free"/>
  <flow id="JF77103" begin="5300" fromJunction="J7" toJunction="J6" end="5360" vehsPerHour="128.10554158469338" departLane="free"/>
  <flow id="JF77104" begin="5360" fromJunction="J0" toJunction="J4" end="5420" vehsPerHour="347.1791211721184" departLane="free"/>
  <flow id="JF77105" begin="5360" fromJunction="J0" toJunction="J6" end="5420" vehsPerHour="280.9649311650635" departLane="free"/>
  <flow id="JF77106" begin="5360" fromJunction="J0" toJunction="J7" end="5420" vehsPerHour="460.02921955241067" departLane="free"/>
  <flow id="JF77107" begin="5360" fromJunction="J3" toJunction="J0" end="5420" vehsPerHour="530.1874221750058" departLane="free"/>
  <flow id="JF77108" begin="5360" fromJunction="J3" toJunction="J4" end="5420" vehsPerHour="303.5319985664993" departLane="free"/>
  <flow id="JF77109" begin="5360" fromJunction="J4" toJunction="J0" end="5420" vehsPerHour="86.44439268934816" departLane="free"/>
  <flow id="JF77110" begin="5360" fromJunction="J4" toJunction="J3" end="5420" vehsPerHour="140.83797999127694" departLane="free"/>
  <flow id="JF77111" begin="5360" fromJunction="J4" toJunction="J5" end="5420" vehsPerHour="84.50666972646313" departLane="free"/>
  <flow id="JF77112" begin="5360" fromJunction="J4" toJunction="J7" end="5420" vehsPerHour="250.49387853215268" departLane="free"/>
  <flow id="JF77113" begin="5360" fromJunction="J5" toJunction="J0" end="5420" vehsPerHour="263.40768596003136" departLane="free"/>
  <flow id="JF77114" begin="5360" fromJunction="J5" toJunction="J3" end="5420" vehsPerHour="21.01897367725531" departLane="free"/>
  <flow id="JF77115" begin="5360" fromJunction="J5" toJunction="J4" end="5420" vehsPerHour="192.1267791001169" departLane="free"/>
  <flow id="JF77116" begin="5360" fromJunction="J5" toJunction="J6" end="5420" vehsPerHour="254.87316362282456" departLane="free"/>
  <flow id="JF77117" begin="5360" fromJunction="J5" toJunction="J7" end="5420" vehsPerHour="219.7764814701403" departLane="free"/>
  <flow id="JF77118" begin="5360" fromJunction="J6" toJunction="J0" end="5420" vehsPerHour="99.66059985132402" departLane="free"/>
  <flow id="JF77119" begin="5360" fromJunction="J6" toJunction="J3" end="5420" vehsPerHour="260.18553845701706" departLane="free"/>
  <flow id="JF77120" begin="5360" fromJunction="J6" toJunction="J5" end="5420" vehsPerHour="202.88578626128756" departLane="free"/>
  <flow id="JF77121" begin="5360" fromJunction="J6" toJunction="J7" end="5420" vehsPerHour="59.06757111100175" departLane="free"/>
  <flow id="JF77122" begin="5360" fromJunction="J7" toJunction="J0" end="5420" vehsPerHour="181.57360866136574" departLane="free"/>
  <flow id="JF77123" begin="5360" fromJunction="J7" toJunction="J4" end="5420" vehsPerHour="204.0028248390194" departLane="free"/>
  <flow id="JF77124" begin="5360" fromJunction="J7" toJunction="J5" end="5420" vehsPerHour="162.46702046838462" departLane="free"/>
  <flow id="JF77125" begin="5420" fromJunction="J0" toJunction="J3" end="5480" vehsPerHour="216.38082907467384" departLane="free"/>
  <flow id="JF77126" begin="5420" fromJunction="J0" toJunction="J5" end="5480" vehsPerHour="381.18366628647124" departLane="free"/>
  <flow id="JF77127" begin="5420" fromJunction="J0" toJunction="J6" end="5480" vehsPerHour="475.90613708100585" departLane="free"/>
  <flow id="JF77128" begin="5420" fromJunction="J3" toJunction="J4" end="5480" vehsPerHour="246.2880385460803" departLane="free"/>
  <flow id="JF77129" begin="5420" fromJunction="J3" toJunction="J5" end="5480" vehsPerHour="532.6209934027157" departLane="free"/>
  <flow id="JF77130" begin="5420" fromJunction="J3" toJunction="J6" end="5480" vehsPerHour="45.24915672614442" departLane="free"/>
  <flow id="JF77131" begin="5420" fromJunction="J4" toJunction="J6" end="5480" vehsPerHour="222.05344348832358" departLane="free"/>
  <flow id="JF77132" begin="5420" fromJunction="J4" toJunction="J7" end="5480" vehsPerHour="0.8675264216881371" departLane="free"/>
  <flow id="JF77133" begin="5420" fromJunction="J5" toJunction="J0" end="5480" vehsPerHour="19.88978740834059" departLane="free"/>
  <flow id="JF77134" begin="5420" fromJunction="J5" toJunction="J3" end="5480" vehsPerHour="22.62237384446204" departLane="free"/>
  <flow id="JF77135" begin="5420" fromJunction="J5" toJunction="J4" end="5480" vehsPerHour="159.94786047270424" departLane="free"/>
  <flow id="JF77136" begin="5420" fromJunction="J5" toJunction="J6" end="5480" vehsPerHour="230.04896120453688" departLane="free"/>
  <flow id="JF77137" begin="5420" fromJunction="J5" toJunction="J7" end="5480" vehsPerHour="20.46716483643029" departLane="free"/>
  <flow id="JF77138" begin="5420" fromJunction="J6" toJunction="J3" end="5480" vehsPerHour="243.58150199666738" departLane="free"/>
  <flow id="JF77139" begin="5420" fromJunction="J6" toJunction="J4" end="5480" vehsPerHour="222.83054772423543" departLane="free"/>
  <flow id="JF77140" begin="5420" fromJunction="J6" toJunction="J7" end="5480" vehsPerHour="24.165393620570885" departLane="free"/>
  <flow id="JF77141" begin="5420" fromJunction="J7" toJunction="J0" end="5480" vehsPerHour="148.08683981328537" departLane="free"/>
  <flow id="JF77142" begin="5420" fromJunction="J7" toJunction="J4" end="5480" vehsPerHour="52.69581347666707" departLane="free"/>
  <flow id="JF77143" begin="5420" fromJunction="J7" toJunction="J5" end="5480" vehsPerHour="201.60022461923592" departLane="free"/>
  <flow id="JF77144" begin="5420" fromJunction="J7" toJunction="J6" end="5480" vehsPerHour="91.0895633700904" departLane="free"/>
  <flow id="JF77145" begin="5480" fromJunction="J0" toJunction="J3" end="5540" vehsPerHour="518.2051423966644" departLane="free"/>
  <flow id="JF77146" begin="5480" fromJunction="J0" toJunction="J4" end="5540" vehsPerHour="480.95369980704874" departLane="free"/>
  <flow id="JF77147" begin="5480" fromJunction="J0" toJunction="J5" end="5540" vehsPerHour="311.7688058702982" departLane="free"/>
  <flow id="JF77148" begin="5480" fromJunction="J0" toJunction="J6" end="5540" vehsPerHour="16.81473509569782" departLane="free"/>
  <flow id="JF77149" begin="5480" fromJunction="J3" toJunction="J5" end="5540" vehsPerHour="62.36693482035884" departLane="free"/>
  <flow id="JF77150" begin="5480" fromJunction="J3" toJunction="J7" end="5540" vehsPerHour="522.161635482239" departLane="free"/>
  <flow id="JF77151" begin="5480" fromJunction="J4" toJunction="J0" end="5540" vehsPerHour="65.85910676509806" departLane="free"/>
  <flow id="JF77152" begin="5480" fromJunction="J4" toJunction="J3" end="5540" vehsPerHour="263.05899669932114" departLane="free"/>
  <flow id="JF77153" begin="5480" fromJunction="J5" toJunction="J3" end="5540" vehsPerHour="0.5440728128685626" departLane="free"/>
  <flow id="JF77154" begin="5480" fromJunction="J5" toJunction="J4" end="5540" vehsPerHour="128.11395071421575" departLane="free"/>
  <flow id="JF77155" begin="5480" fromJunction="J5" toJunction="J6" end="5540" vehsPerHour="216.8567685967277" departLane="free"/>
  <flow id="JF77156" begin="5480" fromJunction="J5" toJunction="J7" end="5540" vehsPerHour="272.6635258608331" departLane="free"/>
  <flow id="JF77157" begin="5480" fromJunction="J6" toJunction="J4" end="5540" vehsPerHour="187.07845416989656" departLane="free"/>
  <flow id="JF77158" begin="5480" fromJunction="J6" toJunction="J5" end="5540" vehsPerHour="143.28083371149356" departLane="free"/>
  <flow id="JF77159" begin="5480" fromJunction="J6" toJunction="J7" end="5540" vehsPerHour="239.46997735101843" departLane="free"/>
  <flow id="JF77160" begin="5480" fromJunction="J7" toJunction="J0" end="5540" vehsPerHour="265.5159565375627" departLane="free"/>
  <flow id="JF77161" begin="5480" fromJunction="J7" toJunction="J3" end="5540" vehsPerHour="234.33969504718902" departLane="free"/>
  <flow id="JF77162" begin="5480" fromJunction="J7" toJunction="J4" end="5540" vehsPerHour="193.99736058386904" departLane="free"/>
  <flow id="JF77163" begin="5480" fromJunction="J7" toJunction="J5" end="5540" vehsPerHour="4.222246444435496" departLane="free"/>
  <flow id="JF77164" begin="5480" fromJunction="J7" toJunction="J6" end="5540" vehsPerHour="24.316793643712877" departLane="free"/>
  <flow id="JF77165" begin="5540" fromJunction="J0" toJunction="J5" end="5600" vehsPerHour="351.8913362164229" departLane="free"/>
  <flow id="JF77166" begin="5540" fromJunction="J0" toJunction="J6" end="5600" vehsPerHour="250.33935546560144" departLane="free"/>
  <flow id="JF77167" begin="5540" fromJunction="J3" toJunction="J5" end="5600" vehsPerHour="432.99944094268795" departLane="free"/>
  <flow id="JF77168" begin="5540" fromJunction="J3" toJunction="J6" end="5600" vehsPerHour="152.059068442378" departLane="free"/>
  <flow id="JF77169" begin="5540" fromJunction="J4" toJunction="J0" end="5600" vehsPerHour="235.57642446242377" departLane="free"/>
  <flow id="JF77170" begin="5540" fromJunction="J4" toJunction="J3" end="5600" vehsPerHour="199.58469980293788" departLane="free"/>
  <flow id="JF77171" begin="5540" fromJunction="J4" toJunction="J5" end="5600" vehsPerHour="113.47806788892457" departLane="free"/>
  <flow id="JF77172" begin="5540" fromJunction="J4" toJunction="J7" end="5600" vehsPerHour="139.56197487838867" departLane="free"/>
  <flow id="JF77173" begin="5540" fromJunction="J5" toJunction="J0" end="5600" vehsPerHour="133.52117080359113" departLane="free"/>