<?xml version="1.0" encoding="UTF-8"?>
<routes xmlns:xsi="http://www.w3.org/2001/XMLSchema-instance" xsi:noNamespaceSchemaLocation="http://sumo.dlr.de/xsd/routes_file.xsd">
  <flow id="JF391537" begin="0" fromJunction="J3" toJunction="J0" end="10000" vehsPerHour="497.9638757642569" departLane="free"/>
  <flow id="JF391538" begin="0" fromJunction="J0" toJunction="J3" end="10000" vehsPerHour="394.7746311973329" departLane="free"/>
  <flow id="JF391539" begin="0" fromJunction="J3" toJunction="J7" end="10000" vehsPerHour="54.84320184479465" departLane="free"/>
  <flow id="JF391540" begin="0" fromJunction="J3" toJunction="J5" end="10000" vehsPerHour="17.26134594822946" departLane="free"/>
  <flow id="JF391541" begin="0" fromJunction="J3" toJunction="J6" end="10000" vehsPerHour="49.5864827561763" departLane="free"/>
  <flow id="JF391542" begin="0" fromJunction="J3" toJunction="J4" end="10000" vehsPerHour="44.51340231439249" departLane="free"/>
  <flow id="JF391543" begin="0" fromJunction="J0" toJunction="J7" end="10000" vehsPerHour="37.129664814968706" departLane="free"/>
  <flow id="JF391544" begin="0" fromJunction="J0" toJunction="J5" end="10000" vehsPerHour="56.14413127583727" departLane="free"/>
  <flow id="JF391545" begin="0" fromJunction="J0" toJunction="J6" end="10000" vehsPerHour="31.115358851260112" departLane="free"/>
  <flow id="JF391546" begin="0" fromJunction="J0" toJunction="J4" end="10000" vehsPerHour="11.47629099544431" departLane="free"/>
  <flow id="JF391547" begin="0" fromJunction="J7" toJunction="J5" end="10000" vehsPerHour="67.45365826024518" departLane="free"/>
  <flow id="JF391548" begin="0" fromJunction="J7" toJunction="J6" end="10000" vehsPerHour="25.74527081764091" departLane="free"/>
  <flow id="JF391549" begin="0" fromJunction="J7" toJunction="J4" end="10000" vehsPerHour="49.553809209897416" departLane="free"/>
  <flow id="JF391550" begin="0" fromJunction="J5" toJunction="J7" end="10000" vehsPerHour="4.759944774333001" departLane="free"/>
  <flow id="JF391551" begin="0" fromJunction="J5" toJunction="J6" end="10000" vehsPerHour="17.045148428283092" departLane="free"/>
  <flow id="JF391552" begin="0" fromJunction="J5" toJunction="J4" end="10000" vehsPerHour="49.19072229750278" departLane="free"/>
  <flow id="JF391553" begin="0" fromJunction="J6" toJunction="J7" end="10000" vehsPerHour="33.0949886318826" departLane="free"/>
  <flow id="JF391554" begin="0" fromJunction="J6" toJunction="J5" end="10000" vehsPerHour="50.33718053463236" departLane="free"/>
  <flow id="JF391555" begin="0" fromJunction="J6" toJunction="J4" end="10000" vehsPerHour="11.874621989648684" departLane="free"/>
  <flow id="JF391556" begin="0" fromJunction="J4" toJunction="J7" end="10000" vehsPerHour="10.527250179114295" departLane="free"/>
  <flow id="JF391557" begin="0" fromJunction="J4" toJunction="J5" end="10000" vehsPerHour="33.76388742511176" departLane="free"/>
  <flow id="JF391558" begin="0" fromJunction="J4" toJunction="J6" end="10000" vehsPerHour="18.246352262479874" departLane="free"/>
  <flow id="JF391559" begin="0" fromJunction="J7" toJunction="J3" end="10000" vehsPerHour="10.688685499892049" departLane="free"/>
  <flow id="JF391560" begin="0" fromJunction="J7" toJunction="J0" end="10000" vehsPerHour="49.16427886632169" departLane="free"/>
  <flow id="JF391561" begin="0" fromJunction="J5" toJunction="J3" end="10000" vehsPerHour="50.48598028665807" departLane="free"/>
  <flow id="JF391562" begin="0" fromJunction="J5" toJunction="J0" end="10000" vehsPerHour="36.74666955495499" departLane="free"/>
  <flow id="JF391563" begin="0" fromJunction="J6" toJunction="J3" end="10000" vehsPerHour="17.279688225909762" departLane="free"/>
  <flow id="JF391564" begin="0" fromJunction="J6" toJunction="J0" end="10000" vehsPerHour="17.468479825356816" departLane="free"/>
  <flow id="JF391565" begin="0" fromJunction="J4" toJunction="J3" end="10000" vehsPerHour="38.48223769863152" departLane="free"/>
  <flow id="JF391566" begin="0" fromJunction="J4" toJunction="J0" end="10000" vehsPerHour="19.635323644152475" departLane="free"/>
</routes>