<?xml version="1.0" encoding="UTF-8"?>
<routes xmlns:xsi="http://www.w3.org/2001/XMLSchema-instance" xsi:noNamespaceSchemaLocation="http://sumo.dlr.de/xsd/routes_file.xsd">
  <flow id="JF89467" begin="0" fromJunction="J0" toJunction="J3" end="5000" vehsPerHour="753.6352927296244" departLane="free"/>
  <flow id="JF89468" begin="0" fromJunction="J3" toJunction="J0" end="5000" vehsPerHour="909.7683882589979" departLane="free"/>
  <flow id="JF89469" begin="0" fromJunction="J0" toJunction="J5" end="5000" vehsPerHour="425.9274392018033" departLane="free"/>
  <flow id="JF89470" begin="0" fromJunction="J0" toJunction="J7" end="5000" vehsPerHour="2.7355395062409555" departLane="free"/>
  <flow id="JF89471" begin="0" fromJunction="J0" toJunction="J4" end="5000" vehsPerHour="230.66830035022656" departLane="free"/>
  <flow id="JF89472" begin="0" fromJunction="J0" toJunction="J6" end="5000" vehsPerHour="106.41411793994052" departLane="free"/>
  <flow id="JF89473" begin="0" fromJunction="J3" toJunction="J5" end="5000" vehsPerHour="295.21854574160466" departLane="free"/>
  <flow id="JF89474" begin="0" fromJunction="J3" toJunction="J7" end="5000" vehsPerHour="159.54743877802431" departLane="free"/>
  <flow id="JF89475" begin="0" fromJunction="J3" toJunction="J4" end="5000" vehsPerHour="119.50152659140787" departLane="free"/>
  <flow id="JF89476" begin="0" fromJunction="J3" toJunction="J6" end="5000" vehsPerHour="143.36263002793046" departLane="free"/>
  <flow id="JF89477" begin="0" fromJunction="J5" toJunction="J7" end="5000" vehsPerHour="14.494630517889329" departLane="free"/>
  <flow id="JF89478" begin="0" fromJunction="J5" toJunction="J4" end="5000" vehsPerHour="54.32740347330254" departLane="free"/>
  <flow id="JF89479" begin="0" fromJunction="J5" toJunction="J6" end="5000" vehsPerHour="68.5441009503798" departLane="free"/>
  <flow id="JF89480" begin="0" fromJunction="J7" toJunction="J5" end="5000" vehsPerHour="2.14380572690524" departLane="free"/>
  <flow id="JF89481" begin="0" fromJunction="J7" toJunction="J4" end="5000" vehsPerHour="39.54942403313882" departLane="free"/>
  <flow id="JF89482" begin="0" fromJunction="J7" toJunction="J6" end="5000" vehsPerHour="8.715511161324823" departLane="free"/>
  <flow id="JF89483" begin="0" fromJunction="J4" toJunction="J5" end="5000" vehsPerHour="97.96040663884894" departLane="free"/>
  <flow id="JF89484" begin="0" fromJunction="J4" toJunction="J7" end="5000" vehsPerHour="177.05876675257372" departLane="free"/>
  <flow id="JF89485" begin="0" fromJunction="J4" toJunction="J6" end="5000" vehsPerHour="220.74035885194843" departLane="free"/>
  <flow id="JF89486" begin="0" fromJunction="J6" toJunction="J5" end="5000" vehsPerHour="161.4628054763071" departLane="free"/>
  <flow id="JF89487" begin="0" fromJunction="J6" toJunction="J7" end="5000" vehsPerHour="246.16922135120066" departLane="free"/>
  <flow id="JF89488" begin="0" fromJunction="J6" toJunction="J4" end="5000" vehsPerHour="99.71655249598868" departLane="free"/>
  <flow id="JF89489" begin="0" fromJunction="J5" toJunction="J0" end="5000" vehsPerHour="143.55710907794068" departLane="free"/>
  <flow id="JF89490" begin="0" fromJunction="J5" toJunction="J3" end="5000" vehsPerHour="69.01513382560915" departLane="free"/>
  <flow id="JF89491" begin="0" fromJunction="J7" toJunction="J0" end="5000" vehsPerHour="162.26117308278444" departLane="free"/>
  <flow id="JF89492" begin="0" fromJunction="J7" toJunction="J3" end="5000" vehsPerHour="13.119449524793218" departLane="free"/>
  <flow id="JF89493" begin="0" fromJunction="J4" toJunction="J0" end="5000" vehsPerHour="254.50947811414318" departLane="free"/>
  <flow id="JF89494" begin="0" fromJunction="J4" toJunction="J3" end="5000" vehsPerHour="234.02380553058066" departLane="free"/>
  <flow id="JF89495" begin="0" fromJunction="J6" toJunction="J0" end="5000" vehsPerHour="134.19737752816067" departLane="free"/>
  <flow id="JF89496" begin="0" fromJunction="J6" toJunction="J3" end="5000" vehsPerHour="196.8750428117609" departLane="free"/>
  <flow id="JF89497" begin="5000" fromJunction="J0" toJunction="J3" end="5060" vehsPerHour="206.75890394718326" departLane="free"/>
  <flow id="JF89498" begin="5000" fromJunction="J0" toJunction="J4" end="5060" vehsPerHour="477.2717260958181" departLane="free"/>
  <flow id="JF89499" begin="5000" fromJunction="J0" toJunction="J5" end="5060" vehsPerHour="460.49104449880633" departLane="free"/>
  <flow id="JF89500" begin="5000" fromJunction="J0" toJunction="J6" end="5060" vehsPerHour="237.880518125198" departLane="free"/>
  <flow id="JF89501" begin="5000" fromJunction="J3" toJunction="J0" end="5060" vehsPerHour="542.0556019237448" departLane="free"/>
  <flow id="JF89502" begin="5000" fromJunction="J3" toJunction="J5" end="5060" vehsPerHour="116.2152894348778" departLane="free"/>
  <flow id="JF89503" begin="5000" fromJunction="J3" toJunction="J6" end="5060" vehsPerHour="93.43162472193222" departLane="free"/>
  <flow id="JF89504" begin="5000" fromJunction="J4" toJunction="J0" end="5060" vehsPerHour="32.92923565601221" departLane="free"/>
  <flow id="JF89505" begin="5000" fromJunction="J4" toJunction="J3" end="5060" vehsPerHour="213.94848944988138" departLane="free"/>
  <flow id="JF89506" begin="5000" fromJunction="J4" toJunction="J6" end="5060" vehsPerHour="13.257097144313931" departLane="free"/>
  <flow id="JF89507" begin="5000" fromJunction="J4" toJunction="J7" end="5060" vehsPerHour="64.02334432226024" departLane="free"/>
  <flow id="JF89508" begin="5000" fromJunction="J5" toJunction="J0" end="5060" vehsPerHour="204.53011370020062" departLane="free"/>
  <flow id="JF89509" begin="5000" fromJunction="J5" toJunction="J3" end="5060" vehsPerHour="65.13170689753045" departLane="free"/>
  <flow id="JF89510" begin="5000" fromJunction="J5" toJunction="J7" end="5060" vehsPerHour="51.41851858093429" departLane="free"/>
  <flow id="JF89511" begin="5000" fromJunction="J6" toJunction="J0" end="5060" vehsPerHour="137.4988956854139" departLane="free"/>
  <flow id="JF89512" begin="5000" fromJunction="J6" toJunction="J4" end="5060" vehsPerHour="128.32903913365223" departLane="free"/>
  <flow id="JF89513" begin="5000" fromJunction="J6" toJunction="J5" end="5060" vehsPerHour="206.74817481354404" departLane="free"/>
  <flow id="JF89514" begin="5000" fromJunction="J7" toJunction="J0" end="5060" vehsPerHour="156.9316979512791" departLane="free"/>
  <flow id="JF89515" begin="5000" fromJunction="J7" toJunction="J3" end="5060" vehsPerHour="256.9024308752844" departLane="free"/>
  <flow id="JF89516" begin="5000" fromJunction="J7" toJunction="J4" end="5060" vehsPerHour="40.136611018996966" departLane="free"/>
  <flow id="JF89517" begin="5000" fromJunction="J7" toJunction="J5" end="5060" vehsPerHour="223.88679118915417" departLane="free"/>
  <flow id="JF89518" begin="5000" fromJunction="J7" toJunction="J6" end="5060" vehsPerHour="121.53361117914667" departLane="free"/>
  <flow id="JF89519" begin="5060" fromJunction="J0" toJunction="J3" end="5120" vehsPerHour="251.43316080008518" departLane="free"/>
  <flow id="JF89520" begin="5060" fromJunction="J0" toJunction="J4" end="5120" vehsPerHour="23.59275729594062" departLane="free"/>
  <flow id="JF89521" begin="5060" fromJunction="J0" toJunction="J5" end="5120" vehsPerHour="474.392760857428" departLane="free"/>
  <flow id="JF89522" begin="5060" fromJunction="J0" toJunction="J6" end="5120" vehsPerHour="104.97857026687372" departLane="free"/>
  <flow id="JF89523" begin="5060" fromJunction="J0" toJunction="J7" end="5120" vehsPerHour="473.9728525962927" departLane="free"/>
  <flow id="JF89524" begin="5060" fromJunction="J3" toJunction="J0" end="5120" vehsPerHour="137.93630222708447" departLane="free"/>
  <flow id="JF89525" begin="5060" fromJunction="J3" toJunction="J4" end="5120" vehsPerHour="49.189628761168684" departLane="free"/>
  <flow id="JF89526" begin="5060" fromJunction="J3" toJunction="J5" end="5120" vehsPerHour="126.70890336230342" departLane="free"/>
  <flow id="JF89527" begin="5060" fromJunction="J3" toJunction="J6" end="5120" vehsPerHour="53.05836871922978" departLane="free"/>
  <flow id="JF89528" begin="5060" fromJunction="J4" toJunction="J0" end="5120" vehsPerHour="239.75698896261088" departLane="free"/>
  <flow id="JF89529" begin="5060" fromJunction="J4" toJunction="J5" end="5120" vehsPerHour="175.36395002662297" departLane="free"/>
  <flow id="JF89530" begin="5060" fromJunction="J4" toJunction="J7" end="5120" vehsPerHour="9.022655675432807" departLane="free"/>
  <flow id="JF89531" begin="5060" fromJunction="J5" toJunction="J0" end="5120" vehsPerHour="175.47313656635293" departLane="free"/>
  <flow id="JF89532" begin="5060" fromJunction="J5" toJunction="J3" end="5120" vehsPerHour="28.76000923036441" departLane="free"/>
  <flow id="JF89533" begin="5060" fromJunction="J5" toJunction="J4" end="5120" vehsPerHour="242.1324951772011" departLane="free"/>
  <flow id="JF89534" begin="5060" fromJunction="J5" toJunction="J6" end="5120" vehsPerHour="90.45481138932416" departLane="free"/>
  <flow id="JF89535" begin="5060" fromJunction="J5" toJunction="J7" end="5120" vehsPerHour="215.16984654523787" departLane="free"/>
  <flow id="JF89536" begin="5060" fromJunction="J6" toJunction="J0" end="5120" vehsPerHour="230.68929284562637" departLane="free"/>
  <flow id="JF89537" begin="5060" fromJunction="J6" toJunction="J3" end="5120" vehsPerHour="1.5740260860467647" departLane="free"/>
  <flow id="JF89538" begin="5060" fromJunction="J6" toJunction="J4" end="5120" vehsPerHour="129.79747741419914" departLane="free"/>
  <flow id="JF89539" begin="5060" fromJunction="J6" toJunction="J5" end="5120" vehsPerHour="172.6871469439443" departLane="free"/>
  <flow id="JF89540" begin="5060" fromJunction="J6" toJunction="J7" end="5120" vehsPerHour="125.86814228567526" departLane="free"/>
  <flow id="JF89541" begin="5060" fromJunction="J7" toJunction="J4" end="5120" vehsPerHour="41.79673618691279" departLane="free"/>
  <flow id="JF89542" begin="5060" fromJunction="J7" toJunction="J5" end="5120" vehsPerHour="37.606787289149636" departLane="free"/>
  <flow id="JF89543" begin="5060" fromJunction="J7" toJunction="J6" end="5120" vehsPerHour="110.0192390894422" departLane="free"/>
  <flow id="JF89544" begin="5120" fromJunction="J0" toJunction="J3" end="5180" vehsPerHour="291.18833598568335" departLane="free"/>
  <flow id="JF89545" begin="5120" fromJunction="J0" toJunction="J4" end="5180" vehsPerHour="327.8909215092181" departLane="free"/>
  <flow id="JF89546" begin="5120" fromJunction="J0" toJunction="J5" end="5180" vehsPerHour="165.55119255200822" departLane="free"/>
  <flow id="JF89547" begin="5120" fromJunction="J0" toJunction="J7" end="5180" vehsPerHour="168.3153300613217" departLane="free"/>
  <flow id="JF89548" begin="5120" fromJunction="J3" toJunction="J4" end="5180" vehsPerHour="393.8700592886617" departLane="free"/>
  <flow id="JF89549" begin="5120" fromJunction="J3" toJunction="J5" end="5180" vehsPerHour="395.0259904089956" departLane="free"/>
  <flow id="JF89550" begin="5120" fromJunction="J3" toJunction="J6" end="5180" vehsPerHour="228.18513680848557" departLane="free"/>
  <flow id="JF89551" begin="5120" fromJunction="J3" toJunction="J7" end="5180" vehsPerHour="9.998354917651278" departLane="free"/>
  <flow id="JF89552" begin="5120" fromJunction="J4" toJunction="J0" end="5180" vehsPerHour="36.5737030962233" departLane="free"/>
  <flow id="JF89553" begin="5120" fromJunction="J4" toJunction="J5" end="5180" vehsPerHour="208.32444530677125" departLane="free"/>
  <flow id="JF89554" begin="5120" fromJunction="J4" toJunction="J6" end="5180" vehsPerHour="28.467863784801192" departLane="free"/>
  <flow id="JF89555" begin="5120" fromJunction="J4" toJunction="J7" end="5180" vehsPerHour="269.51773125630405" departLane="free"/>
  <flow id="JF89556" begin="5120" fromJunction="J5" toJunction="J3" end="5180" vehsPerHour="121.41988918297575" departLane="free"/>
  <flow id="JF89557" begin="5120" fromJunction="J5" toJunction="J4" end="5180" vehsPerHour="75.47909557215279" departLane="free"/>
  <flow id="JF89558" begin="5120" fromJunction="J5" toJunction="J6" end="5180" vehsPerHour="211.72186791497867" departLane="free"/>
  <flow id="JF89559" begin="5120" fromJunction="J5" toJunction="J7" end="5180" vehsPerHour="76.40127331932244" departLane="free"/>
  <flow id="JF89560" begin="5120" fromJunction="J6" toJunction="J3" end="5180" vehsPerHour="218.13503284390418" departLane="free"/>
  <flow id="JF89561" begin="5120" fromJunction="J6" toJunction="J4" end="5180" vehsPerHour="92.92229962951042" departLane="free"/>
  <flow id="JF89562" begin="5120" fromJunction="J6" toJunction="J5" end="5180" vehsPerHour="109.49254118189344" departLane="free"/>
  <flow id="JF89563" begin="5120" fromJunction="J6" toJunction="J7" end="5180" vehsPerHour="79.28066517455724" departLane="free"/>
  <flow id="JF89564" begin="5120" fromJunction="J7" toJunction="J3" end="5180" vehsPerHour="241.03539101945773" departLane="free"/>
  <flow id="JF89565" begin="5120" fromJunction="J7" toJunction="J5" end="5180" vehsPerHour="107.00818772924949" departLane="free"/>
  <flow id="JF89566" begin="5120" fromJunction="J7" toJunction="J6" end="5180" vehsPerHour="145.87658984627882" departLane="free"/>
  <flow id="JF89567" begin="5180" fromJunction="J0" toJunction="J3" end="5240" vehsPerHour="290.2732228627731" departLane="free"/>
  <flow id="JF89568" begin="5180" fromJunction="J0" toJunction="J4" end="5240" vehsPerHour="303.3576708683262" departLane="free"/>
  <flow id="JF89569" begin="5180" fromJunction="J0" toJunction="J5" end="5240" vehsPerHour="242.12285786184356" departLane="free"/>
  <flow id="JF89570" begin="5180" fromJunction="J0" toJunction="J6" end="5240" vehsPerHour="65.75181001588768" departLane="free"/>
  <flow id="JF89571" begin="5180" fromJunction="J0" toJunction="J7" end="5240" vehsPerHour="445.65605698720765" departLane="free"/>
  <flow id="JF89572" begin="5180" fromJunction="J3" toJunction="J0" end="5240" vehsPerHour="249.16950190054473" departLane="free"/>
  <flow id="JF89573" begin="5180" fromJunction="J3" toJunction="J4" end="5240" vehsPerHour="416.1926637171907" departLane="free"/>
  <flow id="JF89574" begin="5180" fromJunction="J3" toJunction="J6" end="5240" vehsPerHour="171.6554715710829" departLane="free"/>
  <flow id="JF89575" begin="5180" fromJunction="J3" toJunction="J7" end="5240" vehsPerHour="211.47994499742623" departLane="free"/>
  <flow id="JF89576" begin="5180" fromJunction="J4" toJunction="J3" end="5240" vehsPerHour="142.95287368819422" departLane="free"/>
  <flow id="JF89577" begin="5180" fromJunction="J4" toJunction="J5" end="5240" vehsPerHour="248.44321810459726" departLane="free"/>
  <flow id="JF89578" begin="5180" fromJunction="J5" toJunction="J0" end="5240" vehsPerHour="182.9350808098269" departLane="free"/>
  <flow id="JF89579" begin="5180" fromJunction="J5" toJunction="J3" end="5240" vehsPerHour="92.87900737242771" departLane="free"/>
  <flow id="JF89580" begin="5180" fromJunction="J5" toJunction="J4" end="5240" vehsPerHour="142.48409840784882" departLane="free"/>
  <flow id="JF89581" begin="5180" fromJunction="J5" toJunction="J6" end="5240" vehsPerHour="24.048104507580163" departLane="free"/>
  <flow id="JF89582" begin="5180" fromJunction="J5" toJunction="J7" end="5240" vehsPerHour="45.17663220142113" departLane="free"/>
  <flow id="JF89583" begin="5180" fromJunction="J6" toJunction="J3" end="5240" vehsPerHour="134.186761134004" departLane="free"/>
  <flow id="JF89584" begin="5180" fromJunction="J6" toJunction="J4" end="5240" vehsPerHour="202.10519089866327" departLane="free"/>
  <flow id="JF89585" begin="5180" fromJunction="J6" toJunction="J5" end="5240" vehsPerHour="107.48518142509812" departLane="free"/>
  <flow id="JF89586" begin="5180" fromJunction="J7" toJunction="J0" end="5240" vehsPerHour="150.68968068316283" departLane="free"/>
  <flow id="JF89587" begin="5180" fromJunction="J7" toJunction="J3" end="5240" vehsPerHour="243.21413101760245" departLane="free"/>
  <flow id="JF89588" begin="5180" fromJunction="J7" toJunction="J4" end="5240" vehsPerHour="45.40657576125988" departLane="free"/>
  <flow id="JF89589" begin="5180" fromJunction="J7" toJunction="J5" end="5240" vehsPerHour="134.3011122414427" departLane="free"/>
  <flow id="JF89590" begin="5240" fromJunction="J0" toJunction="J4" end="5300" vehsPerHour="468.2427245199006" departLane="free"/>
  <flow id="JF89591" begin="5240" fromJunction="J0" toJunction="J6" end="5300" vehsPerHour="25.724805559311925" departLane="free"/>
  <flow id="JF89592" begin="5240" fromJunction="J0" toJunction="J7" end="5300" vehsPerHour="37.2730618798091" departLane="free"/>
  <flow id="JF89593" begin="5240" fromJunction="J3" toJunction="J0" end="5300" vehsPerHour="22.500751824538053" departLane="free"/>
  <flow id="JF89594" begin="5240" fromJunction="J3" toJunction="J4" end="5300" vehsPerHour="249.77479739805693" departLane="free"/>
  <flow id="JF89595" begin="5240" fromJunction="J3" toJunction="J6" end="5300" vehsPerHour="243.85716248052026" departLane="free"/>
  <flow id="JF89596" begin="5240" fromJunction="J3" toJunction="J7" end="5300" vehsPerHour="122.55295511533596" departLane="free"/>
  <flow id="JF89597" begin="5240" fromJunction="J4" toJunction="J5" end="5300" vehsPerHour="197.80115057600764" departLane="free"/>
  <flow id="JF89598" begin="5240" fromJunction="J4" toJunction="J6" end="5300" vehsPerHour="268.23292125795115" departLane="free"/>
  <flow id="JF89599" begin="5240" fromJunction="J5" toJunction="J0" end="5300" vehsPerHour="135.47411010896354" departLane="free"/>
  <flow id="JF89600" begin="5240" fromJunction="J5" toJunction="J3" end="5300" vehsPerHour="250.3047946540582" departLane="free"/>
  <flow id="JF89601" begin="5240" fromJunction="J5" toJunction="J4" end="5300" vehsPerHour="75.45377867542199" departLane="free"/>
  <flow id="JF89602" begin="5240" fromJunction="J5" toJunction="J6" end="5300" vehsPerHour="237.76236865445455" departLane="free"/>
  <flow id="JF89603" begin="5240" fromJunction="J5" toJunction="J7" end="5300" vehsPerHour="182.43596623169938" departLane="free"/>
  <flow id="JF89604" begin="5240" fromJunction="J6" toJunction="J0" end="5300" vehsPerHour="121.84613484203356" departLane="free"/>
  <flow id="JF89605" begin="5240" fromJunction="J7" toJunction="J0" end="5300" vehsPerHour="41.23099729345981" departLane="free"/>
  <flow id="JF89606" begin="5240" fromJunction="J7" toJunction="J3" end="5300" vehsPerHour="73.95396430056694" departLane="free"/>
  <flow id="JF89607" begin="5240" fromJunction="J7" toJunction="J4" end="5300" vehsPerHour="147.03139827675895" departLane="free"/>
  <flow id="JF89608" begin="5240" fromJunction="J7" toJunction="J5" end="5300" vehsPerHour="54.6829671708478" departLane="free"/>
  <flow id="JF89609" begin="5300" fromJunction="J0" toJunction="J3" end="5360" vehsPerHour="382.5719344009901" departLane="free"/>
  <flow id="JF89610" begin="5300" fromJunction="J0" toJunction="J4" end="5360" vehsPerHour="33.06623910553448" departLane="free"/>
  <flow id="JF89611" begin="5300" fromJunction="J0" toJunction="J5" end="5360" vehsPerHour="285.4921354287735" departLane="free"/>
  <flow id="JF89612" begin="5300" fromJunction="J0" toJunction="J7" end="5360" vehsPerHour="4.256245467957019" departLane="free"/>
  <flow id="JF89613" begin="5300" fromJunction="J3" toJunction="J0" end="5360" vehsPerHour="437.12084093853855" departLane="free"/>
  <flow id="JF89614" begin="5300" fromJunction="J3" toJunction="J6" end="5360" vehsPerHour="48.07206062046942" departLane="free"/>
  <flow id="JF89615" begin="5300" fromJunction="J4" toJunction="J0" end="5360" vehsPerHour="107.28805278169801" departLane="free"/>
  <flow id="JF89616" begin="5300" fromJunction="J4" toJunction="J3" end="5360" vehsPerHour="78.10811212724796" departLane="free"/>
  <flow id="JF89617" begin="5300" fromJunction="J4" toJunction="J7" end="5360" vehsPerHour="260.14490094566435" departLane="free"/>
  <flow id="JF89618" begin="5300" fromJunction="J5" toJunction="J0" end="5360" vehsPerHour="227.96722569833125" departLane="free"/>
  <flow id="JF89619" begin="5300" fromJunction="J5" toJunction="J6" end="5360" vehsPerHour="24.054839293330605" departLane="free"/>
  <flow id="JF89620" begin="5300" fromJunction="J6" toJunction="J0" end="5360" vehsPerHour="66.7396038174629" departLane="free"/>
  <flow id="JF89621" begin="5300" fromJunction="J6" toJunction="J3" end="5360" vehsPerHour="218.66318079064095" departLane="free"/>
  <flow id="JF89622" begin="5300" fromJunction="J6" toJunction="J4" end="5360" vehsPerHour="229.28301046221074" departLane="free"/>
  <flow id="JF89623" begin="5300" fromJunction="J6" toJunction="J7" end="5360" vehsPerHour="140.94149223810314" departLane="free"/>
  <flow id="JF89624" begin="5300" fromJunction="J7" toJunction="J0" end="5360" vehsPerHour="112.51730732537155" departLane="free"/>
  <flow id="JF89625" begin="5300" fromJunction="J7" toJunction="J4" end="5360" vehsPerHour="167.95217293367662" departLane="free"/>
  <flow id="JF89626" begin="5300" fromJunction="J7" toJunction="J5" end="5360" vehsPerHour="55.167200933475534" departLane="free"/>
  <flow id="JF89627" begin="5300" fromJunction="J7" toJunction="J6" end="5360" vehsPerHour="6.631441209953142" departLane="free"/>
  <flow id="JF89628" begin="5360" fromJunction="J0" toJunction="J3" end="5420" vehsPerHour="25.650894404766834" departLane="free"/>
  <flow id="JF89629" begin="5360" fromJunction="J0" toJunction="J4" end="5420" vehsPerHour="484.5337402381026" departLane="free"/>
  <flow id="JF89630" begin="5360" fromJunction="J0" toJunction="J6" end="5420" vehsPerHour="362.2494360980476" departLane="free"/>
  <flow id="JF89631" begin="5360" fromJunction="J0" toJunction="J7" end="5420" vehsPerHour="113.4296003734427" departLane="free"/>
  <flow id="JF89632" begin="5360" fromJunction="J3" toJunction="J0" end="5420" vehsPerHour="140.92001545640724" departLane="free"/>
  <flow id="JF89633" begin="5360" fromJunction="J3" toJunction="J4" end="5420" vehsPerHour="120.37263355370146" departLane="free"/>
  <flow id="JF89634" begin="5360" fromJunction="J3" toJunction="J5" end="5420" vehsPerHour="517.5796622013866" departLane="free"/>
  <flow id="JF89635" begin="5360" fromJunction="J3" toJunction="J6" end="5420" vehsPerHour="321.4671181815212" departLane="free"/>
  <flow id="JF89636" begin="5360" fromJunction="J4" toJunction="J3" end="5420" vehsPerHour="187.6769488076161" departLane="free"/>
  <flow id="JF89637" begin="5360" fromJunction="J4" toJunction="J5" end="5420" vehsPerHour="223.22496212425526" departLane="free"/>
  <flow id="JF89638" begin="5360" fromJunction="J5" toJunction="J0" end="5420" vehsPerHour="79.27384315007687" departLane="free"/>
  <flow id="JF89639" begin="5360" fromJunction="J5" toJunction="J6" end="5420" vehsPerHour="207.0843131048369" departLane="free"/>
  <flow id="JF89640" begin="5360" fromJunction="J5" toJunction="J7" end="5420" vehsPerHour="153.8892020853572" departLane="free"/>
  <flow id="JF89641" begin="5360" fromJunction="J6" toJunction="J0" end="5420" vehsPerHour="230.39463633846916" departLane="free"/>
  <flow id="JF89642" begin="5360" fromJunction="J6" toJunction="J3" end="5420" vehsPerHour="267.83554831554585" departLane="free"/>
  <flow id="JF89643" begin="5360" fromJunction="J6" toJunction="J7" end="5420" vehsPerHour="207.71736899228776" departLane="free"/>
  <flow id="JF89644" begin="5360" fromJunction="J7" toJunction="J3" end="5420" vehsPerHour="178.39489699562583" departLane="free"/>
  <flow id="JF89645" begin="5360" fromJunction="J7" toJunction="J4" end="5420" vehsPerHour="28.882689645205804" departLane="free"/>
  <flow id="JF89646" begin="5360" fromJunction="J7" toJunction="J5" end="5420" vehsPerHour="167.69054590434723" departLane="free"/>
  <flow id="JF89647" begin="5420" fromJunction="J0" toJunction="J3" end="5480" vehsPerHour="113.78726371705854" departLane="free"/>
  <flow id="JF89648" begin="5420" fromJunction="J0" toJunction="J4" end="5480" vehsPerHour="493.0934648814334" departLane="free"/>
  <flow id="JF89649" begin="5420" fromJunction="J0" toJunction="J5" end="5480" vehsPerHour="519.3916777064613" departLane="free"/>
  <flow id="JF89650" begin="5420" fromJunction="J3" toJunction="J5" end="5480" vehsPerHour="137.24771364874042" departLane="free"/>
  <flow id="JF89651" begin="5420" fromJunction="J3" toJunction="J6" end="5480" vehsPerHour="162.52804313198135" departLane="free"/>
  <flow id="JF89652" begin="5420" fromJunction="J3" toJunction="J7" end="5480" vehsPerHour="1.1831749556790039" departLane="free"/>
  <flow id="JF89653" begin="5420" fromJunction="J4" toJunction="J0" end="5480" vehsPerHour="184.93486224441872" departLane="free"/>
  <flow id="JF89654" begin="5420" fromJunction="J4" toJunction="J3" end="5480" vehsPerHour="3.8263861344671586" departLane="free"/>
  <flow id="JF89655" begin="5420" fromJunction="J4" toJunction="J5" end="5480" vehsPerHour="217.2478986113573" departLane="free"/>
  <flow id="JF89656" begin="5420" fromJunction="J5" toJunction="J0" end="5480" vehsPerHour="21.308424874926608" departLane="free"/>
  <flow id="JF89657" begin="5420" fromJunction="J5" toJunction="J3" end="5480" vehsPerHour="231.62694223455713" departLane="free"/>
  <flow id="JF89658" begin="5420" fromJunction="J5" toJunction="J4" end="5480" vehsPerHour="92.01375417457041" departLane="free"/>
  <flow id="JF89659" begin="5420" fromJunction="J5" toJunction="J6" end="5480" vehsPerHour="132.0009213393155" departLane="free"/>
  <flow id="JF89660" begin="5420" fromJunction="J5" toJunction="J7" end="5480" vehsPerHour="272.7146234239953" departLane="free"/>
  <flow id="JF89661" begin="5420" fromJunction="J6" toJunction="J4" end="5480" vehsPerHour="173.05199545403784" departLane="free"/>
  <flow id="JF89662" begin="5420" fromJunction="J7" toJunction="J3" end="5480" vehsPerHour="122.97503065608073" departLane="free"/>
  <flow id="JF89663" begin="5420" fromJunction="J7" toJunction="J4" end="5480" vehsPerHour="179.55974009273746" departLane="free"/>
  <flow id="JF89664" begin="5420" fromJunction="J7" toJunction="J5" end="5480" vehsPerHour="207.3531833832105" departLane="free"/>
  <flow id="JF89665" begin="5480" fromJunction="J0" toJunction="J3" end="5540" vehsPerHour="316.3318697361629" departLane="free"/>
  <flow id="JF89666" begin="5480" fromJunction="J0" toJunction="J5" end="5540" vehsPerHour="116.25589013248481" departLane="free"/>
  <flow id="JF89667" begin="5480" fromJunction="J0" toJunction="J7" end="5540" vehsPerHour="165.201565175069" departLane="free"/>
  <flow id="JF89668" begin="5480" fromJunction="J3" toJunction="J0" end="5540" vehsPerHour="17.064984010257817" departLane="free"/>
  <flow id="JF89669" begin="5480" fromJunction="J3" toJunction="J4" end="5540" vehsPerHour="293.6541353273984" departLane="free"/>
  <flow id="JF89670" begin="5480" fromJunction="J3" toJunction="J5" end="5540" vehsPerHour="483.1341415248523" departLane="free"/>
  <flow id="JF89671" begin="5480" fromJunction="J3" toJunction="J6" end="5540" vehsPerHour="276.32001209118386" departLane="free"/>
  <flow id="JF89672" begin="5480" fromJunction="J4" toJunction="J3" end="5540" vehsPerHour="5.6636438917409375" departLane="free"/>
  <flow id="JF89673" begin="5480" fromJunction="J4" toJunction="J5" end="5540" vehsPerHour="0.9901246042966013" departLane="free"/>
  <flow id="JF89674" begin="5480" fromJunction="J4" toJunction="J6" end="5540" vehsPerHour="233.11973536611845" departLane="free"/>
  <flow id="JF89675" begin="5480" fromJunction="J5" toJunction="J0" end="5540" vehsPerHour="3.4945779737314933" departLane="free"/>
  <flow id="JF89676" begin="5480" fromJunction="J5" toJunction="J3" end="5540" vehsPerHour="56.958925351143726" departLane="free"/>
  <flow id="JF89677" begin="5480" fromJunction="J5" toJunction="J6" end="5540" vehsPerHour="269.78536218909545" departLane="free"/>
  <flow id="JF89678" begin="5480" fromJunction="J5" toJunction="J7" end="5540" vehsPerHour="239.81378453773425" departLane="free"/>
  <flow id="JF89679" begin="5480" fromJunction="J6" toJunction="J0" end="5540" vehsPerHour="156.84454582840863" departLane="free"/>
  <flow id="JF89680" begin="5480" fromJunction="J6" toJunction="J3" end="5540" vehsPerHour="19.963509799506507" departLane="free"/>
  <flow id="JF89681" begin="5480" fromJunction="J6" toJunction="J4" end="5540" vehsPerHour="239.10709107924794" departLane="free"/>
  <flow id="JF89682" begin="5480" fromJunction="J6" toJunction="J5" end="5540" vehsPerHour="191.95336630332264" departLane="free"/>
  <flow id="JF89683" begin="5480" fromJunction="J6" toJunction="J7" end="5540" vehsPerHour="116.64247152330948" departLane="free"/>
  <flow id="JF89684" begin="5480" fromJunction="J7" toJunction="J0" end="5540" vehsPerHour="261.56674604911774" departLane="free"/>
  <flow id="JF89685" begin="5480" fromJunction="J7" toJunction="J4" end="5540" vehsPerHour="85.1731672048801" departLane="free"/>
  <flow id="JF89686" begin="5480" fromJunction="J7" toJunction="J6" end="5540" vehsPerHour="218.82444620235148" departLane="free"/>
  <flow id="JF89687" begin="5540" fromJunction="J0" toJunction="J3" end="5600" vehsPerHour="218.97413206813448" departLane="free"/>
  <flow id="JF89688" begin="5540" fromJunction="J0" toJunction="J4" end="5600" vehsPerHour="505.71045574979775" departLane="free"/>
  <flow id="JF89689" begin="5540" fromJunction="J0" toJunction="J5" end="5600" vehsPerHour="123.26215180662072" departLane="free"/>
  <flow id="JF89690" begin="5540" fromJunction="J0" toJunction="J6" end="5600" vehsPerHour="392.27233889311833" departLane="free"/>
  <flow id="JF89691" begin="5540" fromJunction="J0" toJunction="J7" end="5600" vehsPerHour="121.65150672416726" departLane="free"/>
  <flow id="JF89692" begin="5540" fromJunction="J3" toJunction="J0" end="5600" vehsPerHour="444.8460962337312" departLane="free"/>
  <flow id="JF89693" begin="5540" fromJunction="J3" toJunction="J5" end="5600" vehsPerHour="373.14834095270373" departLane="free"/>