<?xml version="1.0" encoding="UTF-8"?>
<routes xmlns:xsi="http://www.w3.org/2001/XMLSchema-instance" xsi:noNamespaceSchemaLocation="http://sumo.dlr.de/xsd/routes_file.xsd">
  <flow id="JF20752" begin="0" fromJunction="J3" toJunction="J0" end="60" vehsPerHour="304.9012837109856"/>
  <flow id="JF20753" begin="0" fromJunction="J0" toJunction="J3" end="60" vehsPerHour="444.0643497799388"/>
  <flow id="JF20754" begin="0" fromJunction="J3" toJunction="J4" end="60" vehsPerHour="134.16435492036686"/>
  <flow id="JF20755" begin="0" fromJunction="J3" toJunction="J2" end="60" vehsPerHour="71.38569073009943"/>
  <flow id="JF20756" begin="0" fromJunction="J0" toJunction="J4" end="60" vehsPerHour="126.15077372399206"/>
  <flow id="JF20757" begin="0" fromJunction="J0" toJunction="J2" end="60" vehsPerHour="65.66312212630996"/>
  <flow id="JF20758" begin="0" fromJunction="J4" toJunction="J2" end="60" vehsPerHour="124.63158764147938"/>
  <flow id="JF20759" begin="0" fromJunction="J2" toJunction="J4" end="60" vehsPerHour="7.871843661004832"/>
  <flow id="JF20760" begin="0" fromJunction="J4" toJunction="J3" end="60" vehsPerHour="135.7008646489013"/>
  <flow id="JF20761" begin="0" fromJunction="J4" toJunction="J0" end="60" vehsPerHour="66.24430286752356"/>
  <flow id="JF20762" begin="0" fromJunction="J2" toJunction="J3" end="60" vehsPerHour="67.88987475292137"/>
  <flow id="JF20763" begin="0" fromJunction="J2" toJunction="J0" end="60" vehsPerHour="123.65450561661225"/>
  <flow id="JF20764" begin="60" fromJunction="J3" toJunction="J0" end="120" vehsPerHour="186.82588400369974"/>
  <flow id="JF20765" begin="60" fromJunction="J0" toJunction="J3" end="120" vehsPerHour="137.70713686891557"/>
  <flow id="JF20766" begin="60" fromJunction="J3" toJunction="J4" end="120" vehsPerHour="81.38995944456812"/>
  <flow id="JF20767" begin="60" fromJunction="J3" toJunction="J2" end="120" vehsPerHour="112.18215122445498"/>
  <flow id="JF20768" begin="60" fromJunction="J0" toJunction="J4" end="120" vehsPerHour="136.26788448847697"/>
  <flow id="JF20769" begin="60" fromJunction="J0" toJunction="J2" end="120" vehsPerHour="28.27181711625191"/>
  <flow id="JF20770" begin="60" fromJunction="J4" toJunction="J2" end="120" vehsPerHour="78.73085525740879"/>
  <flow id="JF20771" begin="60" fromJunction="J2" toJunction="J4" end="120" vehsPerHour="14.163197772306713"/>
  <flow id="JF20772" begin="60" fromJunction="J4" toJunction="J3" end="120" vehsPerHour="89.29783057350984"/>
  <flow id="JF20773" begin="60" fromJunction="J4" toJunction="J0" end="120" vehsPerHour="122.80058187931644"/>
  <flow id="JF20774" begin="60" fromJunction="J2" toJunction="J3" end="120" vehsPerHour="103.26766225090368"/>
  <flow id="JF20775" begin="60" fromJunction="J2" toJunction="J0" end="120" vehsPerHour="17.540827527989396"/>
  <flow id="JF20776" begin="120" fromJunction="J3" toJunction="J0" end="180" vehsPerHour="272.8220104042767"/>
  <flow id="JF20777" begin="120" fromJunction="J0" toJunction="J3" end="180" vehsPerHour="71.67416171596726"/>
  <flow id="JF20778" begin="120" fromJunction="J3" toJunction="J4" end="180" vehsPerHour="43.49821045750977"/>
  <flow id="JF20779" begin="120" fromJunction="J3" toJunction="J2" end="180" vehsPerHour="99.26078490099727"/>
  <flow id="JF20780" begin="120" fromJunction="J0" toJunction="J4" end="180" vehsPerHour="95.7750898862413"/>
  <flow id="JF20781" begin="120" fromJunction="J0" toJunction="J2" end="180" vehsPerHour="100.3538578597306"/>
  <flow id="JF20782" begin="120" fromJunction="J4" toJunction="J2" end="180" vehsPerHour="78.77535292869162"/>
  <flow id="JF20783" begin="120" fromJunction="J2" toJunction="J4" end="180" vehsPerHour="63.267893207745374"/>
  <flow id="JF20784" begin="120" fromJunction="J4" toJunction="J3" end="180" vehsPerHour="124.00719004838683"/>
  <flow id="JF20785" begin="120" fromJunction="J4" toJunction="J0" end="180" vehsPerHour="28.922301383606197"/>
  <flow id="JF20786" begin="120" fromJunction="J2" toJunction="J3" end="180" vehsPerHour="98.95217719551506"/>
  <flow id="JF20787" begin="120" fromJunction="J2" toJunction="J0" end="180" vehsPerHour="56.23863139459666"/>
  <flow id="JF20788" begin="180" fromJunction="J3" toJunction="J0" end="240" vehsPerHour="34.3416651161805"/>
  <flow id="JF20789" begin="180" fromJunction="J0" toJunction="J3" end="240" vehsPerHour="58.72600203365588"/>
  <flow id="JF20790" begin="180" fromJunction="J3" toJunction="J4" end="240" vehsPerHour="104.13394215282497"/>
  <flow id="JF20791" begin="180" fromJunction="J3" toJunction="J2" end="240" vehsPerHour="95.59800834912592"/>
  <flow id="JF20792" begin="180" fromJunction="J0" toJunction="J4" end="240" vehsPerHour="60.74829684102522"/>
  <flow id="JF20793" begin="180" fromJunction="J0" toJunction="J2" end="240" vehsPerHour="92.62473907138373"/>
  <flow id="JF20794" begin="240" fromJunction="J3" toJunction="J0" end="300" vehsPerHour="161.0496163063474"/>
  <flow id="JF20795" begin="240" fromJunction="J0" toJunction="J3" end="300" vehsPerHour="180.15341913966424"/>
  <flow id="JF20796" begin="240" fromJunction="J3" toJunction="J4" end="300" vehsPerHour="114.87534961187067"/>
  <flow id="JF20797" begin="240" fromJunction="J3" toJunction="J2" end="300" vehsPerHour="22.16614889208159"/>
  <flow id="JF20798" begin="240" fromJunction="J0" toJunction="J4" end="300" vehsPerHour="69.36305931681679"/>
  <flow id="JF20799" begin="240" fromJunction="J0" toJunction="J2" end="300" vehsPerHour="109.48778936753627"/>
  <flow id="JF20800" begin="300" fromJunction="J3" toJunction="J0" end="360" vehsPerHour="384.24408217248657"/>
  <flow id="JF20801" begin="300" fromJunction="J0" toJunction="J3" end="360" vehsPerHour="422.340039755415"/>
  <flow id="JF20802" begin="300" fromJunction="J3" toJunction="J4" end="360" vehsPerHour="113.15110352342396"/>
  <flow id="JF20803" begin="300" fromJunction="J3" toJunction="J2" end="360" vehsPerHour="61.1112636298818"/>
  <flow id="JF20804" begin="300" fromJunction="J0" toJunction="J4" end="360" vehsPerHour="108.860616524765"/>
  <flow id="JF20805" begin="300" fromJunction="J0" toJunction="J2" end="360" vehsPerHour="86.4602774465737"/>
  <flow id="JF20806" begin="300" fromJunction="J4" toJunction="J2" end="360" vehsPerHour="31.79675929696984"/>
  <flow id="JF20807" begin="300" fromJunction="J2" toJunction="J4" end="360" vehsPerHour="50.153739599180255"/>
  <flow id="JF20808" begin="300" fromJunction="J4" toJunction="J3" end="360" vehsPerHour="5.4848091847795795"/>
  <flow id="JF20809" begin="300" fromJunction="J4" toJunction="J0" end="360" vehsPerHour="87.27178433359916"/>
  <flow id="JF20810" begin="300" fromJunction="J2" toJunction="J3" end="360" vehsPerHour="85.97476236989417"/>
  <flow id="JF20811" begin="300" fromJunction="J2" toJunction="J0" end="360" vehsPerHour="82.07535359900129"/>
  <flow id="JF20812" begin="360" fromJunction="J3" toJunction="J0" end="420" vehsPerHour="452.08363411039"/>
  <flow id="JF20813" begin="360" fromJunction="J0" toJunction="J3" end="420" vehsPerHour="207.1549438143543"/>
  <flow id="JF20814" begin="360" fromJunction="J3" toJunction="J4" end="420" vehsPerHour="76.47907842179018"/>
  <flow id="JF20815" begin="360" fromJunction="J3" toJunction="J2" end="420" vehsPerHour="47.52830648223859"/>
  <flow id="JF20816" begin="360" fromJunction="J0" toJunction="J4" end="420" vehsPerHour="47.48441494711481"/>
  <flow id="JF20817" begin="360" fromJunction="J0" toJunction="J2" end="420" vehsPerHour="40.35048364786566"/>
  <flow id="JF20818" begin="360" fromJunction="J4" toJunction="J2" end="420" vehsPerHour="59.737174977839835"/>
  <flow id="JF20819" begin="360" fromJunction="J2" toJunction="J4" end="420" vehsPerHour="124.1271417688209"/>
  <flow id="JF20820" begin="360" fromJunction="J4" toJunction="J3" end="420" vehsPerHour="120.8888243522885"/>
  <flow id="JF20821" begin="360" fromJunction="J4" toJunction="J0" end="420" vehsPerHour="27.32506736259888"/>
  <flow id="JF20822" begin="360" fromJunction="J2" toJunction="J3" end="420" vehsPerHour="132.20684254721633"/>
  <flow id="JF20823" begin="360" fromJunction="J2" toJunction="J0" end="420" vehsPerHour="27.931640072669243"/>
  <flow id="JF20824" begin="420" fromJunction="J3" toJunction="J0" end="480" vehsPerHour="453.2758208971656"/>
  <flow id="JF20825" begin="420" fromJunction="J0" toJunction="J3" end="480" vehsPerHour="294.25366619885546"/>
  <flow id="JF20826" begin="420" fromJunction="J3" toJunction="J4" end="480" vehsPerHour="108.10431366347476"/>
  <flow id="JF20827" begin="420" fromJunction="J3" toJunction="J2" end="480" vehsPerHour="135.77832545277911"/>
  <flow id="JF20828" begin="420" fromJunction="J0" toJunction="J4" end="480" vehsPerHour="62.54346590770974"/>
  <flow id="JF20829" begin="420" fromJunction="J0" toJunction="J2" end="480" vehsPerHour="60.13006391359267"/>
  <flow id="JF20830" begin="420" fromJunction="J4" toJunction="J2" end="480" vehsPerHour="104.41819686624278"/>
  <flow id="JF20831" begin="420" fromJunction="J2" toJunction="J4" end="480" vehsPerHour="93.44296768017301"/>
  <flow id="JF20832" begin="420" fromJunction="J4" toJunction="J3" end="480" vehsPerHour="87.638454243491"/>
  <flow id="JF20833" begin="420" fromJunction="J4" toJunction="J0" end="480" vehsPerHour="44.531964522040475"/>
  <flow id="JF20834" begin="420" fromJunction="J2" toJunction="J3" end="480" vehsPerHour="115.25137897482335"/>
  <flow id="JF20835" begin="420" fromJunction="J2" toJunction="J0" end="480" vehsPerHour="102.02221250546583"/>
  <flow id="JF20836" begin="480" fromJunction="J3" toJunction="J0" end="540" vehsPerHour="200.97930745696593"/>
  <flow id="JF20837" begin="480" fromJunction="J0" toJunction="J3" end="540" vehsPerHour="431.5202663497537"/>
  <flow id="JF20838" begin="480" fromJunction="J3" toJunction="J4" end="540" vehsPerHour="76.2372048309782"/>
  <flow id="JF20839" begin="480" fromJunction="J3" toJunction="J2" end="540" vehsPerHour="109.93660158112533"/>
  <flow id="JF20840" begin="480" fromJunction="J0" toJunction="J4" end="540" vehsPerHour="114.16651267567474"/>
  <flow id="JF20841" begin="480" fromJunction="J0" toJunction="J2" end="540" vehsPerHour="29.407635796481408"/>
  <flow id="JF20842" begin="480" fromJunction="J4" toJunction="J2" end="540" vehsPerHour="68.1769228673236"/>
  <flow id="JF20843" begin="480" fromJunction="J2" toJunction="J4" end="540" vehsPerHour="119.87382030613466"/>
  <flow id="JF20844" begin="480" fromJunction="J4" toJunction="J3" end="540" vehsPerHour="63.99381452249842"/>
  <flow id="JF20845" begin="480" fromJunction="J4" toJunction="J0" end="540" vehsPerHour="14.540391113047637"/>
  <flow id="JF20846" begin="480" fromJunction="J2" toJunction="J3" end="540" vehsPerHour="55.58059626725628"/>
  <flow id="JF20847" begin="480" fromJunction="J2" toJunction="J0" end="540" vehsPerHour="106.55451684107317"/>
  <flow id="JF20848" begin="540" fromJunction="J3" toJunction="J0" end="600" vehsPerHour="494.3412711673754"/>
  <flow id="JF20849" begin="540" fromJunction="J0" toJunction="J3" end="600" vehsPerHour="382.6555673096532"/>
  <flow id="JF20850" begin="540" fromJunction="J3" toJunction="J4" end="600" vehsPerHour="52.373523922939405"/>
  <flow id="JF20851" begin="540" fromJunction="J3" toJunction="J2" end="600" vehsPerHour="90.5549796035109"/>
  <flow id="JF20852" begin="540" fromJunction="J0" toJunction="J4" end="600" vehsPerHour="106.30323007797016"/>
  <flow id="JF20853" begin="540" fromJunction="J0" toJunction="J2" end="600" vehsPerHour="49.30660364340348"/>
  <flow id="JF20854" begin="540" fromJunction="J4" toJunction="J2" end="600" vehsPerHour="22.414017880893844"/>
  <flow id="JF20855" begin="540" fromJunction="J2" toJunction="J4" end="600" vehsPerHour="23.030655118253808"/>
  <flow id="JF20856" begin="540" fromJunction="J4" toJunction="J3" end="600" vehsPerHour="75.21224926658483"/>
  <flow id="JF20857" begin="540" fromJunction="J4" toJunction="J0" end="600" vehsPerHour="30.291546491170013"/>
  <flow id="JF20858" begin="540" fromJunction="J2" toJunction="J3" end="600" vehsPerHour="25.9471796802318"/>
  <flow id="JF20859" begin="540" fromJunction="J2" toJunction="J0" end="600" vehsPerHour="106.84826663041527"/>
  <flow id="JF20860" begin="600" fromJunction="J3" toJunction="J0" end="660" vehsPerHour="476.4513782298033"/>
  <flow id="JF20861" begin="600" fromJunction="J0" toJunction="J3" end="660" vehsPerHour="50.01001410729622"/>
  <flow id="JF20862" begin="600" fromJunction="J3" toJunction="J4" end="660" vehsPerHour="12.58439837998877"/>
  <flow id="JF20863" begin="600" fromJunction="J3" toJunction="J2" end="660" vehsPerHour="123.88496195142314"/>
  <flow id="JF20864" begin="600" fromJunction="J0" toJunction="J4" end="660" vehsPerHour="70.0452253548915"/>
  <flow id="JF20865" begin="600" fromJunction="J0" toJunction="J2" end="660" vehsPerHour="134.3913901705129"/>
  <flow id="JF20866" begin="600" fromJunction="J4" toJunction="J2" end="660" vehsPerHour="116.4219515474401"/>
  <flow id="JF20867" begin="600" fromJunction="J2" toJunction="J4" end="660" vehsPerHour="62.87171573157515"/>
  <flow id="JF20868" begin="600" fromJunction="J4" toJunction="J3" end="660" vehsPerHour="5.773153701118512"/>
  <flow id="JF20869" begin="600" fromJunction="J4" toJunction="J0" end="660" vehsPerHour="28.174071845199045"/>
  <flow id="JF20870" begin="600" fromJunction="J2" toJunction="J3" end="660" vehsPerHour="45.92404414147723"/>
  <flow id="JF20871" begin="600" fromJunction="J2" toJunction="J0" end="660" vehsPerHour="110.58772821665399"/>
  <flow id="JF20872" begin="660" fromJunction="J3" toJunction="J0" end="720" vehsPerHour="182.64308707858416"/>
  <flow id="JF20873" begin="660" fromJunction="J0" toJunction="J3" end="720" vehsPerHour="506.9030538543838"/>
  <flow id="JF20874" begin="660" fromJunction="J3" toJunction="J4" end="720" vehsPerHour="82.0185501337729"/>
  <flow id="JF20875" begin="660" fromJunction="J3" toJunction="J2" end="720" vehsPerHour="72.58965928434004"/>
  <flow id="JF20876" begin="660" fromJunction="J0" toJunction="J4" end="720" vehsPerHour="79.19340913828427"/>
  <flow id="JF20877" begin="660" fromJunction="J0" toJunction="J2" end="720" vehsPerHour="45.1625037163796"/>
  <flow id="JF20878" begin="660" fromJunction="J4" toJunction="J2" end="720" vehsPerHour="37.4408746569894"/>
  <flow id="JF20879" begin="660" fromJunction="J2" toJunction="J4" end="720" vehsPerHour="20.125195585961652"/>
  <flow id="JF20880" begin="660" fromJunction="J4" toJunction="J3" end="720" vehsPerHour="92.48471303814253"/>
  <flow id="JF20881" begin="660" fromJunction="J4" toJunction="J0" end="720" vehsPerHour="95.97613110693881"/>
  <flow id="JF20882" begin="660" fromJunction="J2" toJunction="J3" end="720" vehsPerHour="81.6635120291752"/>
  <flow id="JF20883" begin="660" fromJunction="J2" toJunction="J0" end="720" vehsPerHour="117.37511173224237"/>
  <flow id="JF20884" begin="720" fromJunction="J3" toJunction="J0" end="780" vehsPerHour="284.7456850952341"/>
  <flow id="JF20885" begin="720" fromJunction="J0" toJunction="J3" end="780" vehsPerHour="175.61045600676596"/>
  <flow id="JF20886" begin="720" fromJunction="J3" toJunction="J4" end="780" vehsPerHour="49.338614047720434"/>
  <flow id="JF20887" begin="720" fromJunction="J3" toJunction="J2" end="780" vehsPerHour="10.926783408543137"/>
  <flow id="JF20888" begin="720" fromJunction="J0" toJunction="J4" end="780" vehsPerHour="114.38575907020947"/>
  <flow id="JF20889" begin="720" fromJunction="J0" toJunction="J2" end="780" vehsPerHour="130.38327154151116"/>
  <flow id="JF20890" begin="720" fromJunction="J4" toJunction="J2" end="780" vehsPerHour="76.76977705473486"/>
  <flow id="JF20891" begin="720" fromJunction="J2" toJunction="J4" end="780" vehsPerHour="90.94444682138648"/>
  <flow id="JF20892" begin="720" fromJunction="J4" toJunction="J3" end="780" vehsPerHour="112.50505131262902"/>
  <flow id="JF20893" begin="720" fromJunction="J4" toJunction="J0" end="780" vehsPerHour="134.86722008784542"/>
  <flow id="JF20894" begin="720" fromJunction="J2" toJunction="J3" end="780" vehsPerHour="103.85343891888942"/>
  <flow id="JF20895" begin="720" fromJunction="J2" toJunction="J0" end="780" vehsPerHour="97.55942301311767"/>
  <flow id="JF20896" begin="780" fromJunction="J3" toJunction="J0" end="840" vehsPerHour="415.8040946310806"/>
  <flow id="JF20897" begin="780" fromJunction="J0" toJunction="J3" end="840" vehsPerHour="102.44653901091974"/>
  <flow id="JF20898" begin="780" fromJunction="J3" toJunction="J4" end="840" vehsPerHour="111.05463609106853"/>
  <flow id="JF20899" begin="780" fromJunction="J3" toJunction="J2" end="840" vehsPerHour="134.3221750440275"/>
  <flow id="JF20900" begin="780" fromJunction="J0" toJunction="J4" end="840" vehsPerHour="4.37272748069922"/>
  <flow id="JF20901" begin="780" fromJunction="J0" toJunction="J2" end="840" vehsPerHour="113.57320534433467"/>
  <flow id="JF20902" begin="840" fromJunction="J3" toJunction="J0" end="900" vehsPerHour="283.4923791509036"/>
  <flow id="JF20903" begin="840" fromJunction="J0" toJunction="J3" end="900" vehsPerHour="92.80317802870364"/>
  <flow id="JF20904" begin="840" fromJunction="J3" toJunction="J4" end="900" vehsPerHour="111.4149925492678"/>
  <flow id="JF20905" begin="840" fromJunction="J3" toJunction="J2" end="900" vehsPerHour="59.74773893760646"/>
  <flow id="JF20906" begin="840" fromJunction="J0" toJunction="J4" end="900" vehsPerHour="90.11400251076473"/>
  <flow id="JF20907" begin="840" fromJunction="J0" toJunction="J2" end="900" vehsPerHour="9.219304370134651"/>
  <flow id="JF20908" begin="840" fromJunction="J4" toJunction="J2" end="900" vehsPerHour="63.13529668549208"/>
  <flow id="JF20909" begin="840" fromJunction="J2" toJunction="J4" end="900" vehsPerHour="28.040244961128458"/>
  <flow id="JF20910" begin="840" fromJunction="J4" toJunction="J3" end="900" vehsPerHour="30.020703384458855"/>
  <flow id="JF20911" begin="840" fromJunction="J4" toJunction="J0" end="900" vehsPerHour="64.65136519813863"/>
  <flow id="JF20912" begin="840" fromJunction="J2" toJunction="J3" end="900" vehsPerHour="24.797652378324575"/>
  <flow id="JF20913" begin="840" fromJunction="J2" toJunction="J0" end="900" vehsPerHour="33.139277043542556"/>
  <flow id="JF20914" begin="900" fromJunction="J3" toJunction="J0" end="960" vehsPerHour="415.0026802631226"/>
  <flow id="JF20915" begin="900" fromJunction="J0" toJunction="J3" end="960" vehsPerHour="92.45282510443818"/>
  <flow id="JF20916" begin="900" fromJunction="J3" toJunction="J4" end="960" vehsPerHour="56.82386819598469"/>
  <flow id="JF20917" begin="900" fromJunction="J3" toJunction="J2" end="960" vehsPerHour="85.35455764160096"/>
  <flow id="JF20918" begin="900" fromJunction="J0" toJunction="J4" end="960" vehsPerHour="94.54677192853944"/>
  <flow id="JF20919" begin="900" fromJunction="J0" toJunction="J2" end="960" vehsPerHour="4.74933183272502"/>
  <flow id="JF20920" begin="960" fromJunction="J3" toJunction="J0" end="1020" vehsPerHour="19.68096190523796"/>
  <flow id="JF20921" begin="960" fromJunction="J0" toJunction="J3" end="1020" vehsPerHour="111.85435910295858"/>
  <flow id="JF20922" begin="960" fromJunction="J3" toJunction="J4" end="1020" vehsPerHour="40.19201115990898"/>
  <flow id="JF20923" begin="960" fromJunction="J3" toJunction="J2" end="1020" vehsPerHour="56.19658114812189"/>
  <flow id="JF20924" begin="960" fromJunction="J0" toJunction="J4" end="1020" vehsPerHour="46.69839786488118"/>
  <flow id="JF20925" begin="960" fromJunction="J0" toJunction="J2" end="1020" vehsPerHour="67.45215344429269"/>
  <flow id="JF20926" begin="960" fromJunction="J4" toJunction="J2" end="1020" vehsPerHour="3.1412796767599844"/>
  <flow id="JF20927" begin="960" fromJunction="J2" toJunction="J4" end="1020" vehsPerHour="120.75053980208604"/>
  <flow id="JF20928" begin="960" fromJunction="J4" toJunction="J3" end="1020" vehsPerHour="59.66676309150613"/>
  <flow id="JF20929" begin="960" fromJunction="J4" toJunction="J0" end="1020" vehsPerHour="107.85039003885662"/>
  <flow id="JF20930" begin="960" fromJunction="J2" toJunction="J3" end="1020" vehsPerHour="134.08201901599108"/>
  <flow id="JF20931" begin="960" fromJunction="J2" toJunction="J0" end="1020" vehsPerHour="52.52995631662662"/>
  <flow id="JF20932" begin="1020" fromJunction="J3" toJunction="J0" end="1080" vehsPerHour="497.5583577219099"/>
  <flow id="JF20933" begin="1020" fromJunction="J0" toJunction="J3" end="1080" vehsPerHour="300.78777479840664"/>
  <flow id="JF20934" begin="1020" fromJunction="J3" toJunction="J4" end="1080" vehsPerHour="136.63807120533798"/>
  <flow id="JF20935" begin="1020" fromJunction="J3" toJunction="J2" end="1080" vehsPerHour="37.74820379212304"/>
  <flow id="JF20936" begin="1020" fromJunction="J0" toJunction="J4" end="1080" vehsPerHour="52.41847389982804"/>
  <flow id="JF20937" begin="1020" fromJunction="J0" toJunction="J2" end="1080" vehsPerHour="118.04779498646005"/>
  <flow id="JF20938" begin="1020" fromJunction="J4" toJunction="J2" end="1080" vehsPerHour="120.58479620575568"/>
  <flow id="JF20939" begin="1020" fromJunction="J2" toJunction="J4" end="1080" vehsPerHour="3.5006124508656216"/>
  <flow id="JF20940" begin="1020" fromJunction="J4" toJunction="J3" end="1080" vehsPerHour="113.6747072601867"/>
  <flow id="JF20941" begin="1020" fromJunction="J4" toJunction="J0" end="1080" vehsPerHour="105.70313493102945"/>
  <flow id="JF20942" begin="1020" fromJunction="J2" toJunction="J3" end="1080" vehsPerHour="132.6299812871001"/>
  <flow id="JF20943" begin="1020" fromJunction="J2" toJunction="J0" end="1080" vehsPerHour="112.00733424920676"/>
  <flow id="JF20944" begin="1080" fromJunction="J3" toJunction="J0" end="1140" vehsPerHour="164.31759299614063"/>
  <flow id="JF20945" begin="1080" fromJunction="J0" toJunction="J3" end="1140" vehsPerHour="450.62127611811457"/>
  <flow id="JF20946" begin="1080" fromJunction="J3" toJunction="J4" end="1140" vehsPerHour="2.7482029730588193"/>
  <flow id="JF20947" begin="1080" fromJunction="J3" toJunction="J2" end="1140" vehsPerHour="118.36762020631326"/>
  <flow id="JF20948" begin="1080" fromJunction="J0" toJunction="J4" end="1140" vehsPerHour="70.62771046265496"/>
  <flow id="JF20949" begin="1080" fromJunction="J0" toJunction="J2" end="1140" vehsPerHour="29.120691052853772"/>
  <flow id="JF20950" begin="1140" fromJunction="J3" toJunction="J0" end="1200" vehsPerHour="300.76833590670884"/>
  <flow id="JF20951" begin="1140" fromJunction="J0" toJunction="J3" end="1200" vehsPerHour="255.48268541409362"/>
  <flow id="JF20952" begin="1140" fromJunction="J3" toJunction="J4" end="1200" vehsPerHour="112.09137696960659"/>
  <flow id="JF20953" begin="1140" fromJunction="J3" toJunction="J2" end="1200" vehsPerHour="127.42670990744358"/>
  <flow id="JF20954" begin="1140" fromJunction="J0" toJunction="J4" end="1200" vehsPerHour="123.67536695097552"/>
  <flow id="JF20955" begin="1140" fromJunction="J0" toJunction="J2" end="1200" vehsPerHour="70.29509720572324"/>
  <flow id="JF20956" begin="1140" fromJunction="J4" toJunction="J2" end="1200" vehsPerHour="18.556268914918657"/>
  <flow id="JF20957" begin="1140" fromJunction="J2" toJunction="J4" end="1200" vehsPerHour="47.318709631530105"/>
  <flow id="JF20958" begin="1140" fromJunction="J4" toJunction="J3" end="1200" vehsPerHour="134.51774867384842"/>
  <flow id="JF20959" begin="1140" fromJunction="J4" toJunction="J0" end="1200" vehsPerHour="32.71973014697397"/>
  <flow id="JF20960" begin="1140" fromJunction="J2" toJunction="J3" end="1200" vehsPerHour="95.29762098989208"/>
  <flow id="JF20961" begin="1140" fromJunction="J2" toJunction="J0" end="1200" vehsPerHour="127.17689694130857"/>
  <flow id="JF20962" begin="1200" fromJunction="J3" toJunction="J0" end="1260" vehsPerHour="106.78207907582083"/>
  <flow id="JF20963" begin="1200" fromJunction="J0" toJunction="J3" end="1260" vehsPerHour="12.901425986470315"/>
  <flow id="JF20964" begin="1200" fromJunction="J3" toJunction="J4" end="1260" vehsPerHour="13.54139673038537"/>
  <flow id="JF20965" begin="1200" fromJunction="J3" toJunction="J2" end="1260" vehsPerHour="26.209136900215093"/>
  <flow id="JF20966" begin="1200" fromJunction="J0" toJunction="J4" end="1260" vehsPerHour="7.765551147145991"/>
  <flow id="JF20967" begin="1200" fromJunction="J0" toJunction="J2" end="1260" vehsPerHour="55.033691056258654"/>
  <flow id="JF20968" begin="1200" fromJunction="J4" toJunction="J2" end="1260" vehsPerHour="129.73911722590339"/>
  <flow id="JF20969" begin="1200" fromJunction="J2" toJunction="J4" end="1260" vehsPerHour="130.72004057642744"/>
  <flow id="JF20970" begin="1200" fromJunction="J4" toJunction="J3" end="1260" vehsPerHour="48.163873900896895"/>
  <flow id="JF20971" begin="1200" fromJunction="J4" toJunction="J0" end="1260" vehsPerHour="115.83357237590026"/>
  <flow id="JF20972" begin="1200" fromJunction="J2" toJunction="J3" end="1260" vehsPerHour="94.98075353422652"/>
  <flow id="JF20973" begin="1200" fromJunction="J2" toJunction="J0" end="1260" vehsPerHour="33.05519146883009"/>
  <flow id="JF20974" begin="1260" fromJunction="J3" toJunction="J0" end="1320" vehsPerHour="344.24830209523066"/>
  <flow id="JF20975" begin="1260" fromJunction="J0" toJunction="J3" end="1320" vehsPerHour="315.9811267023276"/>
  <flow id="JF20976" begin="1260" fromJunction="J3" toJunction="J4" end="1320" vehsPerHour="114.51473895510895"/>
  <flow id="JF20977" begin="1260" fromJunction="J3" toJunction="J2" end="1320" vehsPerHour="6.252342913451298"/>
  <flow id="JF20978" begin="1260" fromJunction="J0" toJunction="J4" end="1320" vehsPerHour="125.54658789037791"/>
  <flow id="JF20979" begin="1260" fromJunction="J0" toJunction="J2" end="1320" vehsPerHour="74.74624854675595"/>
  <flow id="JF20980" begin="1320" fromJunction="J3" toJunction="J0" end="1380" vehsPerHour="198.83858233950562"/>
  <flow id="JF20981" begin="1320" fromJunction="J0" toJunction="J3" end="1380" vehsPerHour="140.15452283438583"/>
  <flow id="JF20982" begin="1320" fromJunction="J3" toJunction="J4" end="1380" vehsPerHour="50.69709239619857"/>
  <flow id="JF20983" begin="1320" fromJunction="J3" toJunction="J2" end="1380" vehsPerHour="11.440710375333184"/>
  <flow id="JF20984" begin="1320" fromJunction="J0" toJunction="J4" end="1380" vehsPerHour="91.12470610242875"/>
  <flow id="JF20985" begin="1320" fromJunction="J0" toJunction="J2" end="1380" vehsPerHour="19.990102578559217"/>
  <flow id="JF20986" begin="1380" fromJunction="J3" toJunction="J0" end="1440" vehsPerHour="247.36419451985236"/>
  <flow id="JF20987" begin="1380" fromJunction="J0" toJunction="J3" end="1440" vehsPerHour="529.5814649895975"/>
  <flow id="JF20988" begin="1380" fromJunction="J3" toJunction="J4" end="1440" vehsPerHour="63.02595854577816"/>
  <flow id="JF20989" begin="1380" fromJunction="J3" toJunction="J2" end="1440" vehsPerHour="114.53698033842983"/>
  <flow id="JF20990" begin="1380" fromJunction="J0" toJunction="J4" end="1440" vehsPerHour="44.015428781339075"/>
  <flow id="JF20991" begin="1380" fromJunction="J0" toJunction="J2" end="1440" vehsPerHour="35.88767604451838"/>
  <flow id="JF20992" begin="1440" fromJunction="J3" toJunction="J0" end="1500" vehsPerHour="534.2281132870835"/>
  <flow id="JF20993" begin="1440" fromJunction="J0" toJunction="J3" end="1500" vehsPerHour="80.58941691446003"/>
  <flow id="JF20994" begin="1440" fromJunction="J3" toJunction="J4" end="1500" vehsPerHour="4.35367654973139"/>
  <flow id="JF20995" begin="1440" fromJunction="J3" toJunction="J2" end="1500" vehsPerHour="30.662164082859626"/>
  <flow id="JF20996" begin="1440" fromJunction="J0" toJunction="J4" end="1500" vehsPerHour="84.52575811942873"/>
  <flow id="JF20997" begin="1440" fromJunction="J0" toJunction="J2" end="1500" vehsPerHour="92.96659852190095"/>
  <flow id="JF20998" begin="1440" fromJunction="J4" toJunction="J2" end="1500" vehsPerHour="116.58487291966966"/>
  <flow id="JF20999" begin="1440" fromJunction="J2" toJunction="J4" end="1500" vehsPerHour="57.50530565602496"/>
  <flow id="JF21000" begin="1440" fromJunction="J4" toJunction="J3" end="1500" vehsPerHour="35.82637648263625"/>
  <flow id="JF21001" begin="1440" fromJunction="J4" toJunction="J0" end="1500" vehsPerHour="60.949856970423845"/>
  <flow id="JF21002" begin="1440" fromJunction="J2" toJunction="J3" end="1500" vehsPerHour="54.872537902530794"/>
  <flow id="JF21003" begin="1440" fromJunction="J2" toJunction="J0" end="1500" vehsPerHour="34.95038469349082"/>
  <flow id="JF21004" begin="1500" fromJunction="J3" toJunction="J0" end="1560" vehsPerHour="461.2124565394028"/>
  <flow id="JF21005" begin="1500" fromJunction="J0" toJunction="J3" end="1560" vehsPerHour="8.352760635126659"/>
  <flow id="JF21006" begin="1500" fromJunction="J3" toJunction="J4" end="1560" vehsPerHour="75.00700141125999"/>
  <flow id="JF21007" begin="1500" fromJunction="J3" toJunction="J2" end="1560" vehsPerHour="32.7436228728867"/>
  <flow id="JF21008" begin="1500" fromJunction="J0" toJunction="J4" end="1560" vehsPerHour="62.145026084378514"/>
  <flow id="JF21009" begin="1500" fromJunction="J0" toJunction="J2" end="1560" vehsPerHour="23.029931218747635"/>
  <flow id="JF21010" begin="1500" fromJunction="J4" toJunction="J2" end="1560" vehsPerHour="73.43885195495716"/>
  <flow id="JF21011" begin="1500" fromJunction="J2" toJunction="J4" end="1560" vehsPerHour="16.471260666324945"/>
  <flow id="JF21012" begin="1500" fromJunction="J4" toJunction="J3" end="1560" vehsPerHour="134.3334487686442"/>
  <flow id="JF21013" begin="1500" fromJunction="J4" toJunction="J0" end="1560" vehsPerHour="22.758734349503214"/>
  <flow id="JF21014" begin="1500" fromJunction="J2" toJunction="J3" end="1560" vehsPerHour="17.023102582461252"/>
  <flow id="JF21015" begin="1500" fromJunction="J2" toJunction="J0" end="1560" vehsPerHour="80.38343965008963"/>
  <flow id="JF21016" begin="1560" fromJunction="J3" toJunction="J0" end="1620" vehsPerHour="161.21316598803622"/>
  <flow id="JF21017" begin="1560" fromJunction="J0" toJunction="J3" end="1620" vehsPerHour="176.36802759847126"/>