<?xml version="1.0" encoding="UTF-8"?>
<routes xmlns:xsi="http://www.w3.org/2001/XMLSchema-instance" xsi:noNamespaceSchemaLocation="http://sumo.dlr.de/xsd/routes_file.xsd">
  <flow id="JF15724" begin="0" fromJunction="J3" toJunction="J0" end="60" vehsPerHour="83.38822733508026"/>
  <flow id="JF15725" begin="0" fromJunction="J0" toJunction="J3" end="60" vehsPerHour="209.7017795892059"/>
  <flow id="JF15726" begin="0" fromJunction="J3" toJunction="J4" end="60" vehsPerHour="14.248750185693732"/>
  <flow id="JF15727" begin="0" fromJunction="J3" toJunction="J2" end="60" vehsPerHour="137.2825198442752"/>
  <flow id="JF15728" begin="0" fromJunction="J0" toJunction="J4" end="60" vehsPerHour="68.10954203906591"/>
  <flow id="JF15729" begin="0" fromJunction="J0" toJunction="J2" end="60" vehsPerHour="87.14224289730052"/>
  <flow id="JF15730" begin="0" fromJunction="J4" toJunction="J2" end="60" vehsPerHour="55.59511620608536"/>
  <flow id="JF15731" begin="0" fromJunction="J2" toJunction="J4" end="60" vehsPerHour="122.30182561742677"/>
  <flow id="JF15732" begin="0" fromJunction="J4" toJunction="J3" end="60" vehsPerHour="22.19862544020965"/>
  <flow id="JF15733" begin="0" fromJunction="J4" toJunction="J0" end="60" vehsPerHour="119.46919042716824"/>
  <flow id="JF15734" begin="0" fromJunction="J2" toJunction="J3" end="60" vehsPerHour="57.82372433603394"/>
  <flow id="JF15735" begin="0" fromJunction="J2" toJunction="J0" end="60" vehsPerHour="119.79327066787708"/>
  <flow id="JF15736" begin="60" fromJunction="J3" toJunction="J0" end="120" vehsPerHour="122.96404603007943"/>
  <flow id="JF15737" begin="60" fromJunction="J0" toJunction="J3" end="120" vehsPerHour="61.71351759527824"/>
  <flow id="JF15738" begin="60" fromJunction="J3" toJunction="J4" end="120" vehsPerHour="55.53533888673109"/>
  <flow id="JF15739" begin="60" fromJunction="J3" toJunction="J2" end="120" vehsPerHour="78.56346585822902"/>
  <flow id="JF15740" begin="60" fromJunction="J0" toJunction="J4" end="120" vehsPerHour="15.562680724500828"/>
  <flow id="JF15741" begin="60" fromJunction="J0" toJunction="J2" end="120" vehsPerHour="89.50973255581923"/>
  <flow id="JF15742" begin="120" fromJunction="J3" toJunction="J0" end="180" vehsPerHour="300.81619923412967"/>
  <flow id="JF15743" begin="120" fromJunction="J0" toJunction="J3" end="180" vehsPerHour="162.8052023664329"/>
  <flow id="JF15744" begin="120" fromJunction="J3" toJunction="J4" end="180" vehsPerHour="83.12117414422322"/>
  <flow id="JF15745" begin="120" fromJunction="J3" toJunction="J2" end="180" vehsPerHour="41.34395449682755"/>
  <flow id="JF15746" begin="120" fromJunction="J0" toJunction="J4" end="180" vehsPerHour="122.63606018078805"/>
  <flow id="JF15747" begin="120" fromJunction="J0" toJunction="J2" end="180" vehsPerHour="100.53461518650253"/>
  <flow id="JF15748" begin="180" fromJunction="J3" toJunction="J0" end="240" vehsPerHour="541.2076060419561"/>
  <flow id="JF15749" begin="180" fromJunction="J0" toJunction="J3" end="240" vehsPerHour="55.34620146235107"/>
  <flow id="JF15750" begin="180" fromJunction="J3" toJunction="J4" end="240" vehsPerHour="42.00903080590402"/>
  <flow id="JF15751" begin="180" fromJunction="J3" toJunction="J2" end="240" vehsPerHour="87.72479826523748"/>
  <flow id="JF15752" begin="180" fromJunction="J0" toJunction="J4" end="240" vehsPerHour="103.46240101943829"/>
  <flow id="JF15753" begin="180" fromJunction="J0" toJunction="J2" end="240" vehsPerHour="53.691828467956164"/>
  <flow id="JF15754" begin="180" fromJunction="J4" toJunction="J2" end="240" vehsPerHour="117.06777786020335"/>
  <flow id="JF15755" begin="180" fromJunction="J2" toJunction="J4" end="240" vehsPerHour="126.32926552376942"/>
  <flow id="JF15756" begin="180" fromJunction="J4" toJunction="J3" end="240" vehsPerHour="68.8700068289567"/>
  <flow id="JF15757" begin="180" fromJunction="J4" toJunction="J0" end="240" vehsPerHour="53.07675425574915"/>
  <flow id="JF15758" begin="180" fromJunction="J2" toJunction="J3" end="240" vehsPerHour="125.52829332454334"/>
  <flow id="JF15759" begin="180" fromJunction="J2" toJunction="J0" end="240" vehsPerHour="117.56698119055376"/>
  <flow id="JF15760" begin="240" fromJunction="J3" toJunction="J0" end="300" vehsPerHour="468.98587246882613"/>
  <flow id="JF15761" begin="240" fromJunction="J0" toJunction="J3" end="300" vehsPerHour="265.4873982221783"/>
  <flow id="JF15762" begin="240" fromJunction="J3" toJunction="J4" end="300" vehsPerHour="27.97798719673179"/>
  <flow id="JF15763" begin="240" fromJunction="J3" toJunction="J2" end="300" vehsPerHour="22.876322297809384"/>
  <flow id="JF15764" begin="240" fromJunction="J0" toJunction="J4" end="300" vehsPerHour="70.95021988692278"/>
  <flow id="JF15765" begin="240" fromJunction="J0" toJunction="J2" end="300" vehsPerHour="92.31065371790137"/>
  <flow id="JF15766" begin="240" fromJunction="J4" toJunction="J2" end="300" vehsPerHour="117.18686947450605"/>
  <flow id="JF15767" begin="240" fromJunction="J2" toJunction="J4" end="300" vehsPerHour="22.054175573532543"/>
  <flow id="JF15768" begin="240" fromJunction="J4" toJunction="J3" end="300" vehsPerHour="126.98449059804047"/>
  <flow id="JF15769" begin="240" fromJunction="J4" toJunction="J0" end="300" vehsPerHour="6.4345390214239595"/>
  <flow id="JF15770" begin="240" fromJunction="J2" toJunction="J3" end="300" vehsPerHour="90.0224469321362"/>
  <flow id="JF15771" begin="240" fromJunction="J2" toJunction="J0" end="300" vehsPerHour="115.4074039737129"/>
  <flow id="JF15772" begin="300" fromJunction="J3" toJunction="J0" end="360" vehsPerHour="124.98509703381062"/>
  <flow id="JF15773" begin="300" fromJunction="J0" toJunction="J3" end="360" vehsPerHour="16.35843771185469"/>
  <flow id="JF15774" begin="300" fromJunction="J3" toJunction="J4" end="360" vehsPerHour="122.72183574238959"/>
  <flow id="JF15775" begin="300" fromJunction="J3" toJunction="J2" end="360" vehsPerHour="50.05057204928159"/>
  <flow id="JF15776" begin="300" fromJunction="J0" toJunction="J4" end="360" vehsPerHour="76.81993493504326"/>
  <flow id="JF15777" begin="300" fromJunction="J0" toJunction="J2" end="360" vehsPerHour="20.814226656051044"/>
  <flow id="JF15778" begin="300" fromJunction="J4" toJunction="J2" end="360" vehsPerHour="98.41892838275125"/>
  <flow id="JF15779" begin="300" fromJunction="J2" toJunction="J4" end="360" vehsPerHour="95.53858479381313"/>
  <flow id="JF15780" begin="300" fromJunction="J4" toJunction="J3" end="360" vehsPerHour="31.025116168925653"/>
  <flow id="JF15781" begin="300" fromJunction="J4" toJunction="J0" end="360" vehsPerHour="26.803894691995083"/>
  <flow id="JF15782" begin="300" fromJunction="J2" toJunction="J3" end="360" vehsPerHour="125.86383791061782"/>
  <flow id="JF15783" begin="300" fromJunction="J2" toJunction="J0" end="360" vehsPerHour="71.59091066445863"/>
  <flow id="JF15784" begin="360" fromJunction="J3" toJunction="J0" end="420" vehsPerHour="215.2144188593579"/>
  <flow id="JF15785" begin="360" fromJunction="J0" toJunction="J3" end="420" vehsPerHour="302.5772225334244"/>
  <flow id="JF15786" begin="360" fromJunction="J3" toJunction="J4" end="420" vehsPerHour="99.34086117115338"/>
  <flow id="JF15787" begin="360" fromJunction="J3" toJunction="J2" end="420" vehsPerHour="98.27711594436758"/>
  <flow id="JF15788" begin="360" fromJunction="J0" toJunction="J4" end="420" vehsPerHour="27.67791611257564"/>
  <flow id="JF15789" begin="360" fromJunction="J0" toJunction="J2" end="420" vehsPerHour="115.06120933475866"/>
  <flow id="JF15790" begin="420" fromJunction="J3" toJunction="J0" end="480" vehsPerHour="45.00148571744105"/>
  <flow id="JF15791" begin="420" fromJunction="J0" toJunction="J3" end="480" vehsPerHour="109.76075320196617"/>
  <flow id="JF15792" begin="420" fromJunction="J3" toJunction="J4" end="480" vehsPerHour="53.63205083716459"/>
  <flow id="JF15793" begin="420" fromJunction="J3" toJunction="J2" end="480" vehsPerHour="61.88790876389373"/>
  <flow id="JF15794" begin="420" fromJunction="J0" toJunction="J4" end="480" vehsPerHour="62.77855680533874"/>
  <flow id="JF15795" begin="420" fromJunction="J0" toJunction="J2" end="480" vehsPerHour="38.04823582699806"/>
  <flow id="JF15796" begin="420" fromJunction="J4" toJunction="J2" end="480" vehsPerHour="95.15423725860012"/>
  <flow id="JF15797" begin="420" fromJunction="J2" toJunction="J4" end="480" vehsPerHour="36.434527766851886"/>
  <flow id="JF15798" begin="420" fromJunction="J4" toJunction="J3" end="480" vehsPerHour="76.14451562213576"/>
  <flow id="JF15799" begin="420" fromJunction="J4" toJunction="J0" end="480" vehsPerHour="75.14160098178857"/>
  <flow id="JF15800" begin="420" fromJunction="J2" toJunction="J3" end="480" vehsPerHour="45.819158629090715"/>
  <flow id="JF15801" begin="420" fromJunction="J2" toJunction="J0" end="480" vehsPerHour="114.13064489240662"/>
  <flow id="JF15802" begin="480" fromJunction="J3" toJunction="J0" end="540" vehsPerHour="337.8085223216093"/>
  <flow id="JF15803" begin="480" fromJunction="J0" toJunction="J3" end="540" vehsPerHour="342.11026267399257"/>
  <flow id="JF15804" begin="480" fromJunction="J3" toJunction="J4" end="540" vehsPerHour="136.47874056390575"/>
  <flow id="JF15805" begin="480" fromJunction="J3" toJunction="J2" end="540" vehsPerHour="123.52370683600232"/>
  <flow id="JF15806" begin="480" fromJunction="J0" toJunction="J4" end="540" vehsPerHour="55.717516841380046"/>
  <flow id="JF15807" begin="480" fromJunction="J0" toJunction="J2" end="540" vehsPerHour="117.6498283166366"/>
  <flow id="JF15808" begin="480" fromJunction="J4" toJunction="J2" end="540" vehsPerHour="77.90451104880059"/>
  <flow id="JF15809" begin="480" fromJunction="J2" toJunction="J4" end="540" vehsPerHour="66.86802830903505"/>
  <flow id="JF15810" begin="480" fromJunction="J4" toJunction="J3" end="540" vehsPerHour="137.0180192354082"/>
  <flow id="JF15811" begin="480" fromJunction="J4" toJunction="J0" end="540" vehsPerHour="92.88879098525264"/>
  <flow id="JF15812" begin="480" fromJunction="J2" toJunction="J3" end="540" vehsPerHour="38.8379703122858"/>
  <flow id="JF15813" begin="480" fromJunction="J2" toJunction="J0" end="540" vehsPerHour="80.43752777936946"/>
  <flow id="JF15814" begin="540" fromJunction="J3" toJunction="J0" end="600" vehsPerHour="140.77130947279608"/>
  <flow id="JF15815" begin="540" fromJunction="J0" toJunction="J3" end="600" vehsPerHour="87.93419355361593"/>
  <flow id="JF15816" begin="540" fromJunction="J3" toJunction="J4" end="600" vehsPerHour="26.28193817055945"/>
  <flow id="JF15817" begin="540" fromJunction="J3" toJunction="J2" end="600" vehsPerHour="28.513315068798878"/>
  <flow id="JF15818" begin="540" fromJunction="J0" toJunction="J4" end="600" vehsPerHour="93.50407438224946"/>
  <flow id="JF15819" begin="540" fromJunction="J0" toJunction="J2" end="600" vehsPerHour="36.31207521448087"/>
  <flow id="JF15820" begin="600" fromJunction="J3" toJunction="J0" end="660" vehsPerHour="492.7690286806258"/>
  <flow id="JF15821" begin="600" fromJunction="J0" toJunction="J3" end="660" vehsPerHour="263.1145765680639"/>
  <flow id="JF15822" begin="600" fromJunction="J3" toJunction="J4" end="660" vehsPerHour="109.95151930671885"/>
  <flow id="JF15823" begin="600" fromJunction="J3" toJunction="J2" end="660" vehsPerHour="33.21084106651345"/>
  <flow id="JF15824" begin="600" fromJunction="J0" toJunction="J4" end="660" vehsPerHour="1.5607380327456017"/>
  <flow id="JF15825" begin="600" fromJunction="J0" toJunction="J2" end="660" vehsPerHour="92.18453918758372"/>
  <flow id="JF15826" begin="600" fromJunction="J4" toJunction="J2" end="660" vehsPerHour="76.96331065297554"/>
  <flow id="JF15827" begin="600" fromJunction="J2" toJunction="J4" end="660" vehsPerHour="9.22364763552239"/>
  <flow id="JF15828" begin="600" fromJunction="J4" toJunction="J3" end="660" vehsPerHour="0.5738938007331422"/>
  <flow id="JF15829" begin="600" fromJunction="J4" toJunction="J0" end="660" vehsPerHour="11.556764355291664"/>
  <flow id="JF15830" begin="600" fromJunction="J2" toJunction="J3" end="660" vehsPerHour="105.84213475805892"/>
  <flow id="JF15831" begin="600" fromJunction="J2" toJunction="J0" end="660" vehsPerHour="122.4709958838384"/>
  <flow id="JF15832" begin="660" fromJunction="J3" toJunction="J0" end="720" vehsPerHour="166.99192165799838"/>
  <flow id="JF15833" begin="660" fromJunction="J0" toJunction="J3" end="720" vehsPerHour="388.8151856484691"/>
  <flow id="JF15834" begin="660" fromJunction="J3" toJunction="J4" end="720" vehsPerHour="73.1131266336884"/>
  <flow id="JF15835" begin="660" fromJunction="J3" toJunction="J2" end="720" vehsPerHour="61.41883694437061"/>
  <flow id="JF15836" begin="660" fromJunction="J0" toJunction="J4" end="720" vehsPerHour="128.0445393670106"/>
  <flow id="JF15837" begin="660" fromJunction="J0" toJunction="J2" end="720" vehsPerHour="60.44912851303675"/>
  <flow id="JF15838" begin="660" fromJunction="J4" toJunction="J2" end="720" vehsPerHour="6.9021189488091625"/>
  <flow id="JF15839" begin="660" fromJunction="J2" toJunction="J4" end="720" vehsPerHour="131.21959823053444"/>
  <flow id="JF15840" begin="660" fromJunction="J4" toJunction="J3" end="720" vehsPerHour="16.065307057670044"/>
  <flow id="JF15841" begin="660" fromJunction="J4" toJunction="J0" end="720" vehsPerHour="132.75679353335408"/>
  <flow id="JF15842" begin="660" fromJunction="J2" toJunction="J3" end="720" vehsPerHour="103.90285624406339"/>
  <flow id="JF15843" begin="660" fromJunction="J2" toJunction="J0" end="720" vehsPerHour="82.52551100366996"/>
  <flow id="JF15844" begin="720" fromJunction="J3" toJunction="J0" end="780" vehsPerHour="283.0923548810508"/>
  <flow id="JF15845" begin="720" fromJunction="J0" toJunction="J3" end="780" vehsPerHour="390.9690427183929"/>
  <flow id="JF15846" begin="720" fromJunction="J3" toJunction="J4" end="780" vehsPerHour="44.90042318708437"/>
  <flow id="JF15847" begin="720" fromJunction="J3" toJunction="J2" end="780" vehsPerHour="121.16245336750512"/>
  <flow id="JF15848" begin="720" fromJunction="J0" toJunction="J4" end="780" vehsPerHour="80.99966030160778"/>
  <flow id="JF15849" begin="720" fromJunction="J0" toJunction="J2" end="780" vehsPerHour="128.00281855618925"/>
  <flow id="JF15850" begin="780" fromJunction="J3" toJunction="J0" end="840" vehsPerHour="454.95148980492615"/>
  <flow id="JF15851" begin="780" fromJunction="J0" toJunction="J3" end="840" vehsPerHour="504.01859543321854"/>
  <flow id="JF15852" begin="780" fromJunction="J3" toJunction="J4" end="840" vehsPerHour="17.922383460777727"/>
  <flow id="JF15853" begin="780" fromJunction="J3" toJunction="J2" end="840" vehsPerHour="100.87579502643729"/>
  <flow id="JF15854" begin="780" fromJunction="J0" toJunction="J4" end="840" vehsPerHour="84.84438789069976"/>
  <flow id="JF15855" begin="780" fromJunction="J0" toJunction="J2" end="840" vehsPerHour="100.75709356581729"/>
  <flow id="JF15856" begin="780" fromJunction="J4" toJunction="J2" end="840" vehsPerHour="19.413844503691084"/>
  <flow id="JF15857" begin="780" fromJunction="J2" toJunction="J4" end="840" vehsPerHour="100.30186611008521"/>
  <flow id="JF15858" begin="780" fromJunction="J4" toJunction="J3" end="840" vehsPerHour="54.11478996838409"/>
  <flow id="JF15859" begin="780" fromJunction="J4" toJunction="J0" end="840" vehsPerHour="58.70283716696155"/>
  <flow id="JF15860" begin="780" fromJunction="J2" toJunction="J3" end="840" vehsPerHour="10.322568737042594"/>
  <flow id="JF15861" begin="780" fromJunction="J2" toJunction="J0" end="840" vehsPerHour="40.32492553370241"/>
  <flow id="JF15862" begin="840" fromJunction="J3" toJunction="J0" end="900" vehsPerHour="96.3158282743672"/>
  <flow id="JF15863" begin="840" fromJunction="J0" toJunction="J3" end="900" vehsPerHour="97.74502747640695"/>
  <flow id="JF15864" begin="840" fromJunction="J3" toJunction="J4" end="900" vehsPerHour="117.86882122639048"/>
  <flow id="JF15865" begin="840" fromJunction="J3" toJunction="J2" end="900" vehsPerHour="97.3652913296659"/>
  <flow id="JF15866" begin="840" fromJunction="J0" toJunction="J4" end="900" vehsPerHour="13.49290392963017"/>
  <flow id="JF15867" begin="840" fromJunction="J0" toJunction="J2" end="900" vehsPerHour="82.66992774719266"/>
  <flow id="JF15868" begin="840" fromJunction="J4" toJunction="J2" end="900" vehsPerHour="129.761020267855"/>
  <flow id="JF15869" begin="840" fromJunction="J2" toJunction="J4" end="900" vehsPerHour="104.6102217610908"/>
  <flow id="JF15870" begin="840" fromJunction="J4" toJunction="J3" end="900" vehsPerHour="136.6721787590822"/>
  <flow id="JF15871" begin="840" fromJunction="J4" toJunction="J0" end="900" vehsPerHour="82.58681258878643"/>
  <flow id="JF15872" begin="840" fromJunction="J2" toJunction="J3" end="900" vehsPerHour="119.26891979620281"/>
  <flow id="JF15873" begin="840" fromJunction="J2" toJunction="J0" end="900" vehsPerHour="55.60843351973126"/>
  <flow id="JF15874" begin="900" fromJunction="J3" toJunction="J0" end="960" vehsPerHour="101.32661823051423"/>
  <flow id="JF15875" begin="900" fromJunction="J0" toJunction="J3" end="960" vehsPerHour="248.0958569942046"/>
  <flow id="JF15876" begin="900" fromJunction="J3" toJunction="J4" end="960" vehsPerHour="134.73864868684893"/>
  <flow id="JF15877" begin="900" fromJunction="J3" toJunction="J2" end="960" vehsPerHour="46.28959334880529"/>
  <flow id="JF15878" begin="900" fromJunction="J0" toJunction="J4" end="960" vehsPerHour="126.31560405624076"/>
  <flow id="JF15879" begin="900" fromJunction="J0" toJunction="J2" end="960" vehsPerHour="7.453601835690501"/>
  <flow id="JF15880" begin="960" fromJunction="J3" toJunction="J0" end="1020" vehsPerHour="32.05452190640988"/>
  <flow id="JF15881" begin="960" fromJunction="J0" toJunction="J3" end="1020" vehsPerHour="356.97318479467083"/>
  <flow id="JF15882" begin="960" fromJunction="J3" toJunction="J4" end="1020" vehsPerHour="133.14446080321343"/>
  <flow id="JF15883" begin="960" fromJunction="J3" toJunction="J2" end="1020" vehsPerHour="48.174214282212844"/>
  <flow id="JF15884" begin="960" fromJunction="J0" toJunction="J4" end="1020" vehsPerHour="70.51695602770198"/>
  <flow id="JF15885" begin="960" fromJunction="J0" toJunction="J2" end="1020" vehsPerHour="87.56026808937858"/>
  <flow id="JF15886" begin="1020" fromJunction="J3" toJunction="J0" end="1080" vehsPerHour="468.0260197768285"/>
  <flow id="JF15887" begin="1020" fromJunction="J0" toJunction="J3" end="1080" vehsPerHour="185.07331644674474"/>
  <flow id="JF15888" begin="1020" fromJunction="J3" toJunction="J4" end="1080" vehsPerHour="111.67816406776089"/>
  <flow id="JF15889" begin="1020" fromJunction="J3" toJunction="J2" end="1080" vehsPerHour="4.1155551153469"/>
  <flow id="JF15890" begin="1020" fromJunction="J0" toJunction="J4" end="1080" vehsPerHour="16.798184102697753"/>
  <flow id="JF15891" begin="1020" fromJunction="J0" toJunction="J2" end="1080" vehsPerHour="42.68184857373368"/>
  <flow id="JF15892" begin="1080" fromJunction="J3" toJunction="J0" end="1140" vehsPerHour="193.38244095474093"/>
  <flow id="JF15893" begin="1080" fromJunction="J0" toJunction="J3" end="1140" vehsPerHour="242.22150530780402"/>
  <flow id="JF15894" begin="1080" fromJunction="J3" toJunction="J4" end="1140" vehsPerHour="76.93566268848483"/>
  <flow id="JF15895" begin="1080" fromJunction="J3" toJunction="J2" end="1140" vehsPerHour="88.54696946365995"/>
  <flow id="JF15896" begin="1080" fromJunction="J0" toJunction="J4" end="1140" vehsPerHour="39.243482035140424"/>
  <flow id="JF15897" begin="1080" fromJunction="J0" toJunction="J2" end="1140" vehsPerHour="111.32639510704121"/>
  <flow id="JF15898" begin="1080" fromJunction="J4" toJunction="J2" end="1140" vehsPerHour="114.24448631155168"/>
  <flow id="JF15899" begin="1080" fromJunction="J2" toJunction="J4" end="1140" vehsPerHour="8.87865151604213"/>
  <flow id="JF15900" begin="1080" fromJunction="J4" toJunction="J3" end="1140" vehsPerHour="44.25524752879877"/>
  <flow id="JF15901" begin="1080" fromJunction="J4" toJunction="J0" end="1140" vehsPerHour="135.98006889821795"/>
  <flow id="JF15902" begin="1080" fromJunction="J2" toJunction="J3" end="1140" vehsPerHour="35.010014186118276"/>
  <flow id="JF15903" begin="1080" fromJunction="J2" toJunction="J0" end="1140" vehsPerHour="93.05238663557697"/>
  <flow id="JF15904" begin="1140" fromJunction="J3" toJunction="J0" end="1200" vehsPerHour="305.1509175158877"/>
  <flow id="JF15905" begin="1140" fromJunction="J0" toJunction="J3" end="1200" vehsPerHour="89.62179241997897"/>
  <flow id="JF15906" begin="1140" fromJunction="J3" toJunction="J4" end="1200" vehsPerHour="45.02146870051625"/>
  <flow id="JF15907" begin="1140" fromJunction="J3" toJunction="J2" end="1200" vehsPerHour="79.94748562224578"/>
  <flow id="JF15908" begin="1140" fromJunction="J0" toJunction="J4" end="1200" vehsPerHour="26.36282405226021"/>
  <flow id="JF15909" begin="1140" fromJunction="J0" toJunction="J2" end="1200" vehsPerHour="74.75670987984961"/>
  <flow id="JF15910" begin="1140" fromJunction="J4" toJunction="J2" end="1200" vehsPerHour="99.89173455377676"/>
  <flow id="JF15911" begin="1140" fromJunction="J2" toJunction="J4" end="1200" vehsPerHour="70.45880232374894"/>
  <flow id="JF15912" begin="1140" fromJunction="J4" toJunction="J3" end="1200" vehsPerHour="124.74684481438426"/>
  <flow id="JF15913" begin="1140" fromJunction="J4" toJunction="J0" end="1200" vehsPerHour="54.48232600164276"/>
  <flow id="JF15914" begin="1140" fromJunction="J2" toJunction="J3" end="1200" vehsPerHour="94.78883892263528"/>
  <flow id="JF15915" begin="1140" fromJunction="J2" toJunction="J0" end="1200" vehsPerHour="67.8495517517314"/>
  <flow id="JF15916" begin="1200" fromJunction="J3" toJunction="J0" end="1260" vehsPerHour="201.98007903315042"/>
  <flow id="JF15917" begin="1200" fromJunction="J0" toJunction="J3" end="1260" vehsPerHour="392.78199397548707"/>
  <flow id="JF15918" begin="1200" fromJunction="J3" toJunction="J4" end="1260" vehsPerHour="112.39115520411927"/>
  <flow id="JF15919" begin="1200" fromJunction="J3" toJunction="J2" end="1260" vehsPerHour="22.29293283412857"/>
  <flow id="JF15920" begin="1200" fromJunction="J0" toJunction="J4" end="1260" vehsPerHour="7.305863254685581"/>
  <flow id="JF15921" begin="1200" fromJunction="J0" toJunction="J2" end="1260" vehsPerHour="103.96245848805935"/>
  <flow id="JF15922" begin="1200" fromJunction="J4" toJunction="J2" end="1260" vehsPerHour="11.77988461569774"/>
  <flow id="JF15923" begin="1200" fromJunction="J2" toJunction="J4" end="1260" vehsPerHour="87.05845698636445"/>
  <flow id="JF15924" begin="1200" fromJunction="J4" toJunction="J3" end="1260" vehsPerHour="97.26857110603986"/>
  <flow id="JF15925" begin="1200" fromJunction="J4" toJunction="J0" end="1260" vehsPerHour="129.86751836360204"/>
  <flow id="JF15926" begin="1200" fromJunction="J2" toJunction="J3" end="1260" vehsPerHour="29.10660314484969"/>
  <flow id="JF15927" begin="1200" fromJunction="J2" toJunction="J0" end="1260" vehsPerHour="18.91998058270404"/>
  <flow id="JF15928" begin="1260" fromJunction="J3" toJunction="J0" end="1320" vehsPerHour="202.94905408024815"/>
  <flow id="JF15929" begin="1260" fromJunction="J0" toJunction="J3" end="1320" vehsPerHour="292.4908918366504"/>
  <flow id="JF15930" begin="1260" fromJunction="J3" toJunction="J4" end="1320" vehsPerHour="97.98064756330297"/>
  <flow id="JF15931" begin="1260" fromJunction="J3" toJunction="J2" end="1320" vehsPerHour="24.916710659657674"/>
  <flow id="JF15932" begin="1260" fromJunction="J0" toJunction="J4" end="1320" vehsPerHour="95.78221325917471"/>
  <flow id="JF15933" begin="1260" fromJunction="J0" toJunction="J2" end="1320" vehsPerHour="66.81599919167449"/>
  <flow id="JF15934" begin="1260" fromJunction="J4" toJunction="J2" end="1320" vehsPerHour="109.89838100209651"/>
  <flow id="JF15935" begin="1260" fromJunction="J2" toJunction="J4" end="1320" vehsPerHour="63.30215720819342"/>
  <flow id="JF15936" begin="1260" fromJunction="J4" toJunction="J3" end="1320" vehsPerHour="39.07875319002806"/>
  <flow id="JF15937" begin="1260" fromJunction="J4" toJunction="J0" end="1320" vehsPerHour="74.80580011673763"/>
  <flow id="JF15938" begin="1260" fromJunction="J2" toJunction="J3" end="1320" vehsPerHour="65.5451808737972"/>
  <flow id="JF15939" begin="1260" fromJunction="J2" toJunction="J0" end="1320" vehsPerHour="45.863132018653815"/>
  <flow id="JF15940" begin="1320" fromJunction="J3" toJunction="J0" end="1380" vehsPerHour="432.08170004492257"/>
  <flow id="JF15941" begin="1320" fromJunction="J0" toJunction="J3" end="1380" vehsPerHour="389.2705763373369"/>
  <flow id="JF15942" begin="1320" fromJunction="J3" toJunction="J4" end="1380" vehsPerHour="80.88194731144513"/>
  <flow id="JF15943" begin="1320" fromJunction="J3" toJunction="J2" end="1380" vehsPerHour="106.13586555699816"/>
  <flow id="JF15944" begin="1320" fromJunction="J0" toJunction="J4" end="1380" vehsPerHour="27.88909613562096"/>
  <flow id="JF15945" begin="1320" fromJunction="J0" toJunction="J2" end="1380" vehsPerHour="28.147838439490844"/>
  <flow id="JF15946" begin="1320" fromJunction="J4" toJunction="J2" end="1380" vehsPerHour="127.50435083019366"/>
  <flow id="JF15947" begin="1320" fromJunction="J2" toJunction="J4" end="1380" vehsPerHour="41.58519342938679"/>
  <flow id="JF15948" begin="1320" fromJunction="J4" toJunction="J3" end="1380" vehsPerHour="62.34919909405555"/>
  <flow id="JF15949" begin="1320" fromJunction="J4" toJunction="J0" end="1380" vehsPerHour="100.82041896373575"/>
  <flow id="JF15950" begin="1320" fromJunction="J2" toJunction="J3" end="1380" vehsPerHour="17.681590699730304"/>
  <flow id="JF15951" begin="1320" fromJunction="J2" toJunction="J0" end="1380" vehsPerHour="95.84745855382161"/>
  <flow id="JF15952" begin="1380" fromJunction="J3" toJunction="J0" end="1440" vehsPerHour="31.727224481087017"/>
  <flow id="JF15953" begin="1380" fromJunction="J0" toJunction="J3" end="1440" vehsPerHour="420.08222283622064"/>
  <flow id="JF15954" begin="1380" fromJunction="J3" toJunction="J4" end="1440" vehsPerHour="70.57180140524223"/>
  <flow id="JF15955" begin="1380" fromJunction="J3" toJunction="J2" end="1440" vehsPerHour="106.70669737761247"/>
  <flow id="JF15956" begin="1380" fromJunction="J0" toJunction="J4" end="1440" vehsPerHour="30.504960153986886"/>
  <flow id="JF15957" begin="1380" fromJunction="J0" toJunction="J2" end="1440" vehsPerHour="48.19047571080945"/>
  <flow id="JF15958" begin="1380" fromJunction="J4" toJunction="J2" end="1440" vehsPerHour="31.13219770555802"/>
  <flow id="JF15959" begin="1380" fromJunction="J2" toJunction="J4" end="1440" vehsPerHour="126.55022241594439"/>
  <flow id="JF15960" begin="1380" fromJunction="J4" toJunction="J3" end="1440" vehsPerHour="43.138014895741534"/>
  <flow id="JF15961" begin="1380" fromJunction="J4" toJunction="J0" end="1440" vehsPerHour="80.15605091943964"/>
  <flow id="JF15962" begin="1380" fromJunction="J2" toJunction="J3" end="1440" vehsPerHour="98.11601931461489"/>
  <flow id="JF15963" begin="1380" fromJunction="J2" toJunction="J0" end="1440" vehsPerHour="38.141537332864736"/>
  <flow id="JF15964" begin="1440" fromJunction="J3" toJunction="J0" end="1500" vehsPerHour="104.20166474711624"/>
  <flow id="JF15965" begin="1440" fromJunction="J0" toJunction="J3" end="1500" vehsPerHour="25.42155466556273"/>
  <flow id="JF15966" begin="1440" fromJunction="J3" toJunction="J4" end="1500" vehsPerHour="104.80489151968816"/>
  <flow id="JF15967" begin="1440" fromJunction="J3" toJunction="J2" end="1500" vehsPerHour="76.04230817513267"/>
  <flow id="JF15968" begin="1440" fromJunction="J0" toJunction="J4" end="1500" vehsPerHour="128.09068968095642"/>
  <flow id="JF15969" begin="1440" fromJunction="J0" toJunction="J2" end="1500" vehsPerHour="12.525221146771012"/>
  <flow id="JF15970" begin="1440" fromJunction="J4" toJunction="J2" end="1500" vehsPerHour="50.982704162591595"/>
  <flow id="JF15971" begin="1440" fromJunction="J2" toJunction="J4" end="1500" vehsPerHour="113.44718017036531"/>
  <flow id="JF15972" begin="1440" fromJunction="J4" toJunction="J3" end="1500" vehsPerHour="136.36170605975582"/>
  <flow id="JF15973" begin="1440" fromJunction="J4" toJunction="J0" end="1500" vehsPerHour="77.89687406739137"/>
  <flow id="JF15974" begin="1440" fromJunction="J2" toJunction="J3" end="1500" vehsPerHour="2.9682170958260556"/>
  <flow id="JF15975" begin="1440" fromJunction="J2" toJunction="J0" end="1500" vehsPerHour="33.84899553465861"/>
  <flow id="JF15976" begin="1500" fromJunction="J3" toJunction="J0" end="1560" vehsPerHour="449.3772061803203"/>
  <flow id="JF15977" begin="1500" fromJunction="J0" toJunction="J3" end="1560" vehsPerHour="294.12611631430883"/>
  <flow id="JF15978" begin="1500" fromJunction="J3" toJunction="J4" end="1560" vehsPerHour="96.53843334499535"/>
  <flow id="JF15979" begin="1500" fromJunction="J3" toJunction="J2" end="1560" vehsPerHour="96.4385654802155"/>
  <flow id="JF15980" begin="1500" fromJunction="J0" toJunction="J4" end="1560" vehsPerHour="70.64145249623708"/>
  <flow id="JF15981" begin="1500" fromJunction="J0" toJunction="J2" end="1560" vehsPerHour="82.02392137229488"/>
  <flow id="JF15982" begin="1500" fromJunction="J4" toJunction="J2" end="1560" vehsPerHour="70.30362960237909"/>
  <flow id="JF15983" begin="1500" fromJunction="J2" toJunction="J4" end="1560" vehsPerHour="130.38659786105015"/>
  <flow id="JF15984" begin="1500" fromJunction="J4" toJunction="J3" end="1560" vehsPerHour="135.3203130684473"/>
  <flow id="JF15985" begin="1500" fromJunction="J4" toJunction="J0" end="1560" vehsPerHour="41.60456368888803"/>
  <flow id="JF15986" begin="1500" fromJunction="J2" toJunction="J3" end="1560" vehsPerHour="116.88355884012283"/>
  <flow id="JF15987" begin="1500" fromJunction="J2" toJunction="J0" end="1560" vehsPerHour="69.05763913223731"/>
  <flow id="JF15988" begin="1560" fromJunction="J3" toJunction="J0" end="1620" vehsPerHour="133.89556394572676"/>
  <flow id="JF15989" begin="1560" fromJunction="J0" toJunction="J3" end="1620" vehsPerHour="160.66295894400739"/>