<?xml version="1.0" encoding="UTF-8"?>
<routes xmlns:xsi="http://www.w3.org/2001/XMLSchema-instance" xsi:noNamespaceSchemaLocation="http://sumo.dlr.de/xsd/routes_file.xsd">
  <flow id="JF14056" begin="0" fromJunction="J3" toJunction="J0" end="60" vehsPerHour="247.29742319126018"/>
  <flow id="JF14057" begin="0" fromJunction="J0" toJunction="J3" end="60" vehsPerHour="61.03480246285905"/>
  <flow id="JF14058" begin="0" fromJunction="J3" toJunction="J4" end="60" vehsPerHour="9.85054222215039"/>
  <flow id="JF14059" begin="0" fromJunction="J3" toJunction="J2" end="60" vehsPerHour="98.95041773248661"/>
  <flow id="JF14060" begin="0" fromJunction="J0" toJunction="J4" end="60" vehsPerHour="21.865546597813395"/>
  <flow id="JF14061" begin="0" fromJunction="J0" toJunction="J2" end="60" vehsPerHour="76.81530397053857"/>
  <flow id="JF14062" begin="60" fromJunction="J3" toJunction="J0" end="120" vehsPerHour="128.52906296430535"/>
  <flow id="JF14063" begin="60" fromJunction="J0" toJunction="J3" end="120" vehsPerHour="347.7878753755631"/>
  <flow id="JF14064" begin="60" fromJunction="J3" toJunction="J4" end="120" vehsPerHour="36.79951608978001"/>
  <flow id="JF14065" begin="60" fromJunction="J3" toJunction="J2" end="120" vehsPerHour="66.07916843459161"/>
  <flow id="JF14066" begin="60" fromJunction="J0" toJunction="J4" end="120" vehsPerHour="104.71988235711686"/>
  <flow id="JF14067" begin="60" fromJunction="J0" toJunction="J2" end="120" vehsPerHour="17.784337944776755"/>
  <flow id="JF14068" begin="120" fromJunction="J3" toJunction="J0" end="180" vehsPerHour="123.67729016378865"/>
  <flow id="JF14069" begin="120" fromJunction="J0" toJunction="J3" end="180" vehsPerHour="129.3865298732583"/>
  <flow id="JF14070" begin="120" fromJunction="J3" toJunction="J4" end="180" vehsPerHour="51.305744337244924"/>
  <flow id="JF14071" begin="120" fromJunction="J3" toJunction="J2" end="180" vehsPerHour="75.30284480786412"/>
  <flow id="JF14072" begin="120" fromJunction="J0" toJunction="J4" end="180" vehsPerHour="41.424079388872514"/>
  <flow id="JF14073" begin="120" fromJunction="J0" toJunction="J2" end="180" vehsPerHour="32.89039890425748"/>
  <flow id="JF14074" begin="120" fromJunction="J4" toJunction="J2" end="180" vehsPerHour="10.832605704601974"/>
  <flow id="JF14075" begin="120" fromJunction="J2" toJunction="J4" end="180" vehsPerHour="72.7513233229376"/>
  <flow id="JF14076" begin="120" fromJunction="J4" toJunction="J3" end="180" vehsPerHour="110.70961116849976"/>
  <flow id="JF14077" begin="120" fromJunction="J4" toJunction="J0" end="180" vehsPerHour="116.80424013984238"/>
  <flow id="JF14078" begin="120" fromJunction="J2" toJunction="J3" end="180" vehsPerHour="114.05483161026707"/>
  <flow id="JF14079" begin="120" fromJunction="J2" toJunction="J0" end="180" vehsPerHour="35.35621441318386"/>
  <flow id="JF14080" begin="180" fromJunction="J3" toJunction="J0" end="240" vehsPerHour="14.620572378834785"/>
  <flow id="JF14081" begin="180" fromJunction="J0" toJunction="J3" end="240" vehsPerHour="402.27499204356326"/>
  <flow id="JF14082" begin="180" fromJunction="J3" toJunction="J4" end="240" vehsPerHour="120.48856212340677"/>
  <flow id="JF14083" begin="180" fromJunction="J3" toJunction="J2" end="240" vehsPerHour="102.26086653328996"/>
  <flow id="JF14084" begin="180" fromJunction="J0" toJunction="J4" end="240" vehsPerHour="114.36803289590794"/>
  <flow id="JF14085" begin="180" fromJunction="J0" toJunction="J2" end="240" vehsPerHour="119.97740270044392"/>
  <flow id="JF14086" begin="180" fromJunction="J4" toJunction="J2" end="240" vehsPerHour="79.7064601800741"/>
  <flow id="JF14087" begin="180" fromJunction="J2" toJunction="J4" end="240" vehsPerHour="118.98513084713207"/>
  <flow id="JF14088" begin="180" fromJunction="J4" toJunction="J3" end="240" vehsPerHour="73.960849297949"/>
  <flow id="JF14089" begin="180" fromJunction="J4" toJunction="J0" end="240" vehsPerHour="22.64815671918775"/>
  <flow id="JF14090" begin="180" fromJunction="J2" toJunction="J3" end="240" vehsPerHour="76.94655771317792"/>
  <flow id="JF14091" begin="180" fromJunction="J2" toJunction="J0" end="240" vehsPerHour="28.44915540975511"/>
  <flow id="JF14092" begin="240" fromJunction="J3" toJunction="J0" end="300" vehsPerHour="287.0340294649281"/>
  <flow id="JF14093" begin="240" fromJunction="J0" toJunction="J3" end="300" vehsPerHour="271.4878239709286"/>
  <flow id="JF14094" begin="240" fromJunction="J3" toJunction="J4" end="300" vehsPerHour="103.0917134272486"/>
  <flow id="JF14095" begin="240" fromJunction="J3" toJunction="J2" end="300" vehsPerHour="16.907477549608885"/>
  <flow id="JF14096" begin="240" fromJunction="J0" toJunction="J4" end="300" vehsPerHour="131.8493987601702"/>
  <flow id="JF14097" begin="240" fromJunction="J0" toJunction="J2" end="300" vehsPerHour="44.553799476604475"/>
  <flow id="JF14098" begin="240" fromJunction="J4" toJunction="J2" end="300" vehsPerHour="31.847637860381763"/>
  <flow id="JF14099" begin="240" fromJunction="J2" toJunction="J4" end="300" vehsPerHour="55.982458909600034"/>
  <flow id="JF14100" begin="240" fromJunction="J4" toJunction="J3" end="300" vehsPerHour="18.120585775466143"/>
  <flow id="JF14101" begin="240" fromJunction="J4" toJunction="J0" end="300" vehsPerHour="49.71044082038518"/>
  <flow id="JF14102" begin="240" fromJunction="J2" toJunction="J3" end="300" vehsPerHour="94.34349236312336"/>
  <flow id="JF14103" begin="240" fromJunction="J2" toJunction="J0" end="300" vehsPerHour="115.11886769744844"/>
  <flow id="JF14104" begin="300" fromJunction="J3" toJunction="J0" end="360" vehsPerHour="213.06120510864307"/>
  <flow id="JF14105" begin="300" fromJunction="J0" toJunction="J3" end="360" vehsPerHour="133.7437739715061"/>
  <flow id="JF14106" begin="300" fromJunction="J3" toJunction="J4" end="360" vehsPerHour="40.92108498151309"/>
  <flow id="JF14107" begin="300" fromJunction="J3" toJunction="J2" end="360" vehsPerHour="102.26119096618216"/>
  <flow id="JF14108" begin="300" fromJunction="J0" toJunction="J4" end="360" vehsPerHour="45.76106952727206"/>
  <flow id="JF14109" begin="300" fromJunction="J0" toJunction="J2" end="360" vehsPerHour="32.884578042745815"/>
  <flow id="JF14110" begin="300" fromJunction="J4" toJunction="J2" end="360" vehsPerHour="2.9902011121102183"/>
  <flow id="JF14111" begin="300" fromJunction="J2" toJunction="J4" end="360" vehsPerHour="70.77432818046954"/>
  <flow id="JF14112" begin="300" fromJunction="J4" toJunction="J3" end="360" vehsPerHour="114.54363428977543"/>
  <flow id="JF14113" begin="300" fromJunction="J4" toJunction="J0" end="360" vehsPerHour="124.36998227004354"/>
  <flow id="JF14114" begin="300" fromJunction="J2" toJunction="J3" end="360" vehsPerHour="117.48999391067083"/>
  <flow id="JF14115" begin="300" fromJunction="J2" toJunction="J0" end="360" vehsPerHour="106.92844103999953"/>
  <flow id="JF14116" begin="360" fromJunction="J3" toJunction="J0" end="420" vehsPerHour="172.65244984119246"/>
  <flow id="JF14117" begin="360" fromJunction="J0" toJunction="J3" end="420" vehsPerHour="541.3129077519229"/>
  <flow id="JF14118" begin="360" fromJunction="J3" toJunction="J4" end="420" vehsPerHour="78.12386067007566"/>
  <flow id="JF14119" begin="360" fromJunction="J3" toJunction="J2" end="420" vehsPerHour="9.664448704543972"/>
  <flow id="JF14120" begin="360" fromJunction="J0" toJunction="J4" end="420" vehsPerHour="133.09854775080174"/>
  <flow id="JF14121" begin="360" fromJunction="J0" toJunction="J2" end="420" vehsPerHour="32.33671984096219"/>
  <flow id="JF14122" begin="420" fromJunction="J3" toJunction="J0" end="480" vehsPerHour="115.37636945732811"/>
  <flow id="JF14123" begin="420" fromJunction="J0" toJunction="J3" end="480" vehsPerHour="276.9877325665555"/>
  <flow id="JF14124" begin="420" fromJunction="J3" toJunction="J4" end="480" vehsPerHour="87.57762425501085"/>
  <flow id="JF14125" begin="420" fromJunction="J3" toJunction="J2" end="480" vehsPerHour="30.863956080645597"/>
  <flow id="JF14126" begin="420" fromJunction="J0" toJunction="J4" end="480" vehsPerHour="93.76305711270399"/>
  <flow id="JF14127" begin="420" fromJunction="J0" toJunction="J2" end="480" vehsPerHour="83.01378151931809"/>
  <flow id="JF14128" begin="480" fromJunction="J3" toJunction="J0" end="540" vehsPerHour="16.951665478013314"/>
  <flow id="JF14129" begin="480" fromJunction="J0" toJunction="J3" end="540" vehsPerHour="183.8613475540471"/>
  <flow id="JF14130" begin="480" fromJunction="J3" toJunction="J4" end="540" vehsPerHour="99.45210256499549"/>
  <flow id="JF14131" begin="480" fromJunction="J3" toJunction="J2" end="540" vehsPerHour="124.44114862359591"/>
  <flow id="JF14132" begin="480" fromJunction="J0" toJunction="J4" end="540" vehsPerHour="127.67827938161678"/>
  <flow id="JF14133" begin="480" fromJunction="J0" toJunction="J2" end="540" vehsPerHour="135.85526742605106"/>
  <flow id="JF14134" begin="480" fromJunction="J4" toJunction="J2" end="540" vehsPerHour="27.773682862685067"/>
  <flow id="JF14135" begin="480" fromJunction="J2" toJunction="J4" end="540" vehsPerHour="25.717632827588222"/>
  <flow id="JF14136" begin="480" fromJunction="J4" toJunction="J3" end="540" vehsPerHour="88.85444412139788"/>
  <flow id="JF14137" begin="480" fromJunction="J4" toJunction="J0" end="540" vehsPerHour="125.27575464049094"/>
  <flow id="JF14138" begin="480" fromJunction="J2" toJunction="J3" end="540" vehsPerHour="66.43016090652164"/>
  <flow id="JF14139" begin="480" fromJunction="J2" toJunction="J0" end="540" vehsPerHour="101.1172425906737"/>
  <flow id="JF14140" begin="540" fromJunction="J3" toJunction="J0" end="600" vehsPerHour="171.56771970679864"/>
  <flow id="JF14141" begin="540" fromJunction="J0" toJunction="J3" end="600" vehsPerHour="135.66395818585104"/>
  <flow id="JF14142" begin="540" fromJunction="J3" toJunction="J4" end="600" vehsPerHour="61.82457443219015"/>
  <flow id="JF14143" begin="540" fromJunction="J3" toJunction="J2" end="600" vehsPerHour="46.33912686283517"/>
  <flow id="JF14144" begin="540" fromJunction="J0" toJunction="J4" end="600" vehsPerHour="68.69001255720298"/>
  <flow id="JF14145" begin="540" fromJunction="J0" toJunction="J2" end="600" vehsPerHour="5.496976498407879"/>
  <flow id="JF14146" begin="600" fromJunction="J3" toJunction="J0" end="660" vehsPerHour="201.136145455173"/>
  <flow id="JF14147" begin="600" fromJunction="J0" toJunction="J3" end="660" vehsPerHour="482.82545086555547"/>
  <flow id="JF14148" begin="600" fromJunction="J3" toJunction="J4" end="660" vehsPerHour="102.66795169731049"/>
  <flow id="JF14149" begin="600" fromJunction="J3" toJunction="J2" end="660" vehsPerHour="100.66508538041508"/>
  <flow id="JF14150" begin="600" fromJunction="J0" toJunction="J4" end="660" vehsPerHour="43.44737426610732"/>
  <flow id="JF14151" begin="600" fromJunction="J0" toJunction="J2" end="660" vehsPerHour="27.165577644722433"/>
  <flow id="JF14152" begin="600" fromJunction="J4" toJunction="J2" end="660" vehsPerHour="96.69666875378844"/>
  <flow id="JF14153" begin="600" fromJunction="J2" toJunction="J4" end="660" vehsPerHour="56.44111369145466"/>
  <flow id="JF14154" begin="600" fromJunction="J4" toJunction="J3" end="660" vehsPerHour="53.17196436051098"/>
  <flow id="JF14155" begin="600" fromJunction="J4" toJunction="J0" end="660" vehsPerHour="107.70162500618203"/>
  <flow id="JF14156" begin="600" fromJunction="J2" toJunction="J3" end="660" vehsPerHour="121.41580397766633"/>
  <flow id="JF14157" begin="600" fromJunction="J2" toJunction="J0" end="660" vehsPerHour="69.00462231634295"/>
  <flow id="JF14158" begin="660" fromJunction="J3" toJunction="J0" end="720" vehsPerHour="529.1754101816836"/>
  <flow id="JF14159" begin="660" fromJunction="J0" toJunction="J3" end="720" vehsPerHour="284.83856767661877"/>
  <flow id="JF14160" begin="660" fromJunction="J3" toJunction="J4" end="720" vehsPerHour="39.506235466072205"/>
  <flow id="JF14161" begin="660" fromJunction="J3" toJunction="J2" end="720" vehsPerHour="135.74990176954412"/>
  <flow id="JF14162" begin="660" fromJunction="J0" toJunction="J4" end="720" vehsPerHour="6.936762008860699"/>
  <flow id="JF14163" begin="660" fromJunction="J0" toJunction="J2" end="720" vehsPerHour="9.70955429818822"/>
  <flow id="JF14164" begin="660" fromJunction="J4" toJunction="J2" end="720" vehsPerHour="128.03292489681297"/>
  <flow id="JF14165" begin="660" fromJunction="J2" toJunction="J4" end="720" vehsPerHour="122.4937619497354"/>
  <flow id="JF14166" begin="660" fromJunction="J4" toJunction="J3" end="720" vehsPerHour="102.19699842352786"/>
  <flow id="JF14167" begin="660" fromJunction="J4" toJunction="J0" end="720" vehsPerHour="114.71820510986682"/>
  <flow id="JF14168" begin="660" fromJunction="J2" toJunction="J3" end="720" vehsPerHour="134.4525889525876"/>
  <flow id="JF14169" begin="660" fromJunction="J2" toJunction="J0" end="720" vehsPerHour="134.46686899443424"/>
  <flow id="JF14170" begin="720" fromJunction="J3" toJunction="J0" end="780" vehsPerHour="116.01578797956928"/>
  <flow id="JF14171" begin="720" fromJunction="J0" toJunction="J3" end="780" vehsPerHour="8.672635420534863"/>
  <flow id="JF14172" begin="720" fromJunction="J3" toJunction="J4" end="780" vehsPerHour="3.6506451605989865"/>
  <flow id="JF14173" begin="720" fromJunction="J3" toJunction="J2" end="780" vehsPerHour="24.780195121367548"/>
  <flow id="JF14174" begin="720" fromJunction="J0" toJunction="J4" end="780" vehsPerHour="107.20464605635495"/>
  <flow id="JF14175" begin="720" fromJunction="J0" toJunction="J2" end="780" vehsPerHour="37.12196511625136"/>
  <flow id="JF14176" begin="720" fromJunction="J4" toJunction="J2" end="780" vehsPerHour="85.44925104906356"/>
  <flow id="JF14177" begin="720" fromJunction="J2" toJunction="J4" end="780" vehsPerHour="56.042657353670734"/>
  <flow id="JF14178" begin="720" fromJunction="J4" toJunction="J3" end="780" vehsPerHour="93.39912717205087"/>
  <flow id="JF14179" begin="720" fromJunction="J4" toJunction="J0" end="780" vehsPerHour="26.02461421922871"/>
  <flow id="JF14180" begin="720" fromJunction="J2" toJunction="J3" end="780" vehsPerHour="68.68946530398303"/>
  <flow id="JF14181" begin="720" fromJunction="J2" toJunction="J0" end="780" vehsPerHour="101.31349589838743"/>
  <flow id="JF14182" begin="780" fromJunction="J3" toJunction="J0" end="840" vehsPerHour="47.274164376088706"/>
  <flow id="JF14183" begin="780" fromJunction="J0" toJunction="J3" end="840" vehsPerHour="160.0396510550863"/>
  <flow id="JF14184" begin="780" fromJunction="J3" toJunction="J4" end="840" vehsPerHour="0.46175437316179546"/>
  <flow id="JF14185" begin="780" fromJunction="J3" toJunction="J2" end="840" vehsPerHour="8.28282246201887"/>
  <flow id="JF14186" begin="780" fromJunction="J0" toJunction="J4" end="840" vehsPerHour="34.34259387708689"/>
  <flow id="JF14187" begin="780" fromJunction="J0" toJunction="J2" end="840" vehsPerHour="77.50371542962526"/>
  <flow id="JF14188" begin="780" fromJunction="J4" toJunction="J2" end="840" vehsPerHour="90.33261114335075"/>
  <flow id="JF14189" begin="780" fromJunction="J2" toJunction="J4" end="840" vehsPerHour="35.28736307857748"/>
  <flow id="JF14190" begin="780" fromJunction="J4" toJunction="J3" end="840" vehsPerHour="53.60276039131394"/>
  <flow id="JF14191" begin="780" fromJunction="J4" toJunction="J0" end="840" vehsPerHour="53.855914377155955"/>
  <flow id="JF14192" begin="780" fromJunction="J2" toJunction="J3" end="840" vehsPerHour="86.61660323856583"/>
  <flow id="JF14193" begin="780" fromJunction="J2" toJunction="J0" end="840" vehsPerHour="67.2712298243866"/>
  <flow id="JF14194" begin="840" fromJunction="J3" toJunction="J0" end="900" vehsPerHour="74.611443993033"/>
  <flow id="JF14195" begin="840" fromJunction="J0" toJunction="J3" end="900" vehsPerHour="309.895467687769"/>
  <flow id="JF14196" begin="840" fromJunction="J3" toJunction="J4" end="900" vehsPerHour="84.51703961896584"/>
  <flow id="JF14197" begin="840" fromJunction="J3" toJunction="J2" end="900" vehsPerHour="57.38369511872713"/>
  <flow id="JF14198" begin="840" fromJunction="J0" toJunction="J4" end="900" vehsPerHour="14.792209846663262"/>
  <flow id="JF14199" begin="840" fromJunction="J0" toJunction="J2" end="900" vehsPerHour="96.64888590786163"/>
  <flow id="JF14200" begin="840" fromJunction="J4" toJunction="J2" end="900" vehsPerHour="7.18728332548868"/>
  <flow id="JF14201" begin="840" fromJunction="J2" toJunction="J4" end="900" vehsPerHour="27.84157853841389"/>
  <flow id="JF14202" begin="840" fromJunction="J4" toJunction="J3" end="900" vehsPerHour="36.25044339141147"/>
  <flow id="JF14203" begin="840" fromJunction="J4" toJunction="J0" end="900" vehsPerHour="117.16785450835859"/>
  <flow id="JF14204" begin="840" fromJunction="J2" toJunction="J3" end="900" vehsPerHour="32.01351968185961"/>
  <flow id="JF14205" begin="840" fromJunction="J2" toJunction="J0" end="900" vehsPerHour="39.769562830603995"/>
  <flow id="JF14206" begin="900" fromJunction="J3" toJunction="J0" end="960" vehsPerHour="218.94869446865889"/>
  <flow id="JF14207" begin="900" fromJunction="J0" toJunction="J3" end="960" vehsPerHour="489.8224218339029"/>
  <flow id="JF14208" begin="900" fromJunction="J3" toJunction="J4" end="960" vehsPerHour="92.53205182221865"/>
  <flow id="JF14209" begin="900" fromJunction="J3" toJunction="J2" end="960" vehsPerHour="43.38149624980699"/>
  <flow id="JF14210" begin="900" fromJunction="J0" toJunction="J4" end="960" vehsPerHour="16.224941525872744"/>
  <flow id="JF14211" begin="900" fromJunction="J0" toJunction="J2" end="960" vehsPerHour="19.16582683890813"/>
  <flow id="JF14212" begin="900" fromJunction="J4" toJunction="J2" end="960" vehsPerHour="17.943105168811357"/>
  <flow id="JF14213" begin="900" fromJunction="J2" toJunction="J4" end="960" vehsPerHour="120.12399914785942"/>
  <flow id="JF14214" begin="900" fromJunction="J4" toJunction="J3" end="960" vehsPerHour="45.2503149010129"/>
  <flow id="JF14215" begin="900" fromJunction="J4" toJunction="J0" end="960" vehsPerHour="80.5330541812958"/>
  <flow id="JF14216" begin="900" fromJunction="J2" toJunction="J3" end="960" vehsPerHour="23.55830913578599"/>
  <flow id="JF14217" begin="900" fromJunction="J2" toJunction="J0" end="960" vehsPerHour="19.509787785611696"/>
  <flow id="JF14218" begin="960" fromJunction="J3" toJunction="J0" end="1020" vehsPerHour="312.8606130706278"/>
  <flow id="JF14219" begin="960" fromJunction="J0" toJunction="J3" end="1020" vehsPerHour="183.9936875341516"/>
  <flow id="JF14220" begin="960" fromJunction="J3" toJunction="J4" end="1020" vehsPerHour="15.828092175948479"/>
  <flow id="JF14221" begin="960" fromJunction="J3" toJunction="J2" end="1020" vehsPerHour="28.716019392042224"/>
  <flow id="JF14222" begin="960" fromJunction="J0" toJunction="J4" end="1020" vehsPerHour="26.56640817855162"/>
  <flow id="JF14223" begin="960" fromJunction="J0" toJunction="J2" end="1020" vehsPerHour="61.33063163224075"/>
  <flow id="JF14224" begin="960" fromJunction="J4" toJunction="J2" end="1020" vehsPerHour="36.31126700328843"/>
  <flow id="JF14225" begin="960" fromJunction="J2" toJunction="J4" end="1020" vehsPerHour="114.70449791333658"/>
  <flow id="JF14226" begin="960" fromJunction="J4" toJunction="J3" end="1020" vehsPerHour="125.13248128001251"/>
  <flow id="JF14227" begin="960" fromJunction="J4" toJunction="J0" end="1020" vehsPerHour="42.82438836757883"/>
  <flow id="JF14228" begin="960" fromJunction="J2" toJunction="J3" end="1020" vehsPerHour="0.6327323639728328"/>
  <flow id="JF14229" begin="960" fromJunction="J2" toJunction="J0" end="1020" vehsPerHour="10.609861315964308"/>
  <flow id="JF14230" begin="1020" fromJunction="J3" toJunction="J0" end="1080" vehsPerHour="387.90193531013546"/>
  <flow id="JF14231" begin="1020" fromJunction="J0" toJunction="J3" end="1080" vehsPerHour="52.349525578742664"/>
  <flow id="JF14232" begin="1020" fromJunction="J3" toJunction="J4" end="1080" vehsPerHour="86.63189419177675"/>
  <flow id="JF14233" begin="1020" fromJunction="J3" toJunction="J2" end="1080" vehsPerHour="44.27336813300149"/>
  <flow id="JF14234" begin="1020" fromJunction="J0" toJunction="J4" end="1080" vehsPerHour="29.411564692238798"/>
  <flow id="JF14235" begin="1020" fromJunction="J0" toJunction="J2" end="1080" vehsPerHour="5.688226454972326"/>
  <flow id="JF14236" begin="1020" fromJunction="J4" toJunction="J2" end="1080" vehsPerHour="51.83394560420518"/>
  <flow id="JF14237" begin="1020" fromJunction="J2" toJunction="J4" end="1080" vehsPerHour="97.5014027497946"/>
  <flow id="JF14238" begin="1020" fromJunction="J4" toJunction="J3" end="1080" vehsPerHour="120.98147980750034"/>
  <flow id="JF14239" begin="1020" fromJunction="J4" toJunction="J0" end="1080" vehsPerHour="66.18836292271999"/>
  <flow id="JF14240" begin="1020" fromJunction="J2" toJunction="J3" end="1080" vehsPerHour="125.89007608723742"/>
  <flow id="JF14241" begin="1020" fromJunction="J2" toJunction="J0" end="1080" vehsPerHour="104.78259814820571"/>
  <flow id="JF14242" begin="1080" fromJunction="J3" toJunction="J0" end="1140" vehsPerHour="165.03844695767265"/>
  <flow id="JF14243" begin="1080" fromJunction="J0" toJunction="J3" end="1140" vehsPerHour="76.7499342650803"/>
  <flow id="JF14244" begin="1080" fromJunction="J3" toJunction="J4" end="1140" vehsPerHour="95.55214739682289"/>
  <flow id="JF14245" begin="1080" fromJunction="J3" toJunction="J2" end="1140" vehsPerHour="8.599206806828304"/>
  <flow id="JF14246" begin="1080" fromJunction="J0" toJunction="J4" end="1140" vehsPerHour="43.2277817903228"/>
  <flow id="JF14247" begin="1080" fromJunction="J0" toJunction="J2" end="1140" vehsPerHour="97.44308882566114"/>
  <flow id="JF14248" begin="1140" fromJunction="J3" toJunction="J0" end="1200" vehsPerHour="423.3451499217616"/>
  <flow id="JF14249" begin="1140" fromJunction="J0" toJunction="J3" end="1200" vehsPerHour="460.56306774900486"/>
  <flow id="JF14250" begin="1140" fromJunction="J3" toJunction="J4" end="1200" vehsPerHour="34.57044590902797"/>
  <flow id="JF14251" begin="1140" fromJunction="J3" toJunction="J2" end="1200" vehsPerHour="49.80763961639254"/>
  <flow id="JF14252" begin="1140" fromJunction="J0" toJunction="J4" end="1200" vehsPerHour="66.29473255739232"/>
  <flow id="JF14253" begin="1140" fromJunction="J0" toJunction="J2" end="1200" vehsPerHour="13.808068491625042"/>
  <flow id="JF14254" begin="1140" fromJunction="J4" toJunction="J2" end="1200" vehsPerHour="129.3235274113476"/>
  <flow id="JF14255" begin="1140" fromJunction="J2" toJunction="J4" end="1200" vehsPerHour="19.893849949292154"/>
  <flow id="JF14256" begin="1140" fromJunction="J4" toJunction="J3" end="1200" vehsPerHour="111.2820193387829"/>
  <flow id="JF14257" begin="1140" fromJunction="J4" toJunction="J0" end="1200" vehsPerHour="75.67271759672785"/>
  <flow id="JF14258" begin="1140" fromJunction="J2" toJunction="J3" end="1200" vehsPerHour="104.50992309760068"/>
  <flow id="JF14259" begin="1140" fromJunction="J2" toJunction="J0" end="1200" vehsPerHour="55.65452233574124"/>
  <flow id="JF14260" begin="1200" fromJunction="J3" toJunction="J0" end="1260" vehsPerHour="44.11012116151393"/>
  <flow id="JF14261" begin="1200" fromJunction="J0" toJunction="J3" end="1260" vehsPerHour="100.88335117334798"/>
  <flow id="JF14262" begin="1200" fromJunction="J3" toJunction="J4" end="1260" vehsPerHour="13.147980142408947"/>
  <flow id="JF14263" begin="1200" fromJunction="J3" toJunction="J2" end="1260" vehsPerHour="114.60220833543775"/>
  <flow id="JF14264" begin="1200" fromJunction="J0" toJunction="J4" end="1260" vehsPerHour="6.8203834385815885"/>
  <flow id="JF14265" begin="1200" fromJunction="J0" toJunction="J2" end="1260" vehsPerHour="56.827924588307006"/>
  <flow id="JF14266" begin="1200" fromJunction="J4" toJunction="J2" end="1260" vehsPerHour="106.85855851045989"/>
  <flow id="JF14267" begin="1200" fromJunction="J2" toJunction="J4" end="1260" vehsPerHour="110.52625437921199"/>
  <flow id="JF14268" begin="1200" fromJunction="J4" toJunction="J3" end="1260" vehsPerHour="106.42589506340225"/>
  <flow id="JF14269" begin="1200" fromJunction="J4" toJunction="J0" end="1260" vehsPerHour="71.72340195391894"/>
  <flow id="JF14270" begin="1200" fromJunction="J2" toJunction="J3" end="1260" vehsPerHour="31.339286032780354"/>
  <flow id="JF14271" begin="1200" fromJunction="J2" toJunction="J0" end="1260" vehsPerHour="21.124368249221067"/>
  <flow id="JF14272" begin="1260" fromJunction="J3" toJunction="J0" end="1320" vehsPerHour="97.25036606259528"/>
  <flow id="JF14273" begin="1260" fromJunction="J0" toJunction="J3" end="1320" vehsPerHour="433.3856496850454"/>
  <flow id="JF14274" begin="1260" fromJunction="J3" toJunction="J4" end="1320" vehsPerHour="4.449586377161664"/>
  <flow id="JF14275" begin="1260" fromJunction="J3" toJunction="J2" end="1320" vehsPerHour="104.88756263550901"/>
  <flow id="JF14276" begin="1260" fromJunction="J0" toJunction="J4" end="1320" vehsPerHour="23.739531249345582"/>
  <flow id="JF14277" begin="1260" fromJunction="J0" toJunction="J2" end="1320" vehsPerHour="100.81346597655532"/>
  <flow id="JF14278" begin="1320" fromJunction="J3" toJunction="J0" end="1380" vehsPerHour="293.155742149334"/>
  <flow id="JF14279" begin="1320" fromJunction="J0" toJunction="J3" end="1380" vehsPerHour="281.03028113127294"/>
  <flow id="JF14280" begin="1320" fromJunction="J3" toJunction="J4" end="1380" vehsPerHour="96.81251600136237"/>
  <flow id="JF14281" begin="1320" fromJunction="J3" toJunction="J2" end="1380" vehsPerHour="22.832620100964572"/>
  <flow id="JF14282" begin="1320" fromJunction="J0" toJunction="J4" end="1380" vehsPerHour="137.04122824247705"/>
  <flow id="JF14283" begin="1320" fromJunction="J0" toJunction="J2" end="1380" vehsPerHour="15.68050227476334"/>
  <flow id="JF14284" begin="1320" fromJunction="J4" toJunction="J2" end="1380" vehsPerHour="130.0076727153063"/>
  <flow id="JF14285" begin="1320" fromJunction="J2" toJunction="J4" end="1380" vehsPerHour="47.90554786339226"/>
  <flow id="JF14286" begin="1320" fromJunction="J4" toJunction="J3" end="1380" vehsPerHour="20.318460102016868"/>
  <flow id="JF14287" begin="1320" fromJunction="J4" toJunction="J0" end="1380" vehsPerHour="90.80467012711159"/>
  <flow id="JF14288" begin="1320" fromJunction="J2" toJunction="J3" end="1380" vehsPerHour="96.70514913488192"/>
  <flow id="JF14289" begin="1320" fromJunction="J2" toJunction="J0" end="1380" vehsPerHour="27.883002511050083"/>
  <flow id="JF14290" begin="1380" fromJunction="J3" toJunction="J0" end="1440" vehsPerHour="503.1650839729574"/>
  <flow id="JF14291" begin="1380" fromJunction="J0" toJunction="J3" end="1440" vehsPerHour="309.63272114656417"/>
  <flow id="JF14292" begin="1380" fromJunction="J3" toJunction="J4" end="1440" vehsPerHour="96.32360175790765"/>
  <flow id="JF14293" begin="1380" fromJunction="J3" toJunction="J2" end="1440" vehsPerHour="126.23567234321739"/>
  <flow id="JF14294" begin="1380" fromJunction="J0" toJunction="J4" end="1440" vehsPerHour="53.8848207332506"/>
  <flow id="JF14295" begin="1380" fromJunction="J0" toJunction="J2" end="1440" vehsPerHour="129.97063416283206"/>
  <flow id="JF14296" begin="1440" fromJunction="J3" toJunction="J0" end="1500" vehsPerHour="193.96074382962303"/>
  <flow id="JF14297" begin="1440" fromJunction="J0" toJunction="J3" end="1500" vehsPerHour="106.35996207172894"/>
  <flow id="JF14298" begin="1440" fromJunction="J3" toJunction="J4" end="1500" vehsPerHour="132.76954777561622"/>
  <flow id="JF14299" begin="1440" fromJunction="J3" toJunction="J2" end="1500" vehsPerHour="32.2385882695767"/>
  <flow id="JF14300" begin="1440" fromJunction="J0" toJunction="J4" end="1500" vehsPerHour="5.340130359483561"/>
  <flow id="JF14301" begin="1440" fromJunction="J0" toJunction="J2" end="1500" vehsPerHour="125.3907705835036"/>
  <flow id="JF14302" begin="1440" fromJunction="J4" toJunction="J2" end="1500" vehsPerHour="81.63929434512717"/>
  <flow id="JF14303" begin="1440" fromJunction="J2" toJunction="J4" end="1500" vehsPerHour="9.372426534244777"/>
  <flow id="JF14304" begin="1440" fromJunction="J4" toJunction="J3" end="1500" vehsPerHour="111.8667540130241"/>
  <flow id="JF14305" begin="1440" fromJunction="J4" toJunction="J0" end="1500" vehsPerHour="68.59961531803692"/>
  <flow id="JF14306" begin="1440" fromJunction="J2" toJunction="J3" end="1500" vehsPerHour="132.42667549231828"/>
  <flow id="JF14307" begin="1440" fromJunction="J2" toJunction="J0" end="1500" vehsPerHour="107.78386062399538"/>
  <flow id="JF14308" begin="1500" fromJunction="J3" toJunction="J0" end="1560" vehsPerHour="309.64261598719185"/>
  <flow id="JF14309" begin="1500" fromJunction="J0" toJunction="J3" end="1560" vehsPerHour="18.24983759851174"/>
  <flow id="JF14310" begin="1500" fromJunction="J3" toJunction="J4" end="1560" vehsPerHour="64.9485824456775"/>
  <flow id="JF14311" begin="1500" fromJunction="J3" toJunction="J2" end="1560" vehsPerHour="97.796888431522"/>
  <flow id="JF14312" begin="1500" fromJunction="J0" toJunction="J4" end="1560" vehsPerHour="26.731014990824836"/>
  <flow id="JF14313" begin="1500" fromJunction="J0" toJunction="J2" end="1560" vehsPerHour="80.43848331817057"/>
  <flow id="JF14314" begin="1560" fromJunction="J3" toJunction="J0" end="1620" vehsPerHour="50.943245355873785"/>
  <flow id="JF14315" begin="1560" fromJunction="J0" toJunction="J3" end="1620" vehsPerHour="192.0235608767661"/>
  <flow id="JF14316" begin="1560" fromJunction="J3" toJunction="J4" end="1620" vehsPerHour="99.3220843220267"/>
  <flow id="JF14317" begin="1560" fromJunction="J3" toJunction="J2" end="1620" vehsPerHour="74.60690610426512"/>
  <flow id="JF14318" begin="1560" fromJunction="J0" toJunction="J4" end="1620" vehsPerHour="77.80898757479245"/>
  <flow id="JF14319" begin="1560" fromJunction="J0" toJunction="J2" end="1620" vehsPerHour="59.008380343002365"/>
  <flow id="JF14320" begin="1620" fromJunction="J3" toJunction="J0" end="1680" vehsPerHour="306.0494674288049"/>
  <flow id="JF14321" begin="1620" fromJunction="J0" toJunction="J3" end="1680" vehsPerHour="280.83809906024726"/>