<?xml version="1.0" encoding="UTF-8"?>
<routes xmlns:xsi="http://www.w3.org/2001/XMLSchema-instance" xsi:noNamespaceSchemaLocation="http://sumo.dlr.de/xsd/routes_file.xsd">
  <flow id="JF17422" begin="0" fromJunction="J3" toJunction="J0" end="60" vehsPerHour="332.16704766076214"/>
  <flow id="JF17423" begin="0" fromJunction="J0" toJunction="J3" end="60" vehsPerHour="314.34627784516266"/>
  <flow id="JF17424" begin="0" fromJunction="J3" toJunction="J4" end="60" vehsPerHour="124.68857535736986"/>
  <flow id="JF17425" begin="0" fromJunction="J3" toJunction="J2" end="60" vehsPerHour="50.062575929169384"/>
  <flow id="JF17426" begin="0" fromJunction="J0" toJunction="J4" end="60" vehsPerHour="22.829082827933533"/>
  <flow id="JF17427" begin="0" fromJunction="J0" toJunction="J2" end="60" vehsPerHour="117.69241394979032"/>
  <flow id="JF17428" begin="0" fromJunction="J4" toJunction="J2" end="60" vehsPerHour="23.15126911597171"/>
  <flow id="JF17429" begin="0" fromJunction="J2" toJunction="J4" end="60" vehsPerHour="91.15045504128504"/>
  <flow id="JF17430" begin="0" fromJunction="J4" toJunction="J3" end="60" vehsPerHour="60.42570676522662"/>
  <flow id="JF17431" begin="0" fromJunction="J4" toJunction="J0" end="60" vehsPerHour="118.07699333014953"/>
  <flow id="JF17432" begin="0" fromJunction="J2" toJunction="J3" end="60" vehsPerHour="84.5394284293282"/>
  <flow id="JF17433" begin="0" fromJunction="J2" toJunction="J0" end="60" vehsPerHour="136.86064126545634"/>
  <flow id="JF17434" begin="60" fromJunction="J3" toJunction="J0" end="120" vehsPerHour="420.91930958226186"/>
  <flow id="JF17435" begin="60" fromJunction="J0" toJunction="J3" end="120" vehsPerHour="280.5428628532677"/>
  <flow id="JF17436" begin="60" fromJunction="J3" toJunction="J4" end="120" vehsPerHour="28.906955149865023"/>
  <flow id="JF17437" begin="60" fromJunction="J3" toJunction="J2" end="120" vehsPerHour="28.2297972623533"/>
  <flow id="JF17438" begin="60" fromJunction="J0" toJunction="J4" end="120" vehsPerHour="9.548219736956016"/>
  <flow id="JF17439" begin="60" fromJunction="J0" toJunction="J2" end="120" vehsPerHour="97.20573866337475"/>
  <flow id="JF17440" begin="120" fromJunction="J3" toJunction="J0" end="180" vehsPerHour="333.8949219109438"/>
  <flow id="JF17441" begin="120" fromJunction="J0" toJunction="J3" end="180" vehsPerHour="225.59278112186726"/>
  <flow id="JF17442" begin="120" fromJunction="J3" toJunction="J4" end="180" vehsPerHour="98.28358393974811"/>
  <flow id="JF17443" begin="120" fromJunction="J3" toJunction="J2" end="180" vehsPerHour="100.14745696848213"/>
  <flow id="JF17444" begin="120" fromJunction="J0" toJunction="J4" end="180" vehsPerHour="70.29804098343871"/>
  <flow id="JF17445" begin="120" fromJunction="J0" toJunction="J2" end="180" vehsPerHour="2.8740256612915647"/>
  <flow id="JF17446" begin="180" fromJunction="J3" toJunction="J0" end="240" vehsPerHour="425.0115959562677"/>
  <flow id="JF17447" begin="180" fromJunction="J0" toJunction="J3" end="240" vehsPerHour="396.12593192638116"/>
  <flow id="JF17448" begin="180" fromJunction="J3" toJunction="J4" end="240" vehsPerHour="118.19621571704877"/>
  <flow id="JF17449" begin="180" fromJunction="J3" toJunction="J2" end="240" vehsPerHour="95.26777711678882"/>
  <flow id="JF17450" begin="180" fromJunction="J0" toJunction="J4" end="240" vehsPerHour="32.12838736196434"/>
  <flow id="JF17451" begin="180" fromJunction="J0" toJunction="J2" end="240" vehsPerHour="27.295856777122623"/>
  <flow id="JF17452" begin="240" fromJunction="J3" toJunction="J0" end="300" vehsPerHour="428.2867644497595"/>
  <flow id="JF17453" begin="240" fromJunction="J0" toJunction="J3" end="300" vehsPerHour="214.49677885730532"/>
  <flow id="JF17454" begin="240" fromJunction="J3" toJunction="J4" end="300" vehsPerHour="25.211203613252913"/>
  <flow id="JF17455" begin="240" fromJunction="J3" toJunction="J2" end="300" vehsPerHour="62.57225772452897"/>
  <flow id="JF17456" begin="240" fromJunction="J0" toJunction="J4" end="300" vehsPerHour="63.47934841973312"/>
  <flow id="JF17457" begin="240" fromJunction="J0" toJunction="J2" end="300" vehsPerHour="26.87720229149324"/>
  <flow id="JF17458" begin="240" fromJunction="J4" toJunction="J2" end="300" vehsPerHour="58.28287790623086"/>
  <flow id="JF17459" begin="240" fromJunction="J2" toJunction="J4" end="300" vehsPerHour="6.694534744094496"/>
  <flow id="JF17460" begin="240" fromJunction="J4" toJunction="J3" end="300" vehsPerHour="41.581955145085644"/>
  <flow id="JF17461" begin="240" fromJunction="J4" toJunction="J0" end="300" vehsPerHour="10.86588560185929"/>
  <flow id="JF17462" begin="240" fromJunction="J2" toJunction="J3" end="300" vehsPerHour="43.385410376990684"/>
  <flow id="JF17463" begin="240" fromJunction="J2" toJunction="J0" end="300" vehsPerHour="10.191770299990816"/>
  <flow id="JF17464" begin="300" fromJunction="J3" toJunction="J0" end="360" vehsPerHour="444.796408160078"/>
  <flow id="JF17465" begin="300" fromJunction="J0" toJunction="J3" end="360" vehsPerHour="392.6565698404893"/>
  <flow id="JF17466" begin="300" fromJunction="J3" toJunction="J4" end="360" vehsPerHour="92.11541262089791"/>
  <flow id="JF17467" begin="300" fromJunction="J3" toJunction="J2" end="360" vehsPerHour="51.173073547796896"/>
  <flow id="JF17468" begin="300" fromJunction="J0" toJunction="J4" end="360" vehsPerHour="27.759356985095206"/>
  <flow id="JF17469" begin="300" fromJunction="J0" toJunction="J2" end="360" vehsPerHour="122.58682553405254"/>
  <flow id="JF17470" begin="360" fromJunction="J3" toJunction="J0" end="420" vehsPerHour="386.4765295908584"/>
  <flow id="JF17471" begin="360" fromJunction="J0" toJunction="J3" end="420" vehsPerHour="490.90513941190466"/>
  <flow id="JF17472" begin="360" fromJunction="J3" toJunction="J4" end="420" vehsPerHour="54.93585644685"/>
  <flow id="JF17473" begin="360" fromJunction="J3" toJunction="J2" end="420" vehsPerHour="106.00178225024803"/>
  <flow id="JF17474" begin="360" fromJunction="J0" toJunction="J4" end="420" vehsPerHour="95.44224916198556"/>
  <flow id="JF17475" begin="360" fromJunction="J0" toJunction="J2" end="420" vehsPerHour="44.700658942729575"/>
  <flow id="JF17476" begin="360" fromJunction="J4" toJunction="J2" end="420" vehsPerHour="98.64568181861524"/>
  <flow id="JF17477" begin="360" fromJunction="J2" toJunction="J4" end="420" vehsPerHour="105.57723520552055"/>
  <flow id="JF17478" begin="360" fromJunction="J4" toJunction="J3" end="420" vehsPerHour="93.60464666391029"/>
  <flow id="JF17479" begin="360" fromJunction="J4" toJunction="J0" end="420" vehsPerHour="98.73933882051365"/>
  <flow id="JF17480" begin="360" fromJunction="J2" toJunction="J3" end="420" vehsPerHour="31.02980179340264"/>
  <flow id="JF17481" begin="360" fromJunction="J2" toJunction="J0" end="420" vehsPerHour="72.92591888770629"/>
  <flow id="JF17482" begin="420" fromJunction="J3" toJunction="J0" end="480" vehsPerHour="320.8570538083519"/>
  <flow id="JF17483" begin="420" fromJunction="J0" toJunction="J3" end="480" vehsPerHour="288.2376220863364"/>
  <flow id="JF17484" begin="420" fromJunction="J3" toJunction="J4" end="480" vehsPerHour="20.5000156715794"/>
  <flow id="JF17485" begin="420" fromJunction="J3" toJunction="J2" end="480" vehsPerHour="10.479925280491683"/>
  <flow id="JF17486" begin="420" fromJunction="J0" toJunction="J4" end="480" vehsPerHour="3.0527378389389037"/>
  <flow id="JF17487" begin="420" fromJunction="J0" toJunction="J2" end="480" vehsPerHour="18.824382067382082"/>
  <flow id="JF17488" begin="420" fromJunction="J4" toJunction="J2" end="480" vehsPerHour="42.89459333803872"/>
  <flow id="JF17489" begin="420" fromJunction="J2" toJunction="J4" end="480" vehsPerHour="43.409609420217244"/>
  <flow id="JF17490" begin="420" fromJunction="J4" toJunction="J3" end="480" vehsPerHour="13.43513078449678"/>
  <flow id="JF17491" begin="420" fromJunction="J4" toJunction="J0" end="480" vehsPerHour="7.030724893974204"/>
  <flow id="JF17492" begin="420" fromJunction="J2" toJunction="J3" end="480" vehsPerHour="48.92488489559714"/>
  <flow id="JF17493" begin="420" fromJunction="J2" toJunction="J0" end="480" vehsPerHour="3.4183619833806644"/>
  <flow id="JF17494" begin="480" fromJunction="J3" toJunction="J0" end="540" vehsPerHour="23.372412634265185"/>
  <flow id="JF17495" begin="480" fromJunction="J0" toJunction="J3" end="540" vehsPerHour="380.02013848995904"/>
  <flow id="JF17496" begin="480" fromJunction="J3" toJunction="J4" end="540" vehsPerHour="109.04196783104507"/>
  <flow id="JF17497" begin="480" fromJunction="J3" toJunction="J2" end="540" vehsPerHour="65.07223973894695"/>
  <flow id="JF17498" begin="480" fromJunction="J0" toJunction="J4" end="540" vehsPerHour="9.793789647956798"/>
  <flow id="JF17499" begin="480" fromJunction="J0" toJunction="J2" end="540" vehsPerHour="102.28040404778801"/>
  <flow id="JF17500" begin="480" fromJunction="J4" toJunction="J2" end="540" vehsPerHour="12.285237737335489"/>
  <flow id="JF17501" begin="480" fromJunction="J2" toJunction="J4" end="540" vehsPerHour="6.996613715712243"/>
  <flow id="JF17502" begin="480" fromJunction="J4" toJunction="J3" end="540" vehsPerHour="36.19054817097422"/>
  <flow id="JF17503" begin="480" fromJunction="J4" toJunction="J0" end="540" vehsPerHour="104.97913774316558"/>
  <flow id="JF17504" begin="480" fromJunction="J2" toJunction="J3" end="540" vehsPerHour="48.929903208004795"/>
  <flow id="JF17505" begin="480" fromJunction="J2" toJunction="J0" end="540" vehsPerHour="73.37295317572094"/>
  <flow id="JF17506" begin="540" fromJunction="J3" toJunction="J0" end="600" vehsPerHour="183.29798363489837"/>
  <flow id="JF17507" begin="540" fromJunction="J0" toJunction="J3" end="600" vehsPerHour="364.27164893885265"/>
  <flow id="JF17508" begin="540" fromJunction="J3" toJunction="J4" end="600" vehsPerHour="36.2692999212573"/>
  <flow id="JF17509" begin="540" fromJunction="J3" toJunction="J2" end="600" vehsPerHour="40.98661538312788"/>
  <flow id="JF17510" begin="540" fromJunction="J0" toJunction="J4" end="600" vehsPerHour="125.51601649871519"/>
  <flow id="JF17511" begin="540" fromJunction="J0" toJunction="J2" end="600" vehsPerHour="132.98710485168428"/>
  <flow id="JF17512" begin="600" fromJunction="J3" toJunction="J0" end="660" vehsPerHour="10.979251908013257"/>
  <flow id="JF17513" begin="600" fromJunction="J0" toJunction="J3" end="660" vehsPerHour="504.2632959661149"/>
  <flow id="JF17514" begin="600" fromJunction="J3" toJunction="J4" end="660" vehsPerHour="71.9486055688078"/>
  <flow id="JF17515" begin="600" fromJunction="J3" toJunction="J2" end="660" vehsPerHour="108.94782456708211"/>
  <flow id="JF17516" begin="600" fromJunction="J0" toJunction="J4" end="660" vehsPerHour="130.25441043776564"/>
  <flow id="JF17517" begin="600" fromJunction="J0" toJunction="J2" end="660" vehsPerHour="21.367497732177224"/>
  <flow id="JF17518" begin="660" fromJunction="J3" toJunction="J0" end="720" vehsPerHour="400.312785497546"/>
  <flow id="JF17519" begin="660" fromJunction="J0" toJunction="J3" end="720" vehsPerHour="370.2041505461949"/>
  <flow id="JF17520" begin="660" fromJunction="J3" toJunction="J4" end="720" vehsPerHour="49.75145275956249"/>
  <flow id="JF17521" begin="660" fromJunction="J3" toJunction="J2" end="720" vehsPerHour="23.524530819974927"/>
  <flow id="JF17522" begin="660" fromJunction="J0" toJunction="J4" end="720" vehsPerHour="87.77339131983597"/>
  <flow id="JF17523" begin="660" fromJunction="J0" toJunction="J2" end="720" vehsPerHour="88.45042005591992"/>
  <flow id="JF17524" begin="720" fromJunction="J3" toJunction="J0" end="780" vehsPerHour="335.70106077268844"/>
  <flow id="JF17525" begin="720" fromJunction="J0" toJunction="J3" end="780" vehsPerHour="322.5073642944434"/>
  <flow id="JF17526" begin="720" fromJunction="J3" toJunction="J4" end="780" vehsPerHour="45.62947425727489"/>
  <flow id="JF17527" begin="720" fromJunction="J3" toJunction="J2" end="780" vehsPerHour="130.27896885894708"/>
  <flow id="JF17528" begin="720" fromJunction="J0" toJunction="J4" end="780" vehsPerHour="93.4326549136534"/>
  <flow id="JF17529" begin="720" fromJunction="J0" toJunction="J2" end="780" vehsPerHour="7.138599044496615"/>
  <flow id="JF17530" begin="780" fromJunction="J3" toJunction="J0" end="840" vehsPerHour="95.4192485581924"/>
  <flow id="JF17531" begin="780" fromJunction="J0" toJunction="J3" end="840" vehsPerHour="407.7548083441042"/>
  <flow id="JF17532" begin="780" fromJunction="J3" toJunction="J4" end="840" vehsPerHour="5.809294135496771"/>
  <flow id="JF17533" begin="780" fromJunction="J3" toJunction="J2" end="840" vehsPerHour="70.94629337429227"/>
  <flow id="JF17534" begin="780" fromJunction="J0" toJunction="J4" end="840" vehsPerHour="133.15416843792195"/>
  <flow id="JF17535" begin="780" fromJunction="J0" toJunction="J2" end="840" vehsPerHour="23.187797399251895"/>
  <flow id="JF17536" begin="780" fromJunction="J4" toJunction="J2" end="840" vehsPerHour="71.08043363795514"/>
  <flow id="JF17537" begin="780" fromJunction="J2" toJunction="J4" end="840" vehsPerHour="0.05028907010925825"/>
  <flow id="JF17538" begin="780" fromJunction="J4" toJunction="J3" end="840" vehsPerHour="59.08305005566896"/>
  <flow id="JF17539" begin="780" fromJunction="J4" toJunction="J0" end="840" vehsPerHour="38.013166259206706"/>
  <flow id="JF17540" begin="780" fromJunction="J2" toJunction="J3" end="840" vehsPerHour="114.59507861640087"/>
  <flow id="JF17541" begin="780" fromJunction="J2" toJunction="J0" end="840" vehsPerHour="116.14884487563303"/>
  <flow id="JF17542" begin="840" fromJunction="J3" toJunction="J0" end="900" vehsPerHour="290.2225592729379"/>
  <flow id="JF17543" begin="840" fromJunction="J0" toJunction="J3" end="900" vehsPerHour="11.059399985419564"/>
  <flow id="JF17544" begin="840" fromJunction="J3" toJunction="J4" end="900" vehsPerHour="20.263541728139277"/>
  <flow id="JF17545" begin="840" fromJunction="J3" toJunction="J2" end="900" vehsPerHour="77.56445000185157"/>
  <flow id="JF17546" begin="840" fromJunction="J0" toJunction="J4" end="900" vehsPerHour="134.9366090432501"/>
  <flow id="JF17547" begin="840" fromJunction="J0" toJunction="J2" end="900" vehsPerHour="5.585125258665216"/>
  <flow id="JF17548" begin="840" fromJunction="J4" toJunction="J2" end="900" vehsPerHour="41.11054036382325"/>
  <flow id="JF17549" begin="840" fromJunction="J2" toJunction="J4" end="900" vehsPerHour="80.38762823618245"/>
  <flow id="JF17550" begin="840" fromJunction="J4" toJunction="J3" end="900" vehsPerHour="126.92956672641678"/>
  <flow id="JF17551" begin="840" fromJunction="J4" toJunction="J0" end="900" vehsPerHour="71.27319166533185"/>
  <flow id="JF17552" begin="840" fromJunction="J2" toJunction="J3" end="900" vehsPerHour="117.32965160949317"/>
  <flow id="JF17553" begin="840" fromJunction="J2" toJunction="J0" end="900" vehsPerHour="49.084873098836184"/>
  <flow id="JF17554" begin="900" fromJunction="J3" toJunction="J0" end="960" vehsPerHour="2.1113855298910353"/>
  <flow id="JF17555" begin="900" fromJunction="J0" toJunction="J3" end="960" vehsPerHour="166.15093859300168"/>
  <flow id="JF17556" begin="900" fromJunction="J3" toJunction="J4" end="960" vehsPerHour="91.77404356589287"/>
  <flow id="JF17557" begin="900" fromJunction="J3" toJunction="J2" end="960" vehsPerHour="110.43893505528823"/>
  <flow id="JF17558" begin="900" fromJunction="J0" toJunction="J4" end="960" vehsPerHour="118.86516515842847"/>
  <flow id="JF17559" begin="900" fromJunction="J0" toJunction="J2" end="960" vehsPerHour="55.98395991226603"/>
  <flow id="JF17560" begin="900" fromJunction="J4" toJunction="J2" end="960" vehsPerHour="58.289705001457314"/>
  <flow id="JF17561" begin="900" fromJunction="J2" toJunction="J4" end="960" vehsPerHour="133.49523600656718"/>
  <flow id="JF17562" begin="900" fromJunction="J4" toJunction="J3" end="960" vehsPerHour="93.92337432893522"/>
  <flow id="JF17563" begin="900" fromJunction="J4" toJunction="J0" end="960" vehsPerHour="17.465515607197066"/>
  <flow id="JF17564" begin="900" fromJunction="J2" toJunction="J3" end="960" vehsPerHour="124.50011809142248"/>
  <flow id="JF17565" begin="900" fromJunction="J2" toJunction="J0" end="960" vehsPerHour="9.453056867590345"/>
  <flow id="JF17566" begin="960" fromJunction="J3" toJunction="J0" end="1020" vehsPerHour="431.41896551574655"/>
  <flow id="JF17567" begin="960" fromJunction="J0" toJunction="J3" end="1020" vehsPerHour="387.197143083257"/>
  <flow id="JF17568" begin="960" fromJunction="J3" toJunction="J4" end="1020" vehsPerHour="50.75081416845072"/>
  <flow id="JF17569" begin="960" fromJunction="J3" toJunction="J2" end="1020" vehsPerHour="58.93307242890957"/>
  <flow id="JF17570" begin="960" fromJunction="J0" toJunction="J4" end="1020" vehsPerHour="30.01173746410938"/>
  <flow id="JF17571" begin="960" fromJunction="J0" toJunction="J2" end="1020" vehsPerHour="106.59824563388376"/>
  <flow id="JF17572" begin="960" fromJunction="J4" toJunction="J2" end="1020" vehsPerHour="66.58724445241455"/>
  <flow id="JF17573" begin="960" fromJunction="J2" toJunction="J4" end="1020" vehsPerHour="82.17052587465405"/>
  <flow id="JF17574" begin="960" fromJunction="J4" toJunction="J3" end="1020" vehsPerHour="23.807037073782315"/>
  <flow id="JF17575" begin="960" fromJunction="J4" toJunction="J0" end="1020" vehsPerHour="2.8350891222963868"/>
  <flow id="JF17576" begin="960" fromJunction="J2" toJunction="J3" end="1020" vehsPerHour="44.53493191800344"/>
  <flow id="JF17577" begin="960" fromJunction="J2" toJunction="J0" end="1020" vehsPerHour="109.49595937056765"/>
  <flow id="JF17578" begin="1020" fromJunction="J3" toJunction="J0" end="1080" vehsPerHour="30.96903907969809"/>
  <flow id="JF17579" begin="1020" fromJunction="J0" toJunction="J3" end="1080" vehsPerHour="63.97697145698232"/>
  <flow id="JF17580" begin="1020" fromJunction="J3" toJunction="J4" end="1080" vehsPerHour="100.05732133380452"/>
  <flow id="JF17581" begin="1020" fromJunction="J3" toJunction="J2" end="1080" vehsPerHour="54.3850041744097"/>
  <flow id="JF17582" begin="1020" fromJunction="J0" toJunction="J4" end="1080" vehsPerHour="34.721801922062276"/>
  <flow id="JF17583" begin="1020" fromJunction="J0" toJunction="J2" end="1080" vehsPerHour="45.24971801508187"/>
  <flow id="JF17584" begin="1020" fromJunction="J4" toJunction="J2" end="1080" vehsPerHour="115.86215534246737"/>
  <flow id="JF17585" begin="1020" fromJunction="J2" toJunction="J4" end="1080" vehsPerHour="55.016062210567696"/>
  <flow id="JF17586" begin="1020" fromJunction="J4" toJunction="J3" end="1080" vehsPerHour="114.85652633250514"/>
  <flow id="JF17587" begin="1020" fromJunction="J4" toJunction="J0" end="1080" vehsPerHour="112.31782273463051"/>
  <flow id="JF17588" begin="1020" fromJunction="J2" toJunction="J3" end="1080" vehsPerHour="65.37458744126496"/>
  <flow id="JF17589" begin="1020" fromJunction="J2" toJunction="J0" end="1080" vehsPerHour="39.77610927532394"/>
  <flow id="JF17590" begin="1080" fromJunction="J3" toJunction="J0" end="1140" vehsPerHour="214.88874139461896"/>
  <flow id="JF17591" begin="1080" fromJunction="J0" toJunction="J3" end="1140" vehsPerHour="404.4825075503029"/>
  <flow id="JF17592" begin="1080" fromJunction="J3" toJunction="J4" end="1140" vehsPerHour="109.96987610043065"/>
  <flow id="JF17593" begin="1080" fromJunction="J3" toJunction="J2" end="1140" vehsPerHour="85.35585911515751"/>
  <flow id="JF17594" begin="1080" fromJunction="J0" toJunction="J4" end="1140" vehsPerHour="22.26339850519284"/>
  <flow id="JF17595" begin="1080" fromJunction="J0" toJunction="J2" end="1140" vehsPerHour="41.90084728373934"/>
  <flow id="JF17596" begin="1140" fromJunction="J3" toJunction="J0" end="1200" vehsPerHour="216.16931065878225"/>
  <flow id="JF17597" begin="1140" fromJunction="J0" toJunction="J3" end="1200" vehsPerHour="389.05407489458844"/>
  <flow id="JF17598" begin="1140" fromJunction="J3" toJunction="J4" end="1200" vehsPerHour="75.93742995890457"/>
  <flow id="JF17599" begin="1140" fromJunction="J3" toJunction="J2" end="1200" vehsPerHour="95.49850661013846"/>
  <flow id="JF17600" begin="1140" fromJunction="J0" toJunction="J4" end="1200" vehsPerHour="110.37782382033569"/>
  <flow id="JF17601" begin="1140" fromJunction="J0" toJunction="J2" end="1200" vehsPerHour="59.372714912395814"/>
  <flow id="JF17602" begin="1140" fromJunction="J4" toJunction="J2" end="1200" vehsPerHour="101.08222898639112"/>
  <flow id="JF17603" begin="1140" fromJunction="J2" toJunction="J4" end="1200" vehsPerHour="121.20654060868442"/>
  <flow id="JF17604" begin="1140" fromJunction="J4" toJunction="J3" end="1200" vehsPerHour="125.46511213529091"/>
  <flow id="JF17605" begin="1140" fromJunction="J4" toJunction="J0" end="1200" vehsPerHour="25.48312864520698"/>
  <flow id="JF17606" begin="1140" fromJunction="J2" toJunction="J3" end="1200" vehsPerHour="133.12302902523476"/>
  <flow id="JF17607" begin="1140" fromJunction="J2" toJunction="J0" end="1200" vehsPerHour="25.38490217996531"/>
  <flow id="JF17608" begin="1200" fromJunction="J3" toJunction="J0" end="1260" vehsPerHour="499.17313284887973"/>
  <flow id="JF17609" begin="1200" fromJunction="J0" toJunction="J3" end="1260" vehsPerHour="418.4773076465511"/>
  <flow id="JF17610" begin="1200" fromJunction="J3" toJunction="J4" end="1260" vehsPerHour="15.59240829142444"/>
  <flow id="JF17611" begin="1200" fromJunction="J3" toJunction="J2" end="1260" vehsPerHour="63.319939964249905"/>
  <flow id="JF17612" begin="1200" fromJunction="J0" toJunction="J4" end="1260" vehsPerHour="134.49175210964046"/>
  <flow id="JF17613" begin="1200" fromJunction="J0" toJunction="J2" end="1260" vehsPerHour="74.86307972107154"/>
  <flow id="JF17614" begin="1200" fromJunction="J4" toJunction="J2" end="1260" vehsPerHour="8.53276901565397"/>
  <flow id="JF17615" begin="1200" fromJunction="J2" toJunction="J4" end="1260" vehsPerHour="93.04099593973748"/>
  <flow id="JF17616" begin="1200" fromJunction="J4" toJunction="J3" end="1260" vehsPerHour="53.12755478280132"/>
  <flow id="JF17617" begin="1200" fromJunction="J4" toJunction="J0" end="1260" vehsPerHour="126.92777241724919"/>
  <flow id="JF17618" begin="1200" fromJunction="J2" toJunction="J3" end="1260" vehsPerHour="125.65736178462365"/>
  <flow id="JF17619" begin="1200" fromJunction="J2" toJunction="J0" end="1260" vehsPerHour="65.15663851103209"/>
  <flow id="JF17620" begin="1260" fromJunction="J3" toJunction="J0" end="1320" vehsPerHour="203.22979662519302"/>
  <flow id="JF17621" begin="1260" fromJunction="J0" toJunction="J3" end="1320" vehsPerHour="354.111971648742"/>
  <flow id="JF17622" begin="1260" fromJunction="J3" toJunction="J4" end="1320" vehsPerHour="48.43732861297492"/>
  <flow id="JF17623" begin="1260" fromJunction="J3" toJunction="J2" end="1320" vehsPerHour="117.11474480104543"/>
  <flow id="JF17624" begin="1260" fromJunction="J0" toJunction="J4" end="1320" vehsPerHour="55.6035576687611"/>
  <flow id="JF17625" begin="1260" fromJunction="J0" toJunction="J2" end="1320" vehsPerHour="82.72225089409723"/>
  <flow id="JF17626" begin="1260" fromJunction="J4" toJunction="J2" end="1320" vehsPerHour="35.200974074310956"/>
  <flow id="JF17627" begin="1260" fromJunction="J2" toJunction="J4" end="1320" vehsPerHour="15.83256088414357"/>
  <flow id="JF17628" begin="1260" fromJunction="J4" toJunction="J3" end="1320" vehsPerHour="135.25335689590267"/>
  <flow id="JF17629" begin="1260" fromJunction="J4" toJunction="J0" end="1320" vehsPerHour="21.80566425901221"/>
  <flow id="JF17630" begin="1260" fromJunction="J2" toJunction="J3" end="1320" vehsPerHour="90.1209823471977"/>
  <flow id="JF17631" begin="1260" fromJunction="J2" toJunction="J0" end="1320" vehsPerHour="12.80801335820564"/>
  <flow id="JF17632" begin="1320" fromJunction="J3" toJunction="J0" end="1380" vehsPerHour="55.32148188330303"/>
  <flow id="JF17633" begin="1320" fromJunction="J0" toJunction="J3" end="1380" vehsPerHour="252.40653534146418"/>
  <flow id="JF17634" begin="1320" fromJunction="J3" toJunction="J4" end="1380" vehsPerHour="111.60435131702893"/>
  <flow id="JF17635" begin="1320" fromJunction="J3" toJunction="J2" end="1380" vehsPerHour="81.23019870003976"/>
  <flow id="JF17636" begin="1320" fromJunction="J0" toJunction="J4" end="1380" vehsPerHour="4.60940733979779"/>
  <flow id="JF17637" begin="1320" fromJunction="J0" toJunction="J2" end="1380" vehsPerHour="51.69806895451921"/>
  <flow id="JF17638" begin="1320" fromJunction="J4" toJunction="J2" end="1380" vehsPerHour="74.07968749259581"/>
  <flow id="JF17639" begin="1320" fromJunction="J2" toJunction="J4" end="1380" vehsPerHour="118.50147733329219"/>
  <flow id="JF17640" begin="1320" fromJunction="J4" toJunction="J3" end="1380" vehsPerHour="107.98320631599974"/>
  <flow id="JF17641" begin="1320" fromJunction="J4" toJunction="J0" end="1380" vehsPerHour="18.33168194654777"/>
  <flow id="JF17642" begin="1320" fromJunction="J2" toJunction="J3" end="1380" vehsPerHour="19.585323878458254"/>
  <flow id="JF17643" begin="1320" fromJunction="J2" toJunction="J0" end="1380" vehsPerHour="13.05481474064651"/>
  <flow id="JF17644" begin="1380" fromJunction="J3" toJunction="J0" end="1440" vehsPerHour="320.8482166110614"/>
  <flow id="JF17645" begin="1380" fromJunction="J0" toJunction="J3" end="1440" vehsPerHour="3.35112218222028"/>
  <flow id="JF17646" begin="1380" fromJunction="J3" toJunction="J4" end="1440" vehsPerHour="102.60630797414355"/>
  <flow id="JF17647" begin="1380" fromJunction="J3" toJunction="J2" end="1440" vehsPerHour="46.48775285716642"/>
  <flow id="JF17648" begin="1380" fromJunction="J0" toJunction="J4" end="1440" vehsPerHour="10.54340798066802"/>
  <flow id="JF17649" begin="1380" fromJunction="J0" toJunction="J2" end="1440" vehsPerHour="56.372826227533466"/>
  <flow id="JF17650" begin="1380" fromJunction="J4" toJunction="J2" end="1440" vehsPerHour="3.07099709334298"/>
  <flow id="JF17651" begin="1380" fromJunction="J2" toJunction="J4" end="1440" vehsPerHour="32.75055562423817"/>
  <flow id="JF17652" begin="1380" fromJunction="J4" toJunction="J3" end="1440" vehsPerHour="79.23445735311022"/>
  <flow id="JF17653" begin="1380" fromJunction="J4" toJunction="J0" end="1440" vehsPerHour="114.42499253714473"/>
  <flow id="JF17654" begin="1380" fromJunction="J2" toJunction="J3" end="1440" vehsPerHour="99.77136365067064"/>
  <flow id="JF17655" begin="1380" fromJunction="J2" toJunction="J0" end="1440" vehsPerHour="33.738065089909824"/>
  <flow id="JF17656" begin="1440" fromJunction="J3" toJunction="J0" end="1500" vehsPerHour="68.96753483167126"/>
  <flow id="JF17657" begin="1440" fromJunction="J0" toJunction="J3" end="1500" vehsPerHour="491.0175781278453"/>
  <flow id="JF17658" begin="1440" fromJunction="J3" toJunction="J4" end="1500" vehsPerHour="59.64824044331435"/>
  <flow id="JF17659" begin="1440" fromJunction="J3" toJunction="J2" end="1500" vehsPerHour="10.67531635898851"/>
  <flow id="JF17660" begin="1440" fromJunction="J0" toJunction="J4" end="1500" vehsPerHour="120.62544528736976"/>
  <flow id="JF17661" begin="1440" fromJunction="J0" toJunction="J2" end="1500" vehsPerHour="31.029843250931716"/>
  <flow id="JF17662" begin="1440" fromJunction="J4" toJunction="J2" end="1500" vehsPerHour="50.93442742281193"/>
  <flow id="JF17663" begin="1440" fromJunction="J2" toJunction="J4" end="1500" vehsPerHour="78.80467048560934"/>
  <flow id="JF17664" begin="1440" fromJunction="J4" toJunction="J3" end="1500" vehsPerHour="69.52460129515285"/>
  <flow id="JF17665" begin="1440" fromJunction="J4" toJunction="J0" end="1500" vehsPerHour="111.61068738986567"/>
  <flow id="JF17666" begin="1440" fromJunction="J2" toJunction="J3" end="1500" vehsPerHour="58.82364821301497"/>
  <flow id="JF17667" begin="1440" fromJunction="J2" toJunction="J0" end="1500" vehsPerHour="128.61139656848073"/>
  <flow id="JF17668" begin="1500" fromJunction="J3" toJunction="J0" end="1560" vehsPerHour="415.1594983614429"/>
  <flow id="JF17669" begin="1500" fromJunction="J0" toJunction="J3" end="1560" vehsPerHour="344.43137796751853"/>
  <flow id="JF17670" begin="1500" fromJunction="J3" toJunction="J4" end="1560" vehsPerHour="66.23832381374939"/>
  <flow id="JF17671" begin="1500" fromJunction="J3" toJunction="J2" end="1560" vehsPerHour="122.52874523962942"/>
  <flow id="JF17672" begin="1500" fromJunction="J0" toJunction="J4" end="1560" vehsPerHour="38.13148168480819"/>
  <flow id="JF17673" begin="1500" fromJunction="J0" toJunction="J2" end="1560" vehsPerHour="24.331466735834034"/>
  <flow id="JF17674" begin="1500" fromJunction="J4" toJunction="J2" end="1560" vehsPerHour="30.806563283794723"/>
  <flow id="JF17675" begin="1500" fromJunction="J2" toJunction="J4" end="1560" vehsPerHour="39.435563672691266"/>
  <flow id="JF17676" begin="1500" fromJunction="J4" toJunction="J3" end="1560" vehsPerHour="48.134777175884494"/>
  <flow id="JF17677" begin="1500" fromJunction="J4" toJunction="J0" end="1560" vehsPerHour="90.55396490695146"/>
  <flow id="JF17678" begin="1500" fromJunction="J2" toJunction="J3" end="1560" vehsPerHour="127.21551349106838"/>
  <flow id="JF17679" begin="1500" fromJunction="J2" toJunction="J0" end="1560" vehsPerHour="70.92335144522401"/>
  <flow id="JF17680" begin="1560" fromJunction="J3" toJunction="J0" end="1620" vehsPerHour="477.9146437781579"/>
  <flow id="JF17681" begin="1560" fromJunction="J0" toJunction="J3" end="1620" vehsPerHour="518.3633439996227"/>
  <flow id="JF17682" begin="1560" fromJunction="J3" toJunction="J4" end="1620" vehsPerHour="40.78225228774317"/>
  <flow id="JF17683" begin="1560" fromJunction="J3" toJunction="J2" end="1620" vehsPerHour="116.33015806938037"/>
  <flow id="JF17684" begin="1560" fromJunction="J0" toJunction="J4" end="1620" vehsPerHour="94.8794291260051"/>
  <flow id="JF17685" begin="1560" fromJunction="J0" toJunction="J2" end="1620" vehsPerHour="62.89904528404757"/>
  <flow id="JF17686" begin="1560" fromJunction="J4" toJunction="J2" end="1620" vehsPerHour="36.193633953413254"/>
  <flow id="JF17687" begin="1560" fromJunction="J2" toJunction="J4" end="1620" vehsPerHour="21.061084480092873"/>