<?xml version="1.0" encoding="UTF-8"?>
<routes xmlns:xsi="http://www.w3.org/2001/XMLSchema-instance" xsi:noNamespaceSchemaLocation="http://sumo.dlr.de/xsd/routes_file.xsd">
  <flow id="JF29236" begin="0" fromJunction="J3" toJunction="J0" end="60" vehsPerHour="416.17901818734043"/>
  <flow id="JF29237" begin="0" fromJunction="J0" toJunction="J3" end="60" vehsPerHour="14.11729873825941"/>
  <flow id="JF29238" begin="0" fromJunction="J3" toJunction="J4" end="60" vehsPerHour="46.35315219967104"/>
  <flow id="JF29239" begin="0" fromJunction="J3" toJunction="J2" end="60" vehsPerHour="38.60572523695673"/>
  <flow id="JF29240" begin="0" fromJunction="J0" toJunction="J4" end="60" vehsPerHour="36.99594916932405"/>
  <flow id="JF29241" begin="0" fromJunction="J0" toJunction="J2" end="60" vehsPerHour="10.071757258988963"/>
  <flow id="JF29242" begin="0" fromJunction="J4" toJunction="J2" end="60" vehsPerHour="95.8164768810875"/>
  <flow id="JF29243" begin="0" fromJunction="J2" toJunction="J4" end="60" vehsPerHour="8.41265823086283"/>
  <flow id="JF29244" begin="0" fromJunction="J4" toJunction="J3" end="60" vehsPerHour="68.83727183465525"/>
  <flow id="JF29245" begin="0" fromJunction="J4" toJunction="J0" end="60" vehsPerHour="60.51536387500924"/>
  <flow id="JF29246" begin="0" fromJunction="J2" toJunction="J3" end="60" vehsPerHour="111.53667418982965"/>
  <flow id="JF29247" begin="0" fromJunction="J2" toJunction="J0" end="60" vehsPerHour="26.79714132354973"/>
  <flow id="JF29248" begin="60" fromJunction="J3" toJunction="J0" end="120" vehsPerHour="367.6498074944483"/>
  <flow id="JF29249" begin="60" fromJunction="J0" toJunction="J3" end="120" vehsPerHour="135.4184195829751"/>
  <flow id="JF29250" begin="60" fromJunction="J3" toJunction="J4" end="120" vehsPerHour="7.972325580260007"/>
  <flow id="JF29251" begin="60" fromJunction="J3" toJunction="J2" end="120" vehsPerHour="126.96797550078993"/>
  <flow id="JF29252" begin="60" fromJunction="J0" toJunction="J4" end="120" vehsPerHour="130.1609590800062"/>
  <flow id="JF29253" begin="60" fromJunction="J0" toJunction="J2" end="120" vehsPerHour="33.843491430889976"/>
  <flow id="JF29254" begin="60" fromJunction="J4" toJunction="J2" end="120" vehsPerHour="82.8836194199464"/>
  <flow id="JF29255" begin="60" fromJunction="J2" toJunction="J4" end="120" vehsPerHour="74.52987385293092"/>
  <flow id="JF29256" begin="60" fromJunction="J4" toJunction="J3" end="120" vehsPerHour="23.767431380467738"/>
  <flow id="JF29257" begin="60" fromJunction="J4" toJunction="J0" end="120" vehsPerHour="64.40509779531706"/>
  <flow id="JF29258" begin="60" fromJunction="J2" toJunction="J3" end="120" vehsPerHour="124.25971623807385"/>
  <flow id="JF29259" begin="60" fromJunction="J2" toJunction="J0" end="120" vehsPerHour="113.1370584683822"/>
  <flow id="JF29260" begin="120" fromJunction="J3" toJunction="J0" end="180" vehsPerHour="154.3774548855285"/>
  <flow id="JF29261" begin="120" fromJunction="J0" toJunction="J3" end="180" vehsPerHour="406.0268325409695"/>
  <flow id="JF29262" begin="120" fromJunction="J3" toJunction="J4" end="180" vehsPerHour="105.31756932288648"/>
  <flow id="JF29263" begin="120" fromJunction="J3" toJunction="J2" end="180" vehsPerHour="129.7338612481933"/>
  <flow id="JF29264" begin="120" fromJunction="J0" toJunction="J4" end="180" vehsPerHour="56.73867156254205"/>
  <flow id="JF29265" begin="120" fromJunction="J0" toJunction="J2" end="180" vehsPerHour="108.75169648649086"/>
  <flow id="JF29266" begin="120" fromJunction="J4" toJunction="J2" end="180" vehsPerHour="71.57199596020882"/>
  <flow id="JF29267" begin="120" fromJunction="J2" toJunction="J4" end="180" vehsPerHour="42.72566994412514"/>
  <flow id="JF29268" begin="120" fromJunction="J4" toJunction="J3" end="180" vehsPerHour="125.60526748293434"/>
  <flow id="JF29269" begin="120" fromJunction="J4" toJunction="J0" end="180" vehsPerHour="97.82254357810261"/>
  <flow id="JF29270" begin="120" fromJunction="J2" toJunction="J3" end="180" vehsPerHour="25.6327371227425"/>
  <flow id="JF29271" begin="120" fromJunction="J2" toJunction="J0" end="180" vehsPerHour="74.04818173727656"/>
  <flow id="JF29272" begin="180" fromJunction="J3" toJunction="J0" end="240" vehsPerHour="256.48060830879115"/>
  <flow id="JF29273" begin="180" fromJunction="J0" toJunction="J3" end="240" vehsPerHour="282.06559348142605"/>
  <flow id="JF29274" begin="180" fromJunction="J3" toJunction="J4" end="240" vehsPerHour="122.51690271656264"/>
  <flow id="JF29275" begin="180" fromJunction="J3" toJunction="J2" end="240" vehsPerHour="89.71609786199333"/>
  <flow id="JF29276" begin="180" fromJunction="J0" toJunction="J4" end="240" vehsPerHour="79.62495991638397"/>
  <flow id="JF29277" begin="180" fromJunction="J0" toJunction="J2" end="240" vehsPerHour="59.75415310307348"/>
  <flow id="JF29278" begin="180" fromJunction="J4" toJunction="J2" end="240" vehsPerHour="60.01625557083617"/>
  <flow id="JF29279" begin="180" fromJunction="J2" toJunction="J4" end="240" vehsPerHour="66.48368493461177"/>
  <flow id="JF29280" begin="180" fromJunction="J4" toJunction="J3" end="240" vehsPerHour="60.13697421105425"/>
  <flow id="JF29281" begin="180" fromJunction="J4" toJunction="J0" end="240" vehsPerHour="68.19807804770211"/>
  <flow id="JF29282" begin="180" fromJunction="J2" toJunction="J3" end="240" vehsPerHour="116.3593389992335"/>
  <flow id="JF29283" begin="180" fromJunction="J2" toJunction="J0" end="240" vehsPerHour="79.79498030497386"/>
  <flow id="JF29284" begin="240" fromJunction="J3" toJunction="J0" end="300" vehsPerHour="484.8281118622593"/>
  <flow id="JF29285" begin="240" fromJunction="J0" toJunction="J3" end="300" vehsPerHour="212.19362155716587"/>
  <flow id="JF29286" begin="240" fromJunction="J3" toJunction="J4" end="300" vehsPerHour="67.9778797170983"/>
  <flow id="JF29287" begin="240" fromJunction="J3" toJunction="J2" end="300" vehsPerHour="1.0104951024602826"/>
  <flow id="JF29288" begin="240" fromJunction="J0" toJunction="J4" end="300" vehsPerHour="106.69342916800265"/>
  <flow id="JF29289" begin="240" fromJunction="J0" toJunction="J2" end="300" vehsPerHour="97.6829720206215"/>
  <flow id="JF29290" begin="300" fromJunction="J3" toJunction="J0" end="360" vehsPerHour="212.84155805508675"/>
  <flow id="JF29291" begin="300" fromJunction="J0" toJunction="J3" end="360" vehsPerHour="130.63756713150818"/>
  <flow id="JF29292" begin="300" fromJunction="J3" toJunction="J4" end="360" vehsPerHour="14.772360966121665"/>
  <flow id="JF29293" begin="300" fromJunction="J3" toJunction="J2" end="360" vehsPerHour="79.89648011176327"/>
  <flow id="JF29294" begin="300" fromJunction="J0" toJunction="J4" end="360" vehsPerHour="56.26028342249093"/>
  <flow id="JF29295" begin="300" fromJunction="J0" toJunction="J2" end="360" vehsPerHour="118.2920651694788"/>
  <flow id="JF29296" begin="300" fromJunction="J4" toJunction="J2" end="360" vehsPerHour="28.578935003637287"/>
  <flow id="JF29297" begin="300" fromJunction="J2" toJunction="J4" end="360" vehsPerHour="39.25053110754364"/>
  <flow id="JF29298" begin="300" fromJunction="J4" toJunction="J3" end="360" vehsPerHour="12.927539968269517"/>
  <flow id="JF29299" begin="300" fromJunction="J4" toJunction="J0" end="360" vehsPerHour="99.01863074817345"/>
  <flow id="JF29300" begin="300" fromJunction="J2" toJunction="J3" end="360" vehsPerHour="66.66697787669345"/>
  <flow id="JF29301" begin="300" fromJunction="J2" toJunction="J0" end="360" vehsPerHour="0.997796645287413"/>
  <flow id="JF29302" begin="360" fromJunction="J3" toJunction="J0" end="420" vehsPerHour="119.30658603115786"/>
  <flow id="JF29303" begin="360" fromJunction="J0" toJunction="J3" end="420" vehsPerHour="53.18010877352482"/>
  <flow id="JF29304" begin="360" fromJunction="J3" toJunction="J4" end="420" vehsPerHour="128.7304572678814"/>
  <flow id="JF29305" begin="360" fromJunction="J3" toJunction="J2" end="420" vehsPerHour="133.47543921278714"/>
  <flow id="JF29306" begin="360" fromJunction="J0" toJunction="J4" end="420" vehsPerHour="31.8213561312438"/>
  <flow id="JF29307" begin="360" fromJunction="J0" toJunction="J2" end="420" vehsPerHour="67.13643272179144"/>
  <flow id="JF29308" begin="360" fromJunction="J4" toJunction="J2" end="420" vehsPerHour="1.2355075417543797"/>
  <flow id="JF29309" begin="360" fromJunction="J2" toJunction="J4" end="420" vehsPerHour="83.23290843272028"/>
  <flow id="JF29310" begin="360" fromJunction="J4" toJunction="J3" end="420" vehsPerHour="17.51450994744861"/>
  <flow id="JF29311" begin="360" fromJunction="J4" toJunction="J0" end="420" vehsPerHour="69.45501983581912"/>
  <flow id="JF29312" begin="360" fromJunction="J2" toJunction="J3" end="420" vehsPerHour="93.52240898351138"/>
  <flow id="JF29313" begin="360" fromJunction="J2" toJunction="J0" end="420" vehsPerHour="49.76128196427727"/>
  <flow id="JF29314" begin="420" fromJunction="J3" toJunction="J0" end="480" vehsPerHour="320.9037125145307"/>
  <flow id="JF29315" begin="420" fromJunction="J0" toJunction="J3" end="480" vehsPerHour="516.0558698271175"/>
  <flow id="JF29316" begin="420" fromJunction="J3" toJunction="J4" end="480" vehsPerHour="107.86087430525791"/>
  <flow id="JF29317" begin="420" fromJunction="J3" toJunction="J2" end="480" vehsPerHour="69.04984592290984"/>
  <flow id="JF29318" begin="420" fromJunction="J0" toJunction="J4" end="480" vehsPerHour="113.71991819791936"/>
  <flow id="JF29319" begin="420" fromJunction="J0" toJunction="J2" end="480" vehsPerHour="125.03089065460458"/>
  <flow id="JF29320" begin="420" fromJunction="J4" toJunction="J2" end="480" vehsPerHour="132.66637729373173"/>
  <flow id="JF29321" begin="420" fromJunction="J2" toJunction="J4" end="480" vehsPerHour="75.60287018608764"/>
  <flow id="JF29322" begin="420" fromJunction="J4" toJunction="J3" end="480" vehsPerHour="57.06650274166094"/>
  <flow id="JF29323" begin="420" fromJunction="J4" toJunction="J0" end="480" vehsPerHour="137.0666951303381"/>
  <flow id="JF29324" begin="420" fromJunction="J2" toJunction="J3" end="480" vehsPerHour="36.5207757206992"/>
  <flow id="JF29325" begin="420" fromJunction="J2" toJunction="J0" end="480" vehsPerHour="88.15378284771639"/>
  <flow id="JF29326" begin="480" fromJunction="J3" toJunction="J0" end="540" vehsPerHour="133.09478212978038"/>
  <flow id="JF29327" begin="480" fromJunction="J0" toJunction="J3" end="540" vehsPerHour="157.84116980188205"/>
  <flow id="JF29328" begin="480" fromJunction="J3" toJunction="J4" end="540" vehsPerHour="125.6804026701804"/>
  <flow id="JF29329" begin="480" fromJunction="J3" toJunction="J2" end="540" vehsPerHour="77.10706521928792"/>
  <flow id="JF29330" begin="480" fromJunction="J0" toJunction="J4" end="540" vehsPerHour="79.23913916808867"/>
  <flow id="JF29331" begin="480" fromJunction="J0" toJunction="J2" end="540" vehsPerHour="90.64549854053526"/>
  <flow id="JF29332" begin="480" fromJunction="J4" toJunction="J2" end="540" vehsPerHour="24.899401245241705"/>
  <flow id="JF29333" begin="480" fromJunction="J2" toJunction="J4" end="540" vehsPerHour="13.511550955274519"/>
  <flow id="JF29334" begin="480" fromJunction="J4" toJunction="J3" end="540" vehsPerHour="127.95830356300529"/>
  <flow id="JF29335" begin="480" fromJunction="J4" toJunction="J0" end="540" vehsPerHour="20.90328407532715"/>
  <flow id="JF29336" begin="480" fromJunction="J2" toJunction="J3" end="540" vehsPerHour="37.38204293813135"/>
  <flow id="JF29337" begin="480" fromJunction="J2" toJunction="J0" end="540" vehsPerHour="93.72472817509997"/>
  <flow id="JF29338" begin="540" fromJunction="J3" toJunction="J0" end="600" vehsPerHour="301.50383411456846"/>
  <flow id="JF29339" begin="540" fromJunction="J0" toJunction="J3" end="600" vehsPerHour="384.2435721255369"/>
  <flow id="JF29340" begin="540" fromJunction="J3" toJunction="J4" end="600" vehsPerHour="90.09042245111816"/>
  <flow id="JF29341" begin="540" fromJunction="J3" toJunction="J2" end="600" vehsPerHour="82.00751741581153"/>
  <flow id="JF29342" begin="540" fromJunction="J0" toJunction="J4" end="600" vehsPerHour="71.7814141383559"/>
  <flow id="JF29343" begin="540" fromJunction="J0" toJunction="J2" end="600" vehsPerHour="40.873207461042085"/>
  <flow id="JF29344" begin="540" fromJunction="J4" toJunction="J2" end="600" vehsPerHour="32.95370943909754"/>
  <flow id="JF29345" begin="540" fromJunction="J2" toJunction="J4" end="600" vehsPerHour="92.70365237121453"/>
  <flow id="JF29346" begin="540" fromJunction="J4" toJunction="J3" end="600" vehsPerHour="86.17324657004943"/>
  <flow id="JF29347" begin="540" fromJunction="J4" toJunction="J0" end="600" vehsPerHour="5.5637222042510786"/>
  <flow id="JF29348" begin="540" fromJunction="J2" toJunction="J3" end="600" vehsPerHour="105.592200799409"/>
  <flow id="JF29349" begin="540" fromJunction="J2" toJunction="J0" end="600" vehsPerHour="74.75819538363328"/>
  <flow id="JF29350" begin="600" fromJunction="J3" toJunction="J0" end="660" vehsPerHour="113.91270836455949"/>
  <flow id="JF29351" begin="600" fromJunction="J0" toJunction="J3" end="660" vehsPerHour="104.65162111528383"/>
  <flow id="JF29352" begin="600" fromJunction="J3" toJunction="J4" end="660" vehsPerHour="5.332332871403149"/>
  <flow id="JF29353" begin="600" fromJunction="J3" toJunction="J2" end="660" vehsPerHour="72.32129492154745"/>
  <flow id="JF29354" begin="600" fromJunction="J0" toJunction="J4" end="660" vehsPerHour="0.5078145731681296"/>
  <flow id="JF29355" begin="600" fromJunction="J0" toJunction="J2" end="660" vehsPerHour="62.74514295408087"/>
  <flow id="JF29356" begin="600" fromJunction="J4" toJunction="J2" end="660" vehsPerHour="126.96788750832559"/>
  <flow id="JF29357" begin="600" fromJunction="J2" toJunction="J4" end="660" vehsPerHour="10.961068517948524"/>
  <flow id="JF29358" begin="600" fromJunction="J4" toJunction="J3" end="660" vehsPerHour="51.309844295957646"/>
  <flow id="JF29359" begin="600" fromJunction="J4" toJunction="J0" end="660" vehsPerHour="14.576037064349348"/>
  <flow id="JF29360" begin="600" fromJunction="J2" toJunction="J3" end="660" vehsPerHour="50.27228335331859"/>
  <flow id="JF29361" begin="600" fromJunction="J2" toJunction="J0" end="660" vehsPerHour="35.53172091883633"/>
  <flow id="JF29362" begin="660" fromJunction="J3" toJunction="J0" end="720" vehsPerHour="404.3089457654418"/>
  <flow id="JF29363" begin="660" fromJunction="J0" toJunction="J3" end="720" vehsPerHour="89.56566054652248"/>
  <flow id="JF29364" begin="660" fromJunction="J3" toJunction="J4" end="720" vehsPerHour="32.24013179828058"/>
  <flow id="JF29365" begin="660" fromJunction="J3" toJunction="J2" end="720" vehsPerHour="86.0024323407764"/>
  <flow id="JF29366" begin="660" fromJunction="J0" toJunction="J4" end="720" vehsPerHour="65.80321399242581"/>
  <flow id="JF29367" begin="660" fromJunction="J0" toJunction="J2" end="720" vehsPerHour="5.5951835844771045"/>
  <flow id="JF29368" begin="660" fromJunction="J4" toJunction="J2" end="720" vehsPerHour="77.8318531757595"/>
  <flow id="JF29369" begin="660" fromJunction="J2" toJunction="J4" end="720" vehsPerHour="84.37319017609023"/>
  <flow id="JF29370" begin="660" fromJunction="J4" toJunction="J3" end="720" vehsPerHour="113.34607941815966"/>
  <flow id="JF29371" begin="660" fromJunction="J4" toJunction="J0" end="720" vehsPerHour="16.912314374684165"/>
  <flow id="JF29372" begin="660" fromJunction="J2" toJunction="J3" end="720" vehsPerHour="64.2600658826935"/>
  <flow id="JF29373" begin="660" fromJunction="J2" toJunction="J0" end="720" vehsPerHour="31.50011533257427"/>
  <flow id="JF29374" begin="720" fromJunction="J3" toJunction="J0" end="780" vehsPerHour="418.0434940898195"/>
  <flow id="JF29375" begin="720" fromJunction="J0" toJunction="J3" end="780" vehsPerHour="184.45070294580768"/>
  <flow id="JF29376" begin="720" fromJunction="J3" toJunction="J4" end="780" vehsPerHour="32.826819417220634"/>
  <flow id="JF29377" begin="720" fromJunction="J3" toJunction="J2" end="780" vehsPerHour="55.66728180473692"/>
  <flow id="JF29378" begin="720" fromJunction="J0" toJunction="J4" end="780" vehsPerHour="115.29505579014446"/>
  <flow id="JF29379" begin="720" fromJunction="J0" toJunction="J2" end="780" vehsPerHour="28.843711941808152"/>
  <flow id="JF29380" begin="720" fromJunction="J4" toJunction="J2" end="780" vehsPerHour="101.66110094192433"/>
  <flow id="JF29381" begin="720" fromJunction="J2" toJunction="J4" end="780" vehsPerHour="72.5477331650814"/>
  <flow id="JF29382" begin="720" fromJunction="J4" toJunction="J3" end="780" vehsPerHour="5.802995283249314"/>
  <flow id="JF29383" begin="720" fromJunction="J4" toJunction="J0" end="780" vehsPerHour="22.574367969082306"/>
  <flow id="JF29384" begin="720" fromJunction="J2" toJunction="J3" end="780" vehsPerHour="64.38777871814675"/>
  <flow id="JF29385" begin="720" fromJunction="J2" toJunction="J0" end="780" vehsPerHour="17.754660059378498"/>
  <flow id="JF29386" begin="780" fromJunction="J3" toJunction="J0" end="840" vehsPerHour="533.7574381321025"/>
  <flow id="JF29387" begin="780" fromJunction="J0" toJunction="J3" end="840" vehsPerHour="230.13806649647032"/>
  <flow id="JF29388" begin="780" fromJunction="J3" toJunction="J4" end="840" vehsPerHour="98.60095484864719"/>
  <flow id="JF29389" begin="780" fromJunction="J3" toJunction="J2" end="840" vehsPerHour="41.40655396102043"/>
  <flow id="JF29390" begin="780" fromJunction="J0" toJunction="J4" end="840" vehsPerHour="44.22748469290198"/>
  <flow id="JF29391" begin="780" fromJunction="J0" toJunction="J2" end="840" vehsPerHour="80.34236948369903"/>
  <flow id="JF29392" begin="840" fromJunction="J3" toJunction="J0" end="900" vehsPerHour="536.2025297286264"/>
  <flow id="JF29393" begin="840" fromJunction="J0" toJunction="J3" end="900" vehsPerHour="87.82510622891651"/>
  <flow id="JF29394" begin="840" fromJunction="J3" toJunction="J4" end="900" vehsPerHour="67.73118351224986"/>
  <flow id="JF29395" begin="840" fromJunction="J3" toJunction="J2" end="900" vehsPerHour="54.77147787487627"/>
  <flow id="JF29396" begin="840" fromJunction="J0" toJunction="J4" end="900" vehsPerHour="39.35397393410806"/>
  <flow id="JF29397" begin="840" fromJunction="J0" toJunction="J2" end="900" vehsPerHour="127.89725341650212"/>
  <flow id="JF29398" begin="840" fromJunction="J4" toJunction="J2" end="900" vehsPerHour="16.283519571992617"/>
  <flow id="JF29399" begin="840" fromJunction="J2" toJunction="J4" end="900" vehsPerHour="22.682487254442382"/>
  <flow id="JF29400" begin="840" fromJunction="J4" toJunction="J3" end="900" vehsPerHour="38.90539493657311"/>
  <flow id="JF29401" begin="840" fromJunction="J4" toJunction="J0" end="900" vehsPerHour="97.94987026452907"/>
  <flow id="JF29402" begin="840" fromJunction="J2" toJunction="J3" end="900" vehsPerHour="123.80804012937239"/>
  <flow id="JF29403" begin="840" fromJunction="J2" toJunction="J0" end="900" vehsPerHour="112.06394399869191"/>
  <flow id="JF29404" begin="900" fromJunction="J3" toJunction="J0" end="960" vehsPerHour="55.99854462643207"/>
  <flow id="JF29405" begin="900" fromJunction="J0" toJunction="J3" end="960" vehsPerHour="436.3420390880645"/>
  <flow id="JF29406" begin="900" fromJunction="J3" toJunction="J4" end="960" vehsPerHour="12.826188735580473"/>
  <flow id="JF29407" begin="900" fromJunction="J3" toJunction="J2" end="960" vehsPerHour="37.31677095745435"/>
  <flow id="JF29408" begin="900" fromJunction="J0" toJunction="J4" end="960" vehsPerHour="11.066050452416414"/>
  <flow id="JF29409" begin="900" fromJunction="J0" toJunction="J2" end="960" vehsPerHour="25.92015667812417"/>
  <flow id="JF29410" begin="900" fromJunction="J4" toJunction="J2" end="960" vehsPerHour="99.54346587369878"/>
  <flow id="JF29411" begin="900" fromJunction="J2" toJunction="J4" end="960" vehsPerHour="106.90439889044748"/>
  <flow id="JF29412" begin="900" fromJunction="J4" toJunction="J3" end="960" vehsPerHour="65.6252258000985"/>
  <flow id="JF29413" begin="900" fromJunction="J4" toJunction="J0" end="960" vehsPerHour="102.27460020387643"/>
  <flow id="JF29414" begin="900" fromJunction="J2" toJunction="J3" end="960" vehsPerHour="106.05183550943859"/>
  <flow id="JF29415" begin="900" fromJunction="J2" toJunction="J0" end="960" vehsPerHour="96.1167188446756"/>
  <flow id="JF29416" begin="960" fromJunction="J3" toJunction="J0" end="1020" vehsPerHour="40.03244211279935"/>
  <flow id="JF29417" begin="960" fromJunction="J0" toJunction="J3" end="1020" vehsPerHour="179.4512607583029"/>
  <flow id="JF29418" begin="960" fromJunction="J3" toJunction="J4" end="1020" vehsPerHour="19.43839872781464"/>
  <flow id="JF29419" begin="960" fromJunction="J3" toJunction="J2" end="1020" vehsPerHour="51.41376028798078"/>
  <flow id="JF29420" begin="960" fromJunction="J0" toJunction="J4" end="1020" vehsPerHour="73.59981653161593"/>
  <flow id="JF29421" begin="960" fromJunction="J0" toJunction="J2" end="1020" vehsPerHour="35.41454534698036"/>
  <flow id="JF29422" begin="960" fromJunction="J4" toJunction="J2" end="1020" vehsPerHour="126.29058861905209"/>
  <flow id="JF29423" begin="960" fromJunction="J2" toJunction="J4" end="1020" vehsPerHour="42.984016023303205"/>
  <flow id="JF29424" begin="960" fromJunction="J4" toJunction="J3" end="1020" vehsPerHour="91.04182111135377"/>
  <flow id="JF29425" begin="960" fromJunction="J4" toJunction="J0" end="1020" vehsPerHour="128.70262040871538"/>
  <flow id="JF29426" begin="960" fromJunction="J2" toJunction="J3" end="1020" vehsPerHour="51.522140153398006"/>
  <flow id="JF29427" begin="960" fromJunction="J2" toJunction="J0" end="1020" vehsPerHour="55.95039690394865"/>
  <flow id="JF29428" begin="1020" fromJunction="J3" toJunction="J0" end="1080" vehsPerHour="347.6297016773504"/>
  <flow id="JF29429" begin="1020" fromJunction="J0" toJunction="J3" end="1080" vehsPerHour="190.94043706582633"/>
  <flow id="JF29430" begin="1020" fromJunction="J3" toJunction="J4" end="1080" vehsPerHour="130.442705194666"/>
  <flow id="JF29431" begin="1020" fromJunction="J3" toJunction="J2" end="1080" vehsPerHour="15.903206800994676"/>
  <flow id="JF29432" begin="1020" fromJunction="J0" toJunction="J4" end="1080" vehsPerHour="87.93082788036568"/>
  <flow id="JF29433" begin="1020" fromJunction="J0" toJunction="J2" end="1080" vehsPerHour="30.291215965402056"/>
  <flow id="JF29434" begin="1020" fromJunction="J4" toJunction="J2" end="1080" vehsPerHour="20.9631022945504"/>
  <flow id="JF29435" begin="1020" fromJunction="J2" toJunction="J4" end="1080" vehsPerHour="0.34149919934733713"/>
  <flow id="JF29436" begin="1020" fromJunction="J4" toJunction="J3" end="1080" vehsPerHour="9.383081548636698"/>
  <flow id="JF29437" begin="1020" fromJunction="J4" toJunction="J0" end="1080" vehsPerHour="28.13665739539963"/>
  <flow id="JF29438" begin="1020" fromJunction="J2" toJunction="J3" end="1080" vehsPerHour="43.08066016249234"/>
  <flow id="JF29439" begin="1020" fromJunction="J2" toJunction="J0" end="1080" vehsPerHour="66.9192821677457"/>
  <flow id="JF29440" begin="1080" fromJunction="J3" toJunction="J0" end="1140" vehsPerHour="75.64824779765736"/>
  <flow id="JF29441" begin="1080" fromJunction="J0" toJunction="J3" end="1140" vehsPerHour="187.15534034133063"/>
  <flow id="JF29442" begin="1080" fromJunction="J3" toJunction="J4" end="1140" vehsPerHour="45.42757393534153"/>
  <flow id="JF29443" begin="1080" fromJunction="J3" toJunction="J2" end="1140" vehsPerHour="28.35012262912296"/>
  <flow id="JF29444" begin="1080" fromJunction="J0" toJunction="J4" end="1140" vehsPerHour="101.69938815435292"/>
  <flow id="JF29445" begin="1080" fromJunction="J0" toJunction="J2" end="1140" vehsPerHour="37.91383299704042"/>
  <flow id="JF29446" begin="1080" fromJunction="J4" toJunction="J2" end="1140" vehsPerHour="134.63976833937375"/>
  <flow id="JF29447" begin="1080" fromJunction="J2" toJunction="J4" end="1140" vehsPerHour="42.60992458698195"/>
  <flow id="JF29448" begin="1080" fromJunction="J4" toJunction="J3" end="1140" vehsPerHour="42.8918683203308"/>
  <flow id="JF29449" begin="1080" fromJunction="J4" toJunction="J0" end="1140" vehsPerHour="49.0867953478326"/>
  <flow id="JF29450" begin="1080" fromJunction="J2" toJunction="J3" end="1140" vehsPerHour="77.35611511273622"/>
  <flow id="JF29451" begin="1080" fromJunction="J2" toJunction="J0" end="1140" vehsPerHour="136.1099541668934"/>
  <flow id="JF29452" begin="1140" fromJunction="J3" toJunction="J0" end="1200" vehsPerHour="141.34320963773587"/>
  <flow id="JF29453" begin="1140" fromJunction="J0" toJunction="J3" end="1200" vehsPerHour="464.05185693765134"/>
  <flow id="JF29454" begin="1140" fromJunction="J3" toJunction="J4" end="1200" vehsPerHour="121.92525859097601"/>
  <flow id="JF29455" begin="1140" fromJunction="J3" toJunction="J2" end="1200" vehsPerHour="93.90479289825241"/>
  <flow id="JF29456" begin="1140" fromJunction="J0" toJunction="J4" end="1200" vehsPerHour="31.073524867703057"/>
  <flow id="JF29457" begin="1140" fromJunction="J0" toJunction="J2" end="1200" vehsPerHour="26.879764134706996"/>
  <flow id="JF29458" begin="1140" fromJunction="J4" toJunction="J2" end="1200" vehsPerHour="131.85614723562585"/>
  <flow id="JF29459" begin="1140" fromJunction="J2" toJunction="J4" end="1200" vehsPerHour="90.58528985475843"/>
  <flow id="JF29460" begin="1140" fromJunction="J4" toJunction="J3" end="1200" vehsPerHour="136.66730976470996"/>
  <flow id="JF29461" begin="1140" fromJunction="J4" toJunction="J0" end="1200" vehsPerHour="63.14191885771527"/>
  <flow id="JF29462" begin="1140" fromJunction="J2" toJunction="J3" end="1200" vehsPerHour="108.28006842222979"/>
  <flow id="JF29463" begin="1140" fromJunction="J2" toJunction="J0" end="1200" vehsPerHour="58.49692515187834"/>
  <flow id="JF29464" begin="1200" fromJunction="J3" toJunction="J0" end="1260" vehsPerHour="108.82674306884148"/>
  <flow id="JF29465" begin="1200" fromJunction="J0" toJunction="J3" end="1260" vehsPerHour="346.5158846004833"/>
  <flow id="JF29466" begin="1200" fromJunction="J3" toJunction="J4" end="1260" vehsPerHour="19.360656771228776"/>
  <flow id="JF29467" begin="1200" fromJunction="J3" toJunction="J2" end="1260" vehsPerHour="123.66481314493893"/>
  <flow id="JF29468" begin="1200" fromJunction="J0" toJunction="J4" end="1260" vehsPerHour="73.7810294478191"/>
  <flow id="JF29469" begin="1200" fromJunction="J0" toJunction="J2" end="1260" vehsPerHour="36.533041846659756"/>
  <flow id="JF29470" begin="1200" fromJunction="J4" toJunction="J2" end="1260" vehsPerHour="136.76043501921552"/>
  <flow id="JF29471" begin="1200" fromJunction="J2" toJunction="J4" end="1260" vehsPerHour="78.69270662343952"/>
  <flow id="JF29472" begin="1200" fromJunction="J4" toJunction="J3" end="1260" vehsPerHour="115.69545856817217"/>
  <flow id="JF29473" begin="1200" fromJunction="J4" toJunction="J0" end="1260" vehsPerHour="89.45645048738994"/>
  <flow id="JF29474" begin="1200" fromJunction="J2" toJunction="J3" end="1260" vehsPerHour="38.774787991151356"/>
  <flow id="JF29475" begin="1200" fromJunction="J2" toJunction="J0" end="1260" vehsPerHour="8.545482063380865"/>
  <flow id="JF29476" begin="1260" fromJunction="J3" toJunction="J0" end="1320" vehsPerHour="497.1698682505702"/>
  <flow id="JF29477" begin="1260" fromJunction="J0" toJunction="J3" end="1320" vehsPerHour="101.77201966848858"/>
  <flow id="JF29478" begin="1260" fromJunction="J3" toJunction="J4" end="1320" vehsPerHour="6.860447339127884"/>
  <flow id="JF29479" begin="1260" fromJunction="J3" toJunction="J2" end="1320" vehsPerHour="48.1609415469271"/>
  <flow id="JF29480" begin="1260" fromJunction="J0" toJunction="J4" end="1320" vehsPerHour="0.42578983992474984"/>
  <flow id="JF29481" begin="1260" fromJunction="J0" toJunction="J2" end="1320" vehsPerHour="120.2705360233072"/>
  <flow id="JF29482" begin="1260" fromJunction="J4" toJunction="J2" end="1320" vehsPerHour="127.47365996428056"/>
  <flow id="JF29483" begin="1260" fromJunction="J2" toJunction="J4" end="1320" vehsPerHour="43.358299971696276"/>
  <flow id="JF29484" begin="1260" fromJunction="J4" toJunction="J3" end="1320" vehsPerHour="63.437298691119686"/>
  <flow id="JF29485" begin="1260" fromJunction="J4" toJunction="J0" end="1320" vehsPerHour="130.28160233728096"/>
  <flow id="JF29486" begin="1260" fromJunction="J2" toJunction="J3" end="1320" vehsPerHour="97.23184773184663"/>
  <flow id="JF29487" begin="1260" fromJunction="J2" toJunction="J0" end="1320" vehsPerHour="76.18639348272256"/>
  <flow id="JF29488" begin="1320" fromJunction="J3" toJunction="J0" end="1380" vehsPerHour="236.8598954132572"/>
  <flow id="JF29489" begin="1320" fromJunction="J0" toJunction="J3" end="1380" vehsPerHour="438.81769843259315"/>
  <flow id="JF29490" begin="1320" fromJunction="J3" toJunction="J4" end="1380" vehsPerHour="50.11050804720659"/>
  <flow id="JF29491" begin="1320" fromJunction="J3" toJunction="J2" end="1380" vehsPerHour="15.455692470596933"/>
  <flow id="JF29492" begin="1320" fromJunction="J0" toJunction="J4" end="1380" vehsPerHour="121.36364142643917"/>
  <flow id="JF29493" begin="1320" fromJunction="J0" toJunction="J2" end="1380" vehsPerHour="0.8539243107231441"/>
  <flow id="JF29494" begin="1320" fromJunction="J4" toJunction="J2" end="1380" vehsPerHour="111.9208785999895"/>
  <flow id="JF29495" begin="1320" fromJunction="J2" toJunction="J4" end="1380" vehsPerHour="121.7169906462141"/>
  <flow id="JF29496" begin="1320" fromJunction="J4" toJunction="J3" end="1380" vehsPerHour="121.25393061073605"/>
  <flow id="JF29497" begin="1320" fromJunction="J4" toJunction="J0" end="1380" vehsPerHour="53.84449034609029"/>
  <flow id="JF29498" begin="1320" fromJunction="J2" toJunction="J3" end="1380" vehsPerHour="83.03350630320354"/>
  <flow id="JF29499" begin="1320" fromJunction="J2" toJunction="J0" end="1380" vehsPerHour="120.83106226612843"/>
  <flow id="JF29500" begin="1380" fromJunction="J3" toJunction="J0" end="1440" vehsPerHour="449.96461873543774"/>
  <flow id="JF29501" begin="1380" fromJunction="J0" toJunction="J3" end="1440" vehsPerHour="227.0098532170707"/>