<?xml version="1.0" encoding="UTF-8"?>
<routes xmlns:xsi="http://www.w3.org/2001/XMLSchema-instance" xsi:noNamespaceSchemaLocation="http://sumo.dlr.de/xsd/routes_file.xsd">
  <flow id="JF22426" begin="0" fromJunction="J3" toJunction="J0" end="60" vehsPerHour="413.27686491387533"/>
  <flow id="JF22427" begin="0" fromJunction="J0" toJunction="J3" end="60" vehsPerHour="107.29754321237854"/>
  <flow id="JF22428" begin="0" fromJunction="J3" toJunction="J4" end="60" vehsPerHour="37.56920987824248"/>
  <flow id="JF22429" begin="0" fromJunction="J3" toJunction="J2" end="60" vehsPerHour="80.30044299309793"/>
  <flow id="JF22430" begin="0" fromJunction="J0" toJunction="J4" end="60" vehsPerHour="88.24070492013966"/>
  <flow id="JF22431" begin="0" fromJunction="J0" toJunction="J2" end="60" vehsPerHour="125.54709097827188"/>
  <flow id="JF22432" begin="0" fromJunction="J4" toJunction="J2" end="60" vehsPerHour="62.80728245839551"/>
  <flow id="JF22433" begin="0" fromJunction="J2" toJunction="J4" end="60" vehsPerHour="57.241478896045635"/>
  <flow id="JF22434" begin="0" fromJunction="J4" toJunction="J3" end="60" vehsPerHour="137.33704288857234"/>
  <flow id="JF22435" begin="0" fromJunction="J4" toJunction="J0" end="60" vehsPerHour="20.349308057625173"/>
  <flow id="JF22436" begin="0" fromJunction="J2" toJunction="J3" end="60" vehsPerHour="122.24082519926716"/>
  <flow id="JF22437" begin="0" fromJunction="J2" toJunction="J0" end="60" vehsPerHour="51.453794637107954"/>
  <flow id="JF22438" begin="60" fromJunction="J3" toJunction="J0" end="120" vehsPerHour="217.86192072541527"/>
  <flow id="JF22439" begin="60" fromJunction="J0" toJunction="J3" end="120" vehsPerHour="244.98208768829062"/>
  <flow id="JF22440" begin="60" fromJunction="J3" toJunction="J4" end="120" vehsPerHour="60.657960693924736"/>
  <flow id="JF22441" begin="60" fromJunction="J3" toJunction="J2" end="120" vehsPerHour="66.5994565444769"/>
  <flow id="JF22442" begin="60" fromJunction="J0" toJunction="J4" end="120" vehsPerHour="25.83907041713131"/>
  <flow id="JF22443" begin="60" fromJunction="J0" toJunction="J2" end="120" vehsPerHour="40.498081375005064"/>
  <flow id="JF22444" begin="60" fromJunction="J4" toJunction="J2" end="120" vehsPerHour="94.3657956967883"/>
  <flow id="JF22445" begin="60" fromJunction="J2" toJunction="J4" end="120" vehsPerHour="82.55533771661544"/>
  <flow id="JF22446" begin="60" fromJunction="J4" toJunction="J3" end="120" vehsPerHour="38.71731986001071"/>
  <flow id="JF22447" begin="60" fromJunction="J4" toJunction="J0" end="120" vehsPerHour="117.64243489514814"/>
  <flow id="JF22448" begin="60" fromJunction="J2" toJunction="J3" end="120" vehsPerHour="5.882806503996981"/>
  <flow id="JF22449" begin="60" fromJunction="J2" toJunction="J0" end="120" vehsPerHour="108.73228159453257"/>
  <flow id="JF22450" begin="120" fromJunction="J3" toJunction="J0" end="180" vehsPerHour="502.00122019208027"/>
  <flow id="JF22451" begin="120" fromJunction="J0" toJunction="J3" end="180" vehsPerHour="138.15746406510866"/>
  <flow id="JF22452" begin="120" fromJunction="J3" toJunction="J4" end="180" vehsPerHour="19.208644923035465"/>
  <flow id="JF22453" begin="120" fromJunction="J3" toJunction="J2" end="180" vehsPerHour="6.456899378612374"/>
  <flow id="JF22454" begin="120" fromJunction="J0" toJunction="J4" end="180" vehsPerHour="38.81119148657605"/>
  <flow id="JF22455" begin="120" fromJunction="J0" toJunction="J2" end="180" vehsPerHour="82.03533299842807"/>
  <flow id="JF22456" begin="180" fromJunction="J3" toJunction="J0" end="240" vehsPerHour="263.3117303184013"/>
  <flow id="JF22457" begin="180" fromJunction="J0" toJunction="J3" end="240" vehsPerHour="255.67393930709574"/>
  <flow id="JF22458" begin="180" fromJunction="J3" toJunction="J4" end="240" vehsPerHour="84.64044234094017"/>
  <flow id="JF22459" begin="180" fromJunction="J3" toJunction="J2" end="240" vehsPerHour="126.7868793137751"/>
  <flow id="JF22460" begin="180" fromJunction="J0" toJunction="J4" end="240" vehsPerHour="21.8506106117881"/>
  <flow id="JF22461" begin="180" fromJunction="J0" toJunction="J2" end="240" vehsPerHour="79.52995060362119"/>
  <flow id="JF22462" begin="180" fromJunction="J4" toJunction="J2" end="240" vehsPerHour="83.88370817516858"/>
  <flow id="JF22463" begin="180" fromJunction="J2" toJunction="J4" end="240" vehsPerHour="65.7415628809653"/>
  <flow id="JF22464" begin="180" fromJunction="J4" toJunction="J3" end="240" vehsPerHour="58.38649531736256"/>
  <flow id="JF22465" begin="180" fromJunction="J4" toJunction="J0" end="240" vehsPerHour="92.24948056091124"/>
  <flow id="JF22466" begin="180" fromJunction="J2" toJunction="J3" end="240" vehsPerHour="126.21063809158855"/>
  <flow id="JF22467" begin="180" fromJunction="J2" toJunction="J0" end="240" vehsPerHour="128.793131313953"/>
  <flow id="JF22468" begin="240" fromJunction="J3" toJunction="J0" end="300" vehsPerHour="232.53056576776868"/>
  <flow id="JF22469" begin="240" fromJunction="J0" toJunction="J3" end="300" vehsPerHour="416.4301768752536"/>
  <flow id="JF22470" begin="240" fromJunction="J3" toJunction="J4" end="300" vehsPerHour="14.038939353795094"/>
  <flow id="JF22471" begin="240" fromJunction="J3" toJunction="J2" end="300" vehsPerHour="58.31291019718918"/>
  <flow id="JF22472" begin="240" fromJunction="J0" toJunction="J4" end="300" vehsPerHour="119.81120555230589"/>
  <flow id="JF22473" begin="240" fromJunction="J0" toJunction="J2" end="300" vehsPerHour="32.60255647464823"/>
  <flow id="JF22474" begin="240" fromJunction="J4" toJunction="J2" end="300" vehsPerHour="127.4341701550153"/>
  <flow id="JF22475" begin="240" fromJunction="J2" toJunction="J4" end="300" vehsPerHour="113.35610678037881"/>
  <flow id="JF22476" begin="240" fromJunction="J4" toJunction="J3" end="300" vehsPerHour="82.43539301084212"/>
  <flow id="JF22477" begin="240" fromJunction="J4" toJunction="J0" end="300" vehsPerHour="23.501827840975725"/>
  <flow id="JF22478" begin="240" fromJunction="J2" toJunction="J3" end="300" vehsPerHour="25.38885441941988"/>
  <flow id="JF22479" begin="240" fromJunction="J2" toJunction="J0" end="300" vehsPerHour="44.89341563740744"/>
  <flow id="JF22480" begin="300" fromJunction="J3" toJunction="J0" end="360" vehsPerHour="185.72179920574297"/>
  <flow id="JF22481" begin="300" fromJunction="J0" toJunction="J3" end="360" vehsPerHour="222.5161190168128"/>
  <flow id="JF22482" begin="300" fromJunction="J3" toJunction="J4" end="360" vehsPerHour="48.296250399060696"/>
  <flow id="JF22483" begin="300" fromJunction="J3" toJunction="J2" end="360" vehsPerHour="41.143658531047045"/>
  <flow id="JF22484" begin="300" fromJunction="J0" toJunction="J4" end="360" vehsPerHour="52.623734384763274"/>
  <flow id="JF22485" begin="300" fromJunction="J0" toJunction="J2" end="360" vehsPerHour="66.52877315896264"/>
  <flow id="JF22486" begin="300" fromJunction="J4" toJunction="J2" end="360" vehsPerHour="47.89767223966022"/>
  <flow id="JF22487" begin="300" fromJunction="J2" toJunction="J4" end="360" vehsPerHour="29.764500747206586"/>
  <flow id="JF22488" begin="300" fromJunction="J4" toJunction="J3" end="360" vehsPerHour="78.90763972317134"/>
  <flow id="JF22489" begin="300" fromJunction="J4" toJunction="J0" end="360" vehsPerHour="112.13400207609837"/>
  <flow id="JF22490" begin="300" fromJunction="J2" toJunction="J3" end="360" vehsPerHour="111.85974936924181"/>
  <flow id="JF22491" begin="300" fromJunction="J2" toJunction="J0" end="360" vehsPerHour="92.21551844468019"/>
  <flow id="JF22492" begin="360" fromJunction="J3" toJunction="J0" end="420" vehsPerHour="94.33696042727506"/>
  <flow id="JF22493" begin="360" fromJunction="J0" toJunction="J3" end="420" vehsPerHour="533.8090464368343"/>
  <flow id="JF22494" begin="360" fromJunction="J3" toJunction="J4" end="420" vehsPerHour="112.38715787384788"/>
  <flow id="JF22495" begin="360" fromJunction="J3" toJunction="J2" end="420" vehsPerHour="120.21745462176933"/>
  <flow id="JF22496" begin="360" fromJunction="J0" toJunction="J4" end="420" vehsPerHour="122.58854541219272"/>
  <flow id="JF22497" begin="360" fromJunction="J0" toJunction="J2" end="420" vehsPerHour="51.42130715783525"/>
  <flow id="JF22498" begin="360" fromJunction="J4" toJunction="J2" end="420" vehsPerHour="24.37111790401756"/>
  <flow id="JF22499" begin="360" fromJunction="J2" toJunction="J4" end="420" vehsPerHour="92.20616866727634"/>
  <flow id="JF22500" begin="360" fromJunction="J4" toJunction="J3" end="420" vehsPerHour="93.15340318167004"/>
  <flow id="JF22501" begin="360" fromJunction="J4" toJunction="J0" end="420" vehsPerHour="72.01391023478652"/>
  <flow id="JF22502" begin="360" fromJunction="J2" toJunction="J3" end="420" vehsPerHour="23.308006770844397"/>
  <flow id="JF22503" begin="360" fromJunction="J2" toJunction="J0" end="420" vehsPerHour="25.8094093349869"/>
  <flow id="JF22504" begin="420" fromJunction="J3" toJunction="J0" end="480" vehsPerHour="379.5290643629061"/>
  <flow id="JF22505" begin="420" fromJunction="J0" toJunction="J3" end="480" vehsPerHour="316.54339799207173"/>
  <flow id="JF22506" begin="420" fromJunction="J3" toJunction="J4" end="480" vehsPerHour="114.34139012834935"/>
  <flow id="JF22507" begin="420" fromJunction="J3" toJunction="J2" end="480" vehsPerHour="36.691652881756646"/>
  <flow id="JF22508" begin="420" fromJunction="J0" toJunction="J4" end="480" vehsPerHour="109.56982630297462"/>
  <flow id="JF22509" begin="420" fromJunction="J0" toJunction="J2" end="480" vehsPerHour="16.780392021122346"/>
  <flow id="JF22510" begin="420" fromJunction="J4" toJunction="J2" end="480" vehsPerHour="29.183701233564022"/>
  <flow id="JF22511" begin="420" fromJunction="J2" toJunction="J4" end="480" vehsPerHour="39.29495174911469"/>
  <flow id="JF22512" begin="420" fromJunction="J4" toJunction="J3" end="480" vehsPerHour="93.83379060519026"/>
  <flow id="JF22513" begin="420" fromJunction="J4" toJunction="J0" end="480" vehsPerHour="92.81337926165341"/>
  <flow id="JF22514" begin="420" fromJunction="J2" toJunction="J3" end="480" vehsPerHour="67.53376199471431"/>
  <flow id="JF22515" begin="420" fromJunction="J2" toJunction="J0" end="480" vehsPerHour="107.34006025769988"/>
  <flow id="JF22516" begin="480" fromJunction="J3" toJunction="J0" end="540" vehsPerHour="161.8837057925056"/>
  <flow id="JF22517" begin="480" fromJunction="J0" toJunction="J3" end="540" vehsPerHour="217.5828310235081"/>
  <flow id="JF22518" begin="480" fromJunction="J3" toJunction="J4" end="540" vehsPerHour="12.960467557628736"/>
  <flow id="JF22519" begin="480" fromJunction="J3" toJunction="J2" end="540" vehsPerHour="129.06233948540452"/>
  <flow id="JF22520" begin="480" fromJunction="J0" toJunction="J4" end="540" vehsPerHour="108.84679463887078"/>
  <flow id="JF22521" begin="480" fromJunction="J0" toJunction="J2" end="540" vehsPerHour="117.58584017444014"/>
  <flow id="JF22522" begin="480" fromJunction="J4" toJunction="J2" end="540" vehsPerHour="95.97279681968384"/>
  <flow id="JF22523" begin="480" fromJunction="J2" toJunction="J4" end="540" vehsPerHour="61.48707239535981"/>
  <flow id="JF22524" begin="480" fromJunction="J4" toJunction="J3" end="540" vehsPerHour="23.683115714128498"/>
  <flow id="JF22525" begin="480" fromJunction="J4" toJunction="J0" end="540" vehsPerHour="59.66861442368474"/>
  <flow id="JF22526" begin="480" fromJunction="J2" toJunction="J3" end="540" vehsPerHour="26.34824570194337"/>
  <flow id="JF22527" begin="480" fromJunction="J2" toJunction="J0" end="540" vehsPerHour="121.1180069751383"/>
  <flow id="JF22528" begin="540" fromJunction="J3" toJunction="J0" end="600" vehsPerHour="433.9260218721464"/>
  <flow id="JF22529" begin="540" fromJunction="J0" toJunction="J3" end="600" vehsPerHour="496.0555596213247"/>
  <flow id="JF22530" begin="540" fromJunction="J3" toJunction="J4" end="600" vehsPerHour="49.760668971968556"/>
  <flow id="JF22531" begin="540" fromJunction="J3" toJunction="J2" end="600" vehsPerHour="37.04009700297016"/>
  <flow id="JF22532" begin="540" fromJunction="J0" toJunction="J4" end="600" vehsPerHour="86.64402509550037"/>
  <flow id="JF22533" begin="540" fromJunction="J0" toJunction="J2" end="600" vehsPerHour="64.35804320156825"/>
  <flow id="JF22534" begin="540" fromJunction="J4" toJunction="J2" end="600" vehsPerHour="91.51800953715988"/>
  <flow id="JF22535" begin="540" fromJunction="J2" toJunction="J4" end="600" vehsPerHour="52.88596382210143"/>
  <flow id="JF22536" begin="540" fromJunction="J4" toJunction="J3" end="600" vehsPerHour="4.715340303687285"/>
  <flow id="JF22537" begin="540" fromJunction="J4" toJunction="J0" end="600" vehsPerHour="59.09166799592215"/>
  <flow id="JF22538" begin="540" fromJunction="J2" toJunction="J3" end="600" vehsPerHour="31.420922290545814"/>
  <flow id="JF22539" begin="540" fromJunction="J2" toJunction="J0" end="600" vehsPerHour="22.348462482183706"/>
  <flow id="JF22540" begin="600" fromJunction="J3" toJunction="J0" end="660" vehsPerHour="99.68090711787859"/>
  <flow id="JF22541" begin="600" fromJunction="J0" toJunction="J3" end="660" vehsPerHour="14.592415033347477"/>
  <flow id="JF22542" begin="600" fromJunction="J3" toJunction="J4" end="660" vehsPerHour="4.6728882740270565"/>
  <flow id="JF22543" begin="600" fromJunction="J3" toJunction="J2" end="660" vehsPerHour="72.5277434572486"/>
  <flow id="JF22544" begin="600" fromJunction="J0" toJunction="J4" end="660" vehsPerHour="123.87301834554944"/>
  <flow id="JF22545" begin="600" fromJunction="J0" toJunction="J2" end="660" vehsPerHour="113.3405461763182"/>
  <flow id="JF22546" begin="600" fromJunction="J4" toJunction="J2" end="660" vehsPerHour="90.64557759701513"/>
  <flow id="JF22547" begin="600" fromJunction="J2" toJunction="J4" end="660" vehsPerHour="33.05302065855348"/>
  <flow id="JF22548" begin="600" fromJunction="J4" toJunction="J3" end="660" vehsPerHour="27.364572895341286"/>
  <flow id="JF22549" begin="600" fromJunction="J4" toJunction="J0" end="660" vehsPerHour="95.1303157040297"/>
  <flow id="JF22550" begin="600" fromJunction="J2" toJunction="J3" end="660" vehsPerHour="42.115991109211286"/>
  <flow id="JF22551" begin="600" fromJunction="J2" toJunction="J0" end="660" vehsPerHour="63.20477747187825"/>
  <flow id="JF22552" begin="660" fromJunction="J3" toJunction="J0" end="720" vehsPerHour="37.66535940649035"/>
  <flow id="JF22553" begin="660" fromJunction="J0" toJunction="J3" end="720" vehsPerHour="144.7373168449584"/>
  <flow id="JF22554" begin="660" fromJunction="J3" toJunction="J4" end="720" vehsPerHour="48.66639397627139"/>
  <flow id="JF22555" begin="660" fromJunction="J3" toJunction="J2" end="720" vehsPerHour="8.50210446067407"/>
  <flow id="JF22556" begin="660" fromJunction="J0" toJunction="J4" end="720" vehsPerHour="23.298989655690182"/>
  <flow id="JF22557" begin="660" fromJunction="J0" toJunction="J2" end="720" vehsPerHour="119.03345345086129"/>
  <flow id="JF22558" begin="660" fromJunction="J4" toJunction="J2" end="720" vehsPerHour="108.18451688532186"/>
  <flow id="JF22559" begin="660" fromJunction="J2" toJunction="J4" end="720" vehsPerHour="99.68160510006155"/>
  <flow id="JF22560" begin="660" fromJunction="J4" toJunction="J3" end="720" vehsPerHour="48.764140962962784"/>
  <flow id="JF22561" begin="660" fromJunction="J4" toJunction="J0" end="720" vehsPerHour="60.19536708834181"/>
  <flow id="JF22562" begin="660" fromJunction="J2" toJunction="J3" end="720" vehsPerHour="107.2330981621962"/>
  <flow id="JF22563" begin="660" fromJunction="J2" toJunction="J0" end="720" vehsPerHour="125.74017004287307"/>
  <flow id="JF22564" begin="720" fromJunction="J3" toJunction="J0" end="780" vehsPerHour="418.01692558160863"/>
  <flow id="JF22565" begin="720" fromJunction="J0" toJunction="J3" end="780" vehsPerHour="19.123812166156796"/>
  <flow id="JF22566" begin="720" fromJunction="J3" toJunction="J4" end="780" vehsPerHour="94.81968525053108"/>
  <flow id="JF22567" begin="720" fromJunction="J3" toJunction="J2" end="780" vehsPerHour="34.87976001555092"/>
  <flow id="JF22568" begin="720" fromJunction="J0" toJunction="J4" end="780" vehsPerHour="15.602446522929608"/>
  <flow id="JF22569" begin="720" fromJunction="J0" toJunction="J2" end="780" vehsPerHour="103.99838391392268"/>
  <flow id="JF22570" begin="780" fromJunction="J3" toJunction="J0" end="840" vehsPerHour="191.9734866893922"/>
  <flow id="JF22571" begin="780" fromJunction="J0" toJunction="J3" end="840" vehsPerHour="30.406390219540242"/>
  <flow id="JF22572" begin="780" fromJunction="J3" toJunction="J4" end="840" vehsPerHour="43.47587565065325"/>
  <flow id="JF22573" begin="780" fromJunction="J3" toJunction="J2" end="840" vehsPerHour="42.97931751726043"/>
  <flow id="JF22574" begin="780" fromJunction="J0" toJunction="J4" end="840" vehsPerHour="107.00086885803556"/>
  <flow id="JF22575" begin="780" fromJunction="J0" toJunction="J2" end="840" vehsPerHour="85.40162445758648"/>
  <flow id="JF22576" begin="780" fromJunction="J4" toJunction="J2" end="840" vehsPerHour="118.1058262038246"/>
  <flow id="JF22577" begin="780" fromJunction="J2" toJunction="J4" end="840" vehsPerHour="136.69859409165312"/>
  <flow id="JF22578" begin="780" fromJunction="J4" toJunction="J3" end="840" vehsPerHour="58.547455764320745"/>
  <flow id="JF22579" begin="780" fromJunction="J4" toJunction="J0" end="840" vehsPerHour="109.75594600739595"/>
  <flow id="JF22580" begin="780" fromJunction="J2" toJunction="J3" end="840" vehsPerHour="84.36367415054704"/>
  <flow id="JF22581" begin="780" fromJunction="J2" toJunction="J0" end="840" vehsPerHour="78.48844722712504"/>
  <flow id="JF22582" begin="840" fromJunction="J3" toJunction="J0" end="900" vehsPerHour="93.62830733849556"/>
  <flow id="JF22583" begin="840" fromJunction="J0" toJunction="J3" end="900" vehsPerHour="455.95859580880887"/>
  <flow id="JF22584" begin="840" fromJunction="J3" toJunction="J4" end="900" vehsPerHour="19.14393205189718"/>
  <flow id="JF22585" begin="840" fromJunction="J3" toJunction="J2" end="900" vehsPerHour="76.62206074170345"/>
  <flow id="JF22586" begin="840" fromJunction="J0" toJunction="J4" end="900" vehsPerHour="2.6429180367931258"/>
  <flow id="JF22587" begin="840" fromJunction="J0" toJunction="J2" end="900" vehsPerHour="109.6036289419883"/>
  <flow id="JF22588" begin="840" fromJunction="J4" toJunction="J2" end="900" vehsPerHour="109.67067084407454"/>
  <flow id="JF22589" begin="840" fromJunction="J2" toJunction="J4" end="900" vehsPerHour="33.77663856401931"/>
  <flow id="JF22590" begin="840" fromJunction="J4" toJunction="J3" end="900" vehsPerHour="99.00176692983408"/>
  <flow id="JF22591" begin="840" fromJunction="J4" toJunction="J0" end="900" vehsPerHour="94.02265153603922"/>
  <flow id="JF22592" begin="840" fromJunction="J2" toJunction="J3" end="900" vehsPerHour="23.965194920834374"/>
  <flow id="JF22593" begin="840" fromJunction="J2" toJunction="J0" end="900" vehsPerHour="60.578167352264664"/>
  <flow id="JF22594" begin="900" fromJunction="J3" toJunction="J0" end="960" vehsPerHour="361.33209335308464"/>
  <flow id="JF22595" begin="900" fromJunction="J0" toJunction="J3" end="960" vehsPerHour="125.23198031993616"/>
  <flow id="JF22596" begin="900" fromJunction="J3" toJunction="J4" end="960" vehsPerHour="44.06608455686465"/>
  <flow id="JF22597" begin="900" fromJunction="J3" toJunction="J2" end="960" vehsPerHour="86.76663460879824"/>
  <flow id="JF22598" begin="900" fromJunction="J0" toJunction="J4" end="960" vehsPerHour="43.63980520976666"/>
  <flow id="JF22599" begin="900" fromJunction="J0" toJunction="J2" end="960" vehsPerHour="38.25947528798262"/>
  <flow id="JF22600" begin="900" fromJunction="J4" toJunction="J2" end="960" vehsPerHour="102.55979003563682"/>
  <flow id="JF22601" begin="900" fromJunction="J2" toJunction="J4" end="960" vehsPerHour="11.002036961265215"/>
  <flow id="JF22602" begin="900" fromJunction="J4" toJunction="J3" end="960" vehsPerHour="62.56264202503443"/>
  <flow id="JF22603" begin="900" fromJunction="J4" toJunction="J0" end="960" vehsPerHour="128.42801260557886"/>
  <flow id="JF22604" begin="900" fromJunction="J2" toJunction="J3" end="960" vehsPerHour="117.66698379524554"/>
  <flow id="JF22605" begin="900" fromJunction="J2" toJunction="J0" end="960" vehsPerHour="24.478040590191164"/>
  <flow id="JF22606" begin="960" fromJunction="J3" toJunction="J0" end="1020" vehsPerHour="455.09065231858557"/>
  <flow id="JF22607" begin="960" fromJunction="J0" toJunction="J3" end="1020" vehsPerHour="449.47305681055195"/>
  <flow id="JF22608" begin="960" fromJunction="J3" toJunction="J4" end="1020" vehsPerHour="85.32485159631615"/>
  <flow id="JF22609" begin="960" fromJunction="J3" toJunction="J2" end="1020" vehsPerHour="7.9426483323964305"/>
  <flow id="JF22610" begin="960" fromJunction="J0" toJunction="J4" end="1020" vehsPerHour="113.56201285429702"/>
  <flow id="JF22611" begin="960" fromJunction="J0" toJunction="J2" end="1020" vehsPerHour="98.43647479468396"/>
  <flow id="JF22612" begin="960" fromJunction="J4" toJunction="J2" end="1020" vehsPerHour="97.70704403674891"/>
  <flow id="JF22613" begin="960" fromJunction="J2" toJunction="J4" end="1020" vehsPerHour="5.2282720661528925"/>
  <flow id="JF22614" begin="960" fromJunction="J4" toJunction="J3" end="1020" vehsPerHour="73.04111788331745"/>
  <flow id="JF22615" begin="960" fromJunction="J4" toJunction="J0" end="1020" vehsPerHour="103.17878068343326"/>
  <flow id="JF22616" begin="960" fromJunction="J2" toJunction="J3" end="1020" vehsPerHour="96.41632047632355"/>
  <flow id="JF22617" begin="960" fromJunction="J2" toJunction="J0" end="1020" vehsPerHour="9.014930111127171"/>
  <flow id="JF22618" begin="1020" fromJunction="J3" toJunction="J0" end="1080" vehsPerHour="214.3535605779035"/>
  <flow id="JF22619" begin="1020" fromJunction="J0" toJunction="J3" end="1080" vehsPerHour="333.26759837271857"/>
  <flow id="JF22620" begin="1020" fromJunction="J3" toJunction="J4" end="1080" vehsPerHour="19.695913420333298"/>
  <flow id="JF22621" begin="1020" fromJunction="J3" toJunction="J2" end="1080" vehsPerHour="98.71478586068243"/>
  <flow id="JF22622" begin="1020" fromJunction="J0" toJunction="J4" end="1080" vehsPerHour="7.00729769527343"/>
  <flow id="JF22623" begin="1020" fromJunction="J0" toJunction="J2" end="1080" vehsPerHour="110.63507822448902"/>
  <flow id="JF22624" begin="1020" fromJunction="J4" toJunction="J2" end="1080" vehsPerHour="27.08617476641889"/>
  <flow id="JF22625" begin="1020" fromJunction="J2" toJunction="J4" end="1080" vehsPerHour="89.20346571017465"/>
  <flow id="JF22626" begin="1020" fromJunction="J4" toJunction="J3" end="1080" vehsPerHour="119.99624725711277"/>
  <flow id="JF22627" begin="1020" fromJunction="J4" toJunction="J0" end="1080" vehsPerHour="65.07292405448503"/>
  <flow id="JF22628" begin="1020" fromJunction="J2" toJunction="J3" end="1080" vehsPerHour="41.52478582990409"/>
  <flow id="JF22629" begin="1020" fromJunction="J2" toJunction="J0" end="1080" vehsPerHour="105.24366901122669"/>
  <flow id="JF22630" begin="1080" fromJunction="J3" toJunction="J0" end="1140" vehsPerHour="94.18750478734009"/>
  <flow id="JF22631" begin="1080" fromJunction="J0" toJunction="J3" end="1140" vehsPerHour="141.10458264976236"/>
  <flow id="JF22632" begin="1080" fromJunction="J3" toJunction="J4" end="1140" vehsPerHour="59.51960337922774"/>
  <flow id="JF22633" begin="1080" fromJunction="J3" toJunction="J2" end="1140" vehsPerHour="21.52079879136001"/>
  <flow id="JF22634" begin="1080" fromJunction="J0" toJunction="J4" end="1140" vehsPerHour="9.448463044948834"/>
  <flow id="JF22635" begin="1080" fromJunction="J0" toJunction="J2" end="1140" vehsPerHour="120.23424866157961"/>
  <flow id="JF22636" begin="1080" fromJunction="J4" toJunction="J2" end="1140" vehsPerHour="117.90907696841057"/>
  <flow id="JF22637" begin="1080" fromJunction="J2" toJunction="J4" end="1140" vehsPerHour="32.181749795202194"/>
  <flow id="JF22638" begin="1080" fromJunction="J4" toJunction="J3" end="1140" vehsPerHour="107.47283225406365"/>
  <flow id="JF22639" begin="1080" fromJunction="J4" toJunction="J0" end="1140" vehsPerHour="114.58551551732951"/>
  <flow id="JF22640" begin="1080" fromJunction="J2" toJunction="J3" end="1140" vehsPerHour="85.68513041745221"/>
  <flow id="JF22641" begin="1080" fromJunction="J2" toJunction="J0" end="1140" vehsPerHour="46.56429036126416"/>
  <flow id="JF22642" begin="1140" fromJunction="J3" toJunction="J0" end="1200" vehsPerHour="342.8327868480981"/>
  <flow id="JF22643" begin="1140" fromJunction="J0" toJunction="J3" end="1200" vehsPerHour="539.7571891819532"/>
  <flow id="JF22644" begin="1140" fromJunction="J3" toJunction="J4" end="1200" vehsPerHour="70.50860713645734"/>
  <flow id="JF22645" begin="1140" fromJunction="J3" toJunction="J2" end="1200" vehsPerHour="102.4828381328378"/>
  <flow id="JF22646" begin="1140" fromJunction="J0" toJunction="J4" end="1200" vehsPerHour="70.66090318117747"/>
  <flow id="JF22647" begin="1140" fromJunction="J0" toJunction="J2" end="1200" vehsPerHour="122.21854756981983"/>
  <flow id="JF22648" begin="1140" fromJunction="J4" toJunction="J2" end="1200" vehsPerHour="135.29956048092424"/>
  <flow id="JF22649" begin="1140" fromJunction="J2" toJunction="J4" end="1200" vehsPerHour="10.562472233484218"/>
  <flow id="JF22650" begin="1140" fromJunction="J4" toJunction="J3" end="1200" vehsPerHour="40.73409428252108"/>
  <flow id="JF22651" begin="1140" fromJunction="J4" toJunction="J0" end="1200" vehsPerHour="0.8091681127097083"/>
  <flow id="JF22652" begin="1140" fromJunction="J2" toJunction="J3" end="1200" vehsPerHour="22.332292657224446"/>
  <flow id="JF22653" begin="1140" fromJunction="J2" toJunction="J0" end="1200" vehsPerHour="29.523052539859123"/>
  <flow id="JF22654" begin="1200" fromJunction="J3" toJunction="J0" end="1260" vehsPerHour="231.5071176705597"/>
  <flow id="JF22655" begin="1200" fromJunction="J0" toJunction="J3" end="1260" vehsPerHour="263.30689003614333"/>
  <flow id="JF22656" begin="1200" fromJunction="J3" toJunction="J4" end="1260" vehsPerHour="67.25620522894141"/>
  <flow id="JF22657" begin="1200" fromJunction="J3" toJunction="J2" end="1260" vehsPerHour="55.584212212466774"/>
  <flow id="JF22658" begin="1200" fromJunction="J0" toJunction="J4" end="1260" vehsPerHour="87.03738682015987"/>
  <flow id="JF22659" begin="1200" fromJunction="J0" toJunction="J2" end="1260" vehsPerHour="133.344757219905"/>
  <flow id="JF22660" begin="1200" fromJunction="J4" toJunction="J2" end="1260" vehsPerHour="53.366699512044214"/>
  <flow id="JF22661" begin="1200" fromJunction="J2" toJunction="J4" end="1260" vehsPerHour="38.776666521926984"/>
  <flow id="JF22662" begin="1200" fromJunction="J4" toJunction="J3" end="1260" vehsPerHour="101.76339389313296"/>
  <flow id="JF22663" begin="1200" fromJunction="J4" toJunction="J0" end="1260" vehsPerHour="24.159224040465393"/>
  <flow id="JF22664" begin="1200" fromJunction="J2" toJunction="J3" end="1260" vehsPerHour="25.537332179965684"/>
  <flow id="JF22665" begin="1200" fromJunction="J2" toJunction="J0" end="1260" vehsPerHour="131.36575095001535"/>
  <flow id="JF22666" begin="1260" fromJunction="J3" toJunction="J0" end="1320" vehsPerHour="119.37087177056786"/>
  <flow id="JF22667" begin="1260" fromJunction="J0" toJunction="J3" end="1320" vehsPerHour="25.57326387661714"/>
  <flow id="JF22668" begin="1260" fromJunction="J3" toJunction="J4" end="1320" vehsPerHour="26.330794831950104"/>
  <flow id="JF22669" begin="1260" fromJunction="J3" toJunction="J2" end="1320" vehsPerHour="32.56191554678616"/>
  <flow id="JF22670" begin="1260" fromJunction="J0" toJunction="J4" end="1320" vehsPerHour="88.83745733762747"/>
  <flow id="JF22671" begin="1260" fromJunction="J0" toJunction="J2" end="1320" vehsPerHour="63.779188449604874"/>
  <flow id="JF22672" begin="1260" fromJunction="J4" toJunction="J2" end="1320" vehsPerHour="135.77371537236596"/>
  <flow id="JF22673" begin="1260" fromJunction="J2" toJunction="J4" end="1320" vehsPerHour="0.7782623886071702"/>
  <flow id="JF22674" begin="1260" fromJunction="J4" toJunction="J3" end="1320" vehsPerHour="120.04949595565064"/>
  <flow id="JF22675" begin="1260" fromJunction="J4" toJunction="J0" end="1320" vehsPerHour="62.87448190092073"/>
  <flow id="JF22676" begin="1260" fromJunction="J2" toJunction="J3" end="1320" vehsPerHour="93.88524552579055"/>
  <flow id="JF22677" begin="1260" fromJunction="J2" toJunction="J0" end="1320" vehsPerHour="14.64202201941176"/>
  <flow id="JF22678" begin="1320" fromJunction="J3" toJunction="J0" end="1380" vehsPerHour="245.24287240603084"/>
  <flow id="JF22679" begin="1320" fromJunction="J0" toJunction="J3" end="1380" vehsPerHour="219.46231239259126"/>
  <flow id="JF22680" begin="1320" fromJunction="J3" toJunction="J4" end="1380" vehsPerHour="40.68535331010891"/>
  <flow id="JF22681" begin="1320" fromJunction="J3" toJunction="J2" end="1380" vehsPerHour="54.8813522185915"/>
  <flow id="JF22682" begin="1320" fromJunction="J0" toJunction="J4" end="1380" vehsPerHour="41.652769091073566"/>
  <flow id="JF22683" begin="1320" fromJunction="J0" toJunction="J2" end="1380" vehsPerHour="131.314179567202"/>
  <flow id="JF22684" begin="1320" fromJunction="J4" toJunction="J2" end="1380" vehsPerHour="129.501238172901"/>
  <flow id="JF22685" begin="1320" fromJunction="J2" toJunction="J4" end="1380" vehsPerHour="71.13637651623863"/>
  <flow id="JF22686" begin="1320" fromJunction="J4" toJunction="J3" end="1380" vehsPerHour="80.88995684713846"/>
  <flow id="JF22687" begin="1320" fromJunction="J4" toJunction="J0" end="1380" vehsPerHour="19.37183812121238"/>
  <flow id="JF22688" begin="1320" fromJunction="J2" toJunction="J3" end="1380" vehsPerHour="10.368367806887973"/>
  <flow id="JF22689" begin="1320" fromJunction="J2" toJunction="J0" end="1380" vehsPerHour="124.80525860468106"/>
  <flow id="JF22690" begin="1380" fromJunction="J3" toJunction="J0" end="1440" vehsPerHour="113.17369848130426"/>
  <flow id="JF22691" begin="1380" fromJunction="J0" toJunction="J3" end="1440" vehsPerHour="286.8120629251398"/>