<?xml version="1.0" encoding="UTF-8"?>
<routes xmlns:xsi="http://www.w3.org/2001/XMLSchema-instance" xsi:noNamespaceSchemaLocation="http://sumo.dlr.de/xsd/routes_file.xsd">
  <flow id="JF19072" begin="0" fromJunction="J3" toJunction="J0" end="60" vehsPerHour="447.9709025489047"/>
  <flow id="JF19073" begin="0" fromJunction="J0" toJunction="J3" end="60" vehsPerHour="10.983666885038467"/>
  <flow id="JF19074" begin="0" fromJunction="J3" toJunction="J4" end="60" vehsPerHour="2.973537125920927"/>
  <flow id="JF19075" begin="0" fromJunction="J3" toJunction="J2" end="60" vehsPerHour="91.20170176296999"/>
  <flow id="JF19076" begin="0" fromJunction="J0" toJunction="J4" end="60" vehsPerHour="92.70716276897872"/>
  <flow id="JF19077" begin="0" fromJunction="J0" toJunction="J2" end="60" vehsPerHour="62.06939323804501"/>
  <flow id="JF19078" begin="60" fromJunction="J3" toJunction="J0" end="120" vehsPerHour="52.23812097597151"/>
  <flow id="JF19079" begin="60" fromJunction="J0" toJunction="J3" end="120" vehsPerHour="157.2863272707244"/>
  <flow id="JF19080" begin="60" fromJunction="J3" toJunction="J4" end="120" vehsPerHour="75.03823494165033"/>
  <flow id="JF19081" begin="60" fromJunction="J3" toJunction="J2" end="120" vehsPerHour="34.04654700571271"/>
  <flow id="JF19082" begin="60" fromJunction="J0" toJunction="J4" end="120" vehsPerHour="60.203246109364045"/>
  <flow id="JF19083" begin="60" fromJunction="J0" toJunction="J2" end="120" vehsPerHour="90.16246849504947"/>
  <flow id="JF19084" begin="60" fromJunction="J4" toJunction="J2" end="120" vehsPerHour="79.179334770884"/>
  <flow id="JF19085" begin="60" fromJunction="J2" toJunction="J4" end="120" vehsPerHour="17.1921982358304"/>
  <flow id="JF19086" begin="60" fromJunction="J4" toJunction="J3" end="120" vehsPerHour="84.58696108345396"/>
  <flow id="JF19087" begin="60" fromJunction="J4" toJunction="J0" end="120" vehsPerHour="95.64963731837734"/>
  <flow id="JF19088" begin="60" fromJunction="J2" toJunction="J3" end="120" vehsPerHour="11.650408868621149"/>
  <flow id="JF19089" begin="60" fromJunction="J2" toJunction="J0" end="120" vehsPerHour="54.91964458346714"/>
  <flow id="JF19090" begin="120" fromJunction="J3" toJunction="J0" end="180" vehsPerHour="497.86009897698324"/>
  <flow id="JF19091" begin="120" fromJunction="J0" toJunction="J3" end="180" vehsPerHour="2.3636494859192925"/>
  <flow id="JF19092" begin="120" fromJunction="J3" toJunction="J4" end="180" vehsPerHour="94.40115431714099"/>
  <flow id="JF19093" begin="120" fromJunction="J3" toJunction="J2" end="180" vehsPerHour="84.12716408421718"/>
  <flow id="JF19094" begin="120" fromJunction="J0" toJunction="J4" end="180" vehsPerHour="4.262076254336218"/>
  <flow id="JF19095" begin="120" fromJunction="J0" toJunction="J2" end="180" vehsPerHour="36.54872114900538"/>
  <flow id="JF19096" begin="120" fromJunction="J4" toJunction="J2" end="180" vehsPerHour="136.06539524740768"/>
  <flow id="JF19097" begin="120" fromJunction="J2" toJunction="J4" end="180" vehsPerHour="123.2938597695845"/>
  <flow id="JF19098" begin="120" fromJunction="J4" toJunction="J3" end="180" vehsPerHour="2.6488246036441785"/>
  <flow id="JF19099" begin="120" fromJunction="J4" toJunction="J0" end="180" vehsPerHour="123.91692681289985"/>
  <flow id="JF19100" begin="120" fromJunction="J2" toJunction="J3" end="180" vehsPerHour="7.423439771679182"/>
  <flow id="JF19101" begin="120" fromJunction="J2" toJunction="J0" end="180" vehsPerHour="129.27878445690797"/>
  <flow id="JF19102" begin="180" fromJunction="J3" toJunction="J0" end="240" vehsPerHour="133.7605922894956"/>
  <flow id="JF19103" begin="180" fromJunction="J0" toJunction="J3" end="240" vehsPerHour="410.00287463730353"/>
  <flow id="JF19104" begin="180" fromJunction="J3" toJunction="J4" end="240" vehsPerHour="48.50422727686779"/>
  <flow id="JF19105" begin="180" fromJunction="J3" toJunction="J2" end="240" vehsPerHour="91.49906948723903"/>
  <flow id="JF19106" begin="180" fromJunction="J0" toJunction="J4" end="240" vehsPerHour="49.16944987178758"/>
  <flow id="JF19107" begin="180" fromJunction="J0" toJunction="J2" end="240" vehsPerHour="60.02039836878425"/>
  <flow id="JF19108" begin="180" fromJunction="J4" toJunction="J2" end="240" vehsPerHour="53.805791658229914"/>
  <flow id="JF19109" begin="180" fromJunction="J2" toJunction="J4" end="240" vehsPerHour="115.7982285395137"/>
  <flow id="JF19110" begin="180" fromJunction="J4" toJunction="J3" end="240" vehsPerHour="93.47466179316528"/>
  <flow id="JF19111" begin="180" fromJunction="J4" toJunction="J0" end="240" vehsPerHour="104.10870559101019"/>
  <flow id="JF19112" begin="180" fromJunction="J2" toJunction="J3" end="240" vehsPerHour="28.825744303247046"/>
  <flow id="JF19113" begin="180" fromJunction="J2" toJunction="J0" end="240" vehsPerHour="56.709947773815465"/>
  <flow id="JF19114" begin="240" fromJunction="J3" toJunction="J0" end="300" vehsPerHour="295.2521033978775"/>
  <flow id="JF19115" begin="240" fromJunction="J0" toJunction="J3" end="300" vehsPerHour="427.3760357484804"/>
  <flow id="JF19116" begin="240" fromJunction="J3" toJunction="J4" end="300" vehsPerHour="6.9675878433022"/>
  <flow id="JF19117" begin="240" fromJunction="J3" toJunction="J2" end="300" vehsPerHour="46.20374360944984"/>
  <flow id="JF19118" begin="240" fromJunction="J0" toJunction="J4" end="300" vehsPerHour="67.06262629942826"/>
  <flow id="JF19119" begin="240" fromJunction="J0" toJunction="J2" end="300" vehsPerHour="43.569800914322514"/>
  <flow id="JF19120" begin="240" fromJunction="J4" toJunction="J2" end="300" vehsPerHour="56.046329550472926"/>
  <flow id="JF19121" begin="240" fromJunction="J2" toJunction="J4" end="300" vehsPerHour="36.23511489553743"/>
  <flow id="JF19122" begin="240" fromJunction="J4" toJunction="J3" end="300" vehsPerHour="87.9860971142761"/>
  <flow id="JF19123" begin="240" fromJunction="J4" toJunction="J0" end="300" vehsPerHour="122.5391211172015"/>
  <flow id="JF19124" begin="240" fromJunction="J2" toJunction="J3" end="300" vehsPerHour="114.7381860726105"/>
  <flow id="JF19125" begin="240" fromJunction="J2" toJunction="J0" end="300" vehsPerHour="33.42313475489994"/>
  <flow id="JF19126" begin="300" fromJunction="J3" toJunction="J0" end="360" vehsPerHour="413.98534556294055"/>
  <flow id="JF19127" begin="300" fromJunction="J0" toJunction="J3" end="360" vehsPerHour="57.44223562956632"/>
  <flow id="JF19128" begin="300" fromJunction="J3" toJunction="J4" end="360" vehsPerHour="132.65330792895065"/>
  <flow id="JF19129" begin="300" fromJunction="J3" toJunction="J2" end="360" vehsPerHour="94.19532421190112"/>
  <flow id="JF19130" begin="300" fromJunction="J0" toJunction="J4" end="360" vehsPerHour="74.65420805083339"/>
  <flow id="JF19131" begin="300" fromJunction="J0" toJunction="J2" end="360" vehsPerHour="64.01012184872579"/>
  <flow id="JF19132" begin="360" fromJunction="J3" toJunction="J0" end="420" vehsPerHour="212.60477188936008"/>
  <flow id="JF19133" begin="360" fromJunction="J0" toJunction="J3" end="420" vehsPerHour="548.1081839434369"/>
  <flow id="JF19134" begin="360" fromJunction="J3" toJunction="J4" end="420" vehsPerHour="117.75465098202933"/>
  <flow id="JF19135" begin="360" fromJunction="J3" toJunction="J2" end="420" vehsPerHour="83.79777062523615"/>
  <flow id="JF19136" begin="360" fromJunction="J0" toJunction="J4" end="420" vehsPerHour="121.6167433456017"/>
  <flow id="JF19137" begin="360" fromJunction="J0" toJunction="J2" end="420" vehsPerHour="63.645039425206086"/>
  <flow id="JF19138" begin="360" fromJunction="J4" toJunction="J2" end="420" vehsPerHour="30.184748162574273"/>
  <flow id="JF19139" begin="360" fromJunction="J2" toJunction="J4" end="420" vehsPerHour="19.112370638500597"/>
  <flow id="JF19140" begin="360" fromJunction="J4" toJunction="J3" end="420" vehsPerHour="72.95046951934357"/>
  <flow id="JF19141" begin="360" fromJunction="J4" toJunction="J0" end="420" vehsPerHour="134.69999053289087"/>
  <flow id="JF19142" begin="360" fromJunction="J2" toJunction="J3" end="420" vehsPerHour="75.56676817948505"/>
  <flow id="JF19143" begin="360" fromJunction="J2" toJunction="J0" end="420" vehsPerHour="119.9890900038723"/>
  <flow id="JF19144" begin="420" fromJunction="J3" toJunction="J0" end="480" vehsPerHour="244.48442856626866"/>
  <flow id="JF19145" begin="420" fromJunction="J0" toJunction="J3" end="480" vehsPerHour="145.67443101511012"/>
  <flow id="JF19146" begin="420" fromJunction="J3" toJunction="J4" end="480" vehsPerHour="59.799124740542716"/>
  <flow id="JF19147" begin="420" fromJunction="J3" toJunction="J2" end="480" vehsPerHour="57.99675417121137"/>
  <flow id="JF19148" begin="420" fromJunction="J0" toJunction="J4" end="480" vehsPerHour="21.385326025606584"/>
  <flow id="JF19149" begin="420" fromJunction="J0" toJunction="J2" end="480" vehsPerHour="77.96222680945448"/>
  <flow id="JF19150" begin="420" fromJunction="J4" toJunction="J2" end="480" vehsPerHour="76.38212268542867"/>
  <flow id="JF19151" begin="420" fromJunction="J2" toJunction="J4" end="480" vehsPerHour="61.40434049302357"/>
  <flow id="JF19152" begin="420" fromJunction="J4" toJunction="J3" end="480" vehsPerHour="56.579582163107936"/>
  <flow id="JF19153" begin="420" fromJunction="J4" toJunction="J0" end="480" vehsPerHour="25.078685534002304"/>
  <flow id="JF19154" begin="420" fromJunction="J2" toJunction="J3" end="480" vehsPerHour="66.67161292738666"/>
  <flow id="JF19155" begin="420" fromJunction="J2" toJunction="J0" end="480" vehsPerHour="121.55825855683187"/>
  <flow id="JF19156" begin="480" fromJunction="J3" toJunction="J0" end="540" vehsPerHour="277.4912978585375"/>
  <flow id="JF19157" begin="480" fromJunction="J0" toJunction="J3" end="540" vehsPerHour="356.26739054307217"/>
  <flow id="JF19158" begin="480" fromJunction="J3" toJunction="J4" end="540" vehsPerHour="24.423769119522664"/>
  <flow id="JF19159" begin="480" fromJunction="J3" toJunction="J2" end="540" vehsPerHour="57.32936410115115"/>
  <flow id="JF19160" begin="480" fromJunction="J0" toJunction="J4" end="540" vehsPerHour="23.660024941570676"/>
  <flow id="JF19161" begin="480" fromJunction="J0" toJunction="J2" end="540" vehsPerHour="26.943435779889562"/>
  <flow id="JF19162" begin="540" fromJunction="J3" toJunction="J0" end="600" vehsPerHour="470.96673298904034"/>
  <flow id="JF19163" begin="540" fromJunction="J0" toJunction="J3" end="600" vehsPerHour="132.61486035864903"/>
  <flow id="JF19164" begin="540" fromJunction="J3" toJunction="J4" end="600" vehsPerHour="43.8950168308327"/>
  <flow id="JF19165" begin="540" fromJunction="J3" toJunction="J2" end="600" vehsPerHour="120.73848372393591"/>
  <flow id="JF19166" begin="540" fromJunction="J0" toJunction="J4" end="600" vehsPerHour="91.43029753211512"/>
  <flow id="JF19167" begin="540" fromJunction="J0" toJunction="J2" end="600" vehsPerHour="90.83903767528469"/>
  <flow id="JF19168" begin="540" fromJunction="J4" toJunction="J2" end="600" vehsPerHour="90.28264789474902"/>
  <flow id="JF19169" begin="540" fromJunction="J2" toJunction="J4" end="600" vehsPerHour="134.62426884476054"/>
  <flow id="JF19170" begin="540" fromJunction="J4" toJunction="J3" end="600" vehsPerHour="5.347074265512004"/>
  <flow id="JF19171" begin="540" fromJunction="J4" toJunction="J0" end="600" vehsPerHour="31.072562037788774"/>
  <flow id="JF19172" begin="540" fromJunction="J2" toJunction="J3" end="600" vehsPerHour="71.63117021832228"/>
  <flow id="JF19173" begin="540" fromJunction="J2" toJunction="J0" end="600" vehsPerHour="117.60052577331848"/>
  <flow id="JF19174" begin="600" fromJunction="J3" toJunction="J0" end="660" vehsPerHour="253.2533720907436"/>
  <flow id="JF19175" begin="600" fromJunction="J0" toJunction="J3" end="660" vehsPerHour="418.7991950683669"/>
  <flow id="JF19176" begin="600" fromJunction="J3" toJunction="J4" end="660" vehsPerHour="127.58117958224821"/>
  <flow id="JF19177" begin="600" fromJunction="J3" toJunction="J2" end="660" vehsPerHour="58.57861684740995"/>
  <flow id="JF19178" begin="600" fromJunction="J0" toJunction="J4" end="660" vehsPerHour="124.90668228663"/>
  <flow id="JF19179" begin="600" fromJunction="J0" toJunction="J2" end="660" vehsPerHour="82.72878842894251"/>
  <flow id="JF19180" begin="660" fromJunction="J3" toJunction="J0" end="720" vehsPerHour="471.65910222384014"/>
  <flow id="JF19181" begin="660" fromJunction="J0" toJunction="J3" end="720" vehsPerHour="426.2717660942785"/>
  <flow id="JF19182" begin="660" fromJunction="J3" toJunction="J4" end="720" vehsPerHour="121.07810836117481"/>
  <flow id="JF19183" begin="660" fromJunction="J3" toJunction="J2" end="720" vehsPerHour="91.30408650968691"/>
  <flow id="JF19184" begin="660" fromJunction="J0" toJunction="J4" end="720" vehsPerHour="105.77404429999822"/>
  <flow id="JF19185" begin="660" fromJunction="J0" toJunction="J2" end="720" vehsPerHour="43.189788593245424"/>
  <flow id="JF19186" begin="660" fromJunction="J4" toJunction="J2" end="720" vehsPerHour="33.07342514624841"/>
  <flow id="JF19187" begin="660" fromJunction="J2" toJunction="J4" end="720" vehsPerHour="91.58608142067831"/>
  <flow id="JF19188" begin="660" fromJunction="J4" toJunction="J3" end="720" vehsPerHour="47.226699911496596"/>
  <flow id="JF19189" begin="660" fromJunction="J4" toJunction="J0" end="720" vehsPerHour="112.6113740815556"/>
  <flow id="JF19190" begin="660" fromJunction="J2" toJunction="J3" end="720" vehsPerHour="107.53373799715555"/>
  <flow id="JF19191" begin="660" fromJunction="J2" toJunction="J0" end="720" vehsPerHour="125.31571135442675"/>
  <flow id="JF19192" begin="720" fromJunction="J3" toJunction="J0" end="780" vehsPerHour="395.40695883332717"/>
  <flow id="JF19193" begin="720" fromJunction="J0" toJunction="J3" end="780" vehsPerHour="455.29810238838985"/>
  <flow id="JF19194" begin="720" fromJunction="J3" toJunction="J4" end="780" vehsPerHour="51.48297516920309"/>
  <flow id="JF19195" begin="720" fromJunction="J3" toJunction="J2" end="780" vehsPerHour="123.38710655373035"/>
  <flow id="JF19196" begin="720" fromJunction="J0" toJunction="J4" end="780" vehsPerHour="135.00802693413803"/>
  <flow id="JF19197" begin="720" fromJunction="J0" toJunction="J2" end="780" vehsPerHour="116.39095930340903"/>
  <flow id="JF19198" begin="720" fromJunction="J4" toJunction="J2" end="780" vehsPerHour="121.28273454708986"/>
  <flow id="JF19199" begin="720" fromJunction="J2" toJunction="J4" end="780" vehsPerHour="58.18495685239809"/>
  <flow id="JF19200" begin="720" fromJunction="J4" toJunction="J3" end="780" vehsPerHour="86.4667756508348"/>
  <flow id="JF19201" begin="720" fromJunction="J4" toJunction="J0" end="780" vehsPerHour="123.04736734715499"/>
  <flow id="JF19202" begin="720" fromJunction="J2" toJunction="J3" end="780" vehsPerHour="10.898667417428843"/>
  <flow id="JF19203" begin="720" fromJunction="J2" toJunction="J0" end="780" vehsPerHour="34.383378834561576"/>
  <flow id="JF19204" begin="780" fromJunction="J3" toJunction="J0" end="840" vehsPerHour="35.35792938435988"/>
  <flow id="JF19205" begin="780" fromJunction="J0" toJunction="J3" end="840" vehsPerHour="491.56052518481596"/>
  <flow id="JF19206" begin="780" fromJunction="J3" toJunction="J4" end="840" vehsPerHour="97.13782553846413"/>
  <flow id="JF19207" begin="780" fromJunction="J3" toJunction="J2" end="840" vehsPerHour="48.307562063710904"/>
  <flow id="JF19208" begin="780" fromJunction="J0" toJunction="J4" end="840" vehsPerHour="10.013484258369358"/>
  <flow id="JF19209" begin="780" fromJunction="J0" toJunction="J2" end="840" vehsPerHour="43.36177185588023"/>
  <flow id="JF19210" begin="840" fromJunction="J3" toJunction="J0" end="900" vehsPerHour="475.7618261686759"/>
  <flow id="JF19211" begin="840" fromJunction="J0" toJunction="J3" end="900" vehsPerHour="337.058747692982"/>
  <flow id="JF19212" begin="840" fromJunction="J3" toJunction="J4" end="900" vehsPerHour="89.33907103854692"/>
  <flow id="JF19213" begin="840" fromJunction="J3" toJunction="J2" end="900" vehsPerHour="111.10769989685888"/>
  <flow id="JF19214" begin="840" fromJunction="J0" toJunction="J4" end="900" vehsPerHour="79.1980331088573"/>
  <flow id="JF19215" begin="840" fromJunction="J0" toJunction="J2" end="900" vehsPerHour="39.99342662669599"/>
  <flow id="JF19216" begin="900" fromJunction="J3" toJunction="J0" end="960" vehsPerHour="252.87730261663938"/>
  <flow id="JF19217" begin="900" fromJunction="J0" toJunction="J3" end="960" vehsPerHour="372.82644509836155"/>
  <flow id="JF19218" begin="900" fromJunction="J3" toJunction="J4" end="960" vehsPerHour="78.45169332936652"/>
  <flow id="JF19219" begin="900" fromJunction="J3" toJunction="J2" end="960" vehsPerHour="100.33517343035341"/>
  <flow id="JF19220" begin="900" fromJunction="J0" toJunction="J4" end="960" vehsPerHour="63.19103538343096"/>
  <flow id="JF19221" begin="900" fromJunction="J0" toJunction="J2" end="960" vehsPerHour="76.07812222667474"/>
  <flow id="JF19222" begin="960" fromJunction="J3" toJunction="J0" end="1020" vehsPerHour="112.74943612189693"/>
  <flow id="JF19223" begin="960" fromJunction="J0" toJunction="J3" end="1020" vehsPerHour="298.985398379196"/>
  <flow id="JF19224" begin="960" fromJunction="J3" toJunction="J4" end="1020" vehsPerHour="33.96750777999709"/>
  <flow id="JF19225" begin="960" fromJunction="J3" toJunction="J2" end="1020" vehsPerHour="108.9773588834898"/>
  <flow id="JF19226" begin="960" fromJunction="J0" toJunction="J4" end="1020" vehsPerHour="111.29177559404394"/>
  <flow id="JF19227" begin="960" fromJunction="J0" toJunction="J2" end="1020" vehsPerHour="25.99745935081165"/>
  <flow id="JF19228" begin="960" fromJunction="J4" toJunction="J2" end="1020" vehsPerHour="29.87325829647019"/>
  <flow id="JF19229" begin="960" fromJunction="J2" toJunction="J4" end="1020" vehsPerHour="34.82389608365189"/>
  <flow id="JF19230" begin="960" fromJunction="J4" toJunction="J3" end="1020" vehsPerHour="104.42288860737507"/>
  <flow id="JF19231" begin="960" fromJunction="J4" toJunction="J0" end="1020" vehsPerHour="38.86799910717906"/>
  <flow id="JF19232" begin="960" fromJunction="J2" toJunction="J3" end="1020" vehsPerHour="133.2857432712465"/>
  <flow id="JF19233" begin="960" fromJunction="J2" toJunction="J0" end="1020" vehsPerHour="33.23479995080834"/>
  <flow id="JF19234" begin="1020" fromJunction="J3" toJunction="J0" end="1080" vehsPerHour="161.44484670861218"/>
  <flow id="JF19235" begin="1020" fromJunction="J0" toJunction="J3" end="1080" vehsPerHour="519.6461540193108"/>
  <flow id="JF19236" begin="1020" fromJunction="J3" toJunction="J4" end="1080" vehsPerHour="66.6586378134174"/>
  <flow id="JF19237" begin="1020" fromJunction="J3" toJunction="J2" end="1080" vehsPerHour="80.88406391257678"/>
  <flow id="JF19238" begin="1020" fromJunction="J0" toJunction="J4" end="1080" vehsPerHour="85.12829625966826"/>
  <flow id="JF19239" begin="1020" fromJunction="J0" toJunction="J2" end="1080" vehsPerHour="124.30706426593186"/>
  <flow id="JF19240" begin="1020" fromJunction="J4" toJunction="J2" end="1080" vehsPerHour="115.94516103429977"/>
  <flow id="JF19241" begin="1020" fromJunction="J2" toJunction="J4" end="1080" vehsPerHour="30.198924914480035"/>
  <flow id="JF19242" begin="1020" fromJunction="J4" toJunction="J3" end="1080" vehsPerHour="133.8839694014245"/>
  <flow id="JF19243" begin="1020" fromJunction="J4" toJunction="J0" end="1080" vehsPerHour="90.5994388193381"/>
  <flow id="JF19244" begin="1020" fromJunction="J2" toJunction="J3" end="1080" vehsPerHour="79.66382742776992"/>
  <flow id="JF19245" begin="1020" fromJunction="J2" toJunction="J0" end="1080" vehsPerHour="50.01063349561814"/>
  <flow id="JF19246" begin="1080" fromJunction="J3" toJunction="J0" end="1140" vehsPerHour="518.2898504985917"/>
  <flow id="JF19247" begin="1080" fromJunction="J0" toJunction="J3" end="1140" vehsPerHour="239.72514967714105"/>
  <flow id="JF19248" begin="1080" fromJunction="J3" toJunction="J4" end="1140" vehsPerHour="77.08436626608975"/>
  <flow id="JF19249" begin="1080" fromJunction="J3" toJunction="J2" end="1140" vehsPerHour="18.320121710708708"/>
  <flow id="JF19250" begin="1080" fromJunction="J0" toJunction="J4" end="1140" vehsPerHour="126.35702861540243"/>
  <flow id="JF19251" begin="1080" fromJunction="J0" toJunction="J2" end="1140" vehsPerHour="104.99468081338128"/>
  <flow id="JF19252" begin="1080" fromJunction="J4" toJunction="J2" end="1140" vehsPerHour="4.422430897589637"/>
  <flow id="JF19253" begin="1080" fromJunction="J2" toJunction="J4" end="1140" vehsPerHour="99.312720951096"/>
  <flow id="JF19254" begin="1080" fromJunction="J4" toJunction="J3" end="1140" vehsPerHour="126.98890585248358"/>
  <flow id="JF19255" begin="1080" fromJunction="J4" toJunction="J0" end="1140" vehsPerHour="11.71558308361486"/>
  <flow id="JF19256" begin="1080" fromJunction="J2" toJunction="J3" end="1140" vehsPerHour="66.37365266160599"/>
  <flow id="JF19257" begin="1080" fromJunction="J2" toJunction="J0" end="1140" vehsPerHour="75.69796167289013"/>
  <flow id="JF19258" begin="1140" fromJunction="J3" toJunction="J0" end="1200" vehsPerHour="42.51833456627101"/>
  <flow id="JF19259" begin="1140" fromJunction="J0" toJunction="J3" end="1200" vehsPerHour="369.9278376960655"/>
  <flow id="JF19260" begin="1140" fromJunction="J3" toJunction="J4" end="1200" vehsPerHour="12.579887443104662"/>
  <flow id="JF19261" begin="1140" fromJunction="J3" toJunction="J2" end="1200" vehsPerHour="66.98900674875314"/>
  <flow id="JF19262" begin="1140" fromJunction="J0" toJunction="J4" end="1200" vehsPerHour="32.964858644206124"/>
  <flow id="JF19263" begin="1140" fromJunction="J0" toJunction="J2" end="1200" vehsPerHour="113.12401524543945"/>
  <flow id="JF19264" begin="1140" fromJunction="J4" toJunction="J2" end="1200" vehsPerHour="28.968250692061062"/>
  <flow id="JF19265" begin="1140" fromJunction="J2" toJunction="J4" end="1200" vehsPerHour="130.91783110754383"/>
  <flow id="JF19266" begin="1140" fromJunction="J4" toJunction="J3" end="1200" vehsPerHour="45.09300891895319"/>
  <flow id="JF19267" begin="1140" fromJunction="J4" toJunction="J0" end="1200" vehsPerHour="7.568319718137421"/>
  <flow id="JF19268" begin="1140" fromJunction="J2" toJunction="J3" end="1200" vehsPerHour="45.79843323098419"/>
  <flow id="JF19269" begin="1140" fromJunction="J2" toJunction="J0" end="1200" vehsPerHour="122.4005360997265"/>
  <flow id="JF19270" begin="1200" fromJunction="J3" toJunction="J0" end="1260" vehsPerHour="540.0915200686696"/>
  <flow id="JF19271" begin="1200" fromJunction="J0" toJunction="J3" end="1260" vehsPerHour="329.26232350143505"/>
  <flow id="JF19272" begin="1200" fromJunction="J3" toJunction="J4" end="1260" vehsPerHour="118.93718577735628"/>
  <flow id="JF19273" begin="1200" fromJunction="J3" toJunction="J2" end="1260" vehsPerHour="85.40789316267326"/>
  <flow id="JF19274" begin="1200" fromJunction="J0" toJunction="J4" end="1260" vehsPerHour="40.502276361770775"/>
  <flow id="JF19275" begin="1200" fromJunction="J0" toJunction="J2" end="1260" vehsPerHour="61.976838675093646"/>
  <flow id="JF19276" begin="1200" fromJunction="J4" toJunction="J2" end="1260" vehsPerHour="126.86842296864377"/>
  <flow id="JF19277" begin="1200" fromJunction="J2" toJunction="J4" end="1260" vehsPerHour="5.5174492030181685"/>
  <flow id="JF19278" begin="1200" fromJunction="J4" toJunction="J3" end="1260" vehsPerHour="48.98036591021262"/>
  <flow id="JF19279" begin="1200" fromJunction="J4" toJunction="J0" end="1260" vehsPerHour="60.31973334873946"/>
  <flow id="JF19280" begin="1200" fromJunction="J2" toJunction="J3" end="1260" vehsPerHour="130.51882779475278"/>
  <flow id="JF19281" begin="1200" fromJunction="J2" toJunction="J0" end="1260" vehsPerHour="96.10802089149963"/>
  <flow id="JF19282" begin="1260" fromJunction="J3" toJunction="J0" end="1320" vehsPerHour="7.029922145551277"/>
  <flow id="JF19283" begin="1260" fromJunction="J0" toJunction="J3" end="1320" vehsPerHour="309.25630653247674"/>
  <flow id="JF19284" begin="1260" fromJunction="J3" toJunction="J4" end="1320" vehsPerHour="42.51582068913865"/>
  <flow id="JF19285" begin="1260" fromJunction="J3" toJunction="J2" end="1320" vehsPerHour="14.712364556284896"/>
  <flow id="JF19286" begin="1260" fromJunction="J0" toJunction="J4" end="1320" vehsPerHour="132.61093202780836"/>
  <flow id="JF19287" begin="1260" fromJunction="J0" toJunction="J2" end="1320" vehsPerHour="95.54448203375259"/>
  <flow id="JF19288" begin="1320" fromJunction="J3" toJunction="J0" end="1380" vehsPerHour="428.1648144082569"/>
  <flow id="JF19289" begin="1320" fromJunction="J0" toJunction="J3" end="1380" vehsPerHour="344.91876398404554"/>
  <flow id="JF19290" begin="1320" fromJunction="J3" toJunction="J4" end="1380" vehsPerHour="18.93862959448839"/>
  <flow id="JF19291" begin="1320" fromJunction="J3" toJunction="J2" end="1380" vehsPerHour="47.556155575694454"/>
  <flow id="JF19292" begin="1320" fromJunction="J0" toJunction="J4" end="1380" vehsPerHour="22.100189327206103"/>
  <flow id="JF19293" begin="1320" fromJunction="J0" toJunction="J2" end="1380" vehsPerHour="99.54980589782222"/>
  <flow id="JF19294" begin="1320" fromJunction="J4" toJunction="J2" end="1380" vehsPerHour="101.32606978231209"/>
  <flow id="JF19295" begin="1320" fromJunction="J2" toJunction="J4" end="1380" vehsPerHour="77.29120331269188"/>
  <flow id="JF19296" begin="1320" fromJunction="J4" toJunction="J3" end="1380" vehsPerHour="82.71994895541074"/>
  <flow id="JF19297" begin="1320" fromJunction="J4" toJunction="J0" end="1380" vehsPerHour="70.02031444882255"/>
  <flow id="JF19298" begin="1320" fromJunction="J2" toJunction="J3" end="1380" vehsPerHour="97.42525578905676"/>
  <flow id="JF19299" begin="1320" fromJunction="J2" toJunction="J0" end="1380" vehsPerHour="55.50855738100222"/>
  <flow id="JF19300" begin="1380" fromJunction="J3" toJunction="J0" end="1440" vehsPerHour="214.8369073726056"/>
  <flow id="JF19301" begin="1380" fromJunction="J0" toJunction="J3" end="1440" vehsPerHour="224.304721559035"/>
  <flow id="JF19302" begin="1380" fromJunction="J3" toJunction="J4" end="1440" vehsPerHour="57.70166545432764"/>
  <flow id="JF19303" begin="1380" fromJunction="J3" toJunction="J2" end="1440" vehsPerHour="27.416347073315425"/>
  <flow id="JF19304" begin="1380" fromJunction="J0" toJunction="J4" end="1440" vehsPerHour="94.78808526286636"/>
  <flow id="JF19305" begin="1380" fromJunction="J0" toJunction="J2" end="1440" vehsPerHour="108.89583046146018"/>
  <flow id="JF19306" begin="1380" fromJunction="J4" toJunction="J2" end="1440" vehsPerHour="25.64360733941817"/>
  <flow id="JF19307" begin="1380" fromJunction="J2" toJunction="J4" end="1440" vehsPerHour="36.70209864858109"/>
  <flow id="JF19308" begin="1380" fromJunction="J4" toJunction="J3" end="1440" vehsPerHour="56.864118587531806"/>
  <flow id="JF19309" begin="1380" fromJunction="J4" toJunction="J0" end="1440" vehsPerHour="123.87500465478658"/>
  <flow id="JF19310" begin="1380" fromJunction="J2" toJunction="J3" end="1440" vehsPerHour="78.79856681103482"/>
  <flow id="JF19311" begin="1380" fromJunction="J2" toJunction="J0" end="1440" vehsPerHour="53.65273221312946"/>
  <flow id="JF19312" begin="1440" fromJunction="J3" toJunction="J0" end="1500" vehsPerHour="341.00360533502277"/>
  <flow id="JF19313" begin="1440" fromJunction="J0" toJunction="J3" end="1500" vehsPerHour="408.45556678693947"/>
  <flow id="JF19314" begin="1440" fromJunction="J3" toJunction="J4" end="1500" vehsPerHour="62.351885299756574"/>
  <flow id="JF19315" begin="1440" fromJunction="J3" toJunction="J2" end="1500" vehsPerHour="41.976186659853745"/>
  <flow id="JF19316" begin="1440" fromJunction="J0" toJunction="J4" end="1500" vehsPerHour="114.81257057805661"/>
  <flow id="JF19317" begin="1440" fromJunction="J0" toJunction="J2" end="1500" vehsPerHour="119.70784549006794"/>
  <flow id="JF19318" begin="1440" fromJunction="J4" toJunction="J2" end="1500" vehsPerHour="39.67436088809168"/>
  <flow id="JF19319" begin="1440" fromJunction="J2" toJunction="J4" end="1500" vehsPerHour="69.3359773490424"/>
  <flow id="JF19320" begin="1440" fromJunction="J4" toJunction="J3" end="1500" vehsPerHour="54.54229597904692"/>
  <flow id="JF19321" begin="1440" fromJunction="J4" toJunction="J0" end="1500" vehsPerHour="48.431260302559"/>
  <flow id="JF19322" begin="1440" fromJunction="J2" toJunction="J3" end="1500" vehsPerHour="122.34593405450573"/>
  <flow id="JF19323" begin="1440" fromJunction="J2" toJunction="J0" end="1500" vehsPerHour="107.95788989241215"/>
  <flow id="JF19324" begin="1500" fromJunction="J3" toJunction="J0" end="1560" vehsPerHour="491.15880211488775"/>
  <flow id="JF19325" begin="1500" fromJunction="J0" toJunction="J3" end="1560" vehsPerHour="363.4222597860056"/>
  <flow id="JF19326" begin="1500" fromJunction="J3" toJunction="J4" end="1560" vehsPerHour="25.964402972577194"/>
  <flow id="JF19327" begin="1500" fromJunction="J3" toJunction="J2" end="1560" vehsPerHour="22.25274258680426"/>
  <flow id="JF19328" begin="1500" fromJunction="J0" toJunction="J4" end="1560" vehsPerHour="33.79192787119603"/>
  <flow id="JF19329" begin="1500" fromJunction="J0" toJunction="J2" end="1560" vehsPerHour="73.77900377400529"/>
  <flow id="JF19330" begin="1500" fromJunction="J4" toJunction="J2" end="1560" vehsPerHour="100.51135369084726"/>
  <flow id="JF19331" begin="1500" fromJunction="J2" toJunction="J4" end="1560" vehsPerHour="24.09587296629808"/>
  <flow id="JF19332" begin="1500" fromJunction="J4" toJunction="J3" end="1560" vehsPerHour="131.2933653376804"/>
  <flow id="JF19333" begin="1500" fromJunction="J4" toJunction="J0" end="1560" vehsPerHour="123.30155410233537"/>
  <flow id="JF19334" begin="1500" fromJunction="J2" toJunction="J3" end="1560" vehsPerHour="63.18545426629782"/>
  <flow id="JF19335" begin="1500" fromJunction="J2" toJunction="J0" end="1560" vehsPerHour="37.192228835488066"/>
  <flow id="JF19336" begin="1560" fromJunction="J3" toJunction="J0" end="1620" vehsPerHour="67.61041035153569"/>
  <flow id="JF19337" begin="1560" fromJunction="J0" toJunction="J3" end="1620" vehsPerHour="243.2073100168817"/>