<?xml version="1.0" encoding="UTF-8"?>
<routes xmlns:xsi="http://www.w3.org/2001/XMLSchema-instance" xsi:noNamespaceSchemaLocation="http://sumo.dlr.de/xsd/routes_file.xsd">
  <flow id="JF25840" begin="0" fromJunction="J3" toJunction="J0" end="60" vehsPerHour="523.3801191180754"/>
  <flow id="JF25841" begin="0" fromJunction="J0" toJunction="J3" end="60" vehsPerHour="513.8379258016887"/>
  <flow id="JF25842" begin="0" fromJunction="J3" toJunction="J4" end="60" vehsPerHour="19.290987034310817"/>
  <flow id="JF25843" begin="0" fromJunction="J3" toJunction="J2" end="60" vehsPerHour="76.29459632211643"/>
  <flow id="JF25844" begin="0" fromJunction="J0" toJunction="J4" end="60" vehsPerHour="18.93095063303898"/>
  <flow id="JF25845" begin="0" fromJunction="J0" toJunction="J2" end="60" vehsPerHour="86.04690478164935"/>
  <flow id="JF25846" begin="0" fromJunction="J4" toJunction="J2" end="60" vehsPerHour="106.90618270617071"/>
  <flow id="JF25847" begin="0" fromJunction="J2" toJunction="J4" end="60" vehsPerHour="86.86947522760966"/>
  <flow id="JF25848" begin="0" fromJunction="J4" toJunction="J3" end="60" vehsPerHour="76.79206534282574"/>
  <flow id="JF25849" begin="0" fromJunction="J4" toJunction="J0" end="60" vehsPerHour="95.63324333957007"/>
  <flow id="JF25850" begin="0" fromJunction="J2" toJunction="J3" end="60" vehsPerHour="26.87278269039453"/>
  <flow id="JF25851" begin="0" fromJunction="J2" toJunction="J0" end="60" vehsPerHour="68.51847133058247"/>
  <flow id="JF25852" begin="60" fromJunction="J3" toJunction="J0" end="120" vehsPerHour="272.5857868025533"/>
  <flow id="JF25853" begin="60" fromJunction="J0" toJunction="J3" end="120" vehsPerHour="160.90099993268842"/>
  <flow id="JF25854" begin="60" fromJunction="J3" toJunction="J4" end="120" vehsPerHour="123.74887350719646"/>
  <flow id="JF25855" begin="60" fromJunction="J3" toJunction="J2" end="120" vehsPerHour="124.00877141107081"/>
  <flow id="JF25856" begin="60" fromJunction="J0" toJunction="J4" end="120" vehsPerHour="69.37541724879289"/>
  <flow id="JF25857" begin="60" fromJunction="J0" toJunction="J2" end="120" vehsPerHour="47.057764298193945"/>
  <flow id="JF25858" begin="120" fromJunction="J3" toJunction="J0" end="180" vehsPerHour="363.2661263338452"/>
  <flow id="JF25859" begin="120" fromJunction="J0" toJunction="J3" end="180" vehsPerHour="260.2536410679986"/>
  <flow id="JF25860" begin="120" fromJunction="J3" toJunction="J4" end="180" vehsPerHour="131.3228262475758"/>
  <flow id="JF25861" begin="120" fromJunction="J3" toJunction="J2" end="180" vehsPerHour="118.04202216459981"/>
  <flow id="JF25862" begin="120" fromJunction="J0" toJunction="J4" end="180" vehsPerHour="14.084739017790966"/>
  <flow id="JF25863" begin="120" fromJunction="J0" toJunction="J2" end="180" vehsPerHour="3.174790968394258"/>
  <flow id="JF25864" begin="120" fromJunction="J4" toJunction="J2" end="180" vehsPerHour="5.950460682214458"/>
  <flow id="JF25865" begin="120" fromJunction="J2" toJunction="J4" end="180" vehsPerHour="3.108227594075223"/>
  <flow id="JF25866" begin="120" fromJunction="J4" toJunction="J3" end="180" vehsPerHour="118.89710167712043"/>
  <flow id="JF25867" begin="120" fromJunction="J4" toJunction="J0" end="180" vehsPerHour="111.00385088571163"/>
  <flow id="JF25868" begin="120" fromJunction="J2" toJunction="J3" end="180" vehsPerHour="73.40641927275587"/>
  <flow id="JF25869" begin="120" fromJunction="J2" toJunction="J0" end="180" vehsPerHour="109.95229785363004"/>
  <flow id="JF25870" begin="180" fromJunction="J3" toJunction="J0" end="240" vehsPerHour="300.46933262677663"/>
  <flow id="JF25871" begin="180" fromJunction="J0" toJunction="J3" end="240" vehsPerHour="315.81500739513956"/>
  <flow id="JF25872" begin="180" fromJunction="J3" toJunction="J4" end="240" vehsPerHour="13.30003464272697"/>
  <flow id="JF25873" begin="180" fromJunction="J3" toJunction="J2" end="240" vehsPerHour="52.36822065249046"/>
  <flow id="JF25874" begin="180" fromJunction="J0" toJunction="J4" end="240" vehsPerHour="7.024305566813909"/>
  <flow id="JF25875" begin="180" fromJunction="J0" toJunction="J2" end="240" vehsPerHour="11.334161510911064"/>
  <flow id="JF25876" begin="240" fromJunction="J3" toJunction="J0" end="300" vehsPerHour="90.61551751349961"/>
  <flow id="JF25877" begin="240" fromJunction="J0" toJunction="J3" end="300" vehsPerHour="112.97879047320026"/>
  <flow id="JF25878" begin="240" fromJunction="J3" toJunction="J4" end="300" vehsPerHour="60.09775609938053"/>
  <flow id="JF25879" begin="240" fromJunction="J3" toJunction="J2" end="300" vehsPerHour="111.20078397398373"/>
  <flow id="JF25880" begin="240" fromJunction="J0" toJunction="J4" end="300" vehsPerHour="36.77993368689313"/>
  <flow id="JF25881" begin="240" fromJunction="J0" toJunction="J2" end="300" vehsPerHour="7.696982283112007"/>
  <flow id="JF25882" begin="240" fromJunction="J4" toJunction="J2" end="300" vehsPerHour="44.00442152403151"/>
  <flow id="JF25883" begin="240" fromJunction="J2" toJunction="J4" end="300" vehsPerHour="57.878480043736275"/>
  <flow id="JF25884" begin="240" fromJunction="J4" toJunction="J3" end="300" vehsPerHour="64.78483630693283"/>
  <flow id="JF25885" begin="240" fromJunction="J4" toJunction="J0" end="300" vehsPerHour="80.14810079873521"/>
  <flow id="JF25886" begin="240" fromJunction="J2" toJunction="J3" end="300" vehsPerHour="60.81368279914748"/>
  <flow id="JF25887" begin="240" fromJunction="J2" toJunction="J0" end="300" vehsPerHour="47.105272113457026"/>
  <flow id="JF25888" begin="300" fromJunction="J3" toJunction="J0" end="360" vehsPerHour="493.85084339140786"/>
  <flow id="JF25889" begin="300" fromJunction="J0" toJunction="J3" end="360" vehsPerHour="154.7201208823879"/>
  <flow id="JF25890" begin="300" fromJunction="J3" toJunction="J4" end="360" vehsPerHour="67.25849685593617"/>
  <flow id="JF25891" begin="300" fromJunction="J3" toJunction="J2" end="360" vehsPerHour="127.85217510393576"/>
  <flow id="JF25892" begin="300" fromJunction="J0" toJunction="J4" end="360" vehsPerHour="90.18424674017821"/>
  <flow id="JF25893" begin="300" fromJunction="J0" toJunction="J2" end="360" vehsPerHour="98.57483598909472"/>
  <flow id="JF25894" begin="300" fromJunction="J4" toJunction="J2" end="360" vehsPerHour="48.18177052538681"/>
  <flow id="JF25895" begin="300" fromJunction="J2" toJunction="J4" end="360" vehsPerHour="33.21922862559336"/>
  <flow id="JF25896" begin="300" fromJunction="J4" toJunction="J3" end="360" vehsPerHour="131.35447311849123"/>
  <flow id="JF25897" begin="300" fromJunction="J4" toJunction="J0" end="360" vehsPerHour="102.01202842564759"/>
  <flow id="JF25898" begin="300" fromJunction="J2" toJunction="J3" end="360" vehsPerHour="107.06754747147343"/>
  <flow id="JF25899" begin="300" fromJunction="J2" toJunction="J0" end="360" vehsPerHour="30.495118850353858"/>
  <flow id="JF25900" begin="360" fromJunction="J3" toJunction="J0" end="420" vehsPerHour="475.74911871016"/>
  <flow id="JF25901" begin="360" fromJunction="J0" toJunction="J3" end="420" vehsPerHour="447.24102856446103"/>
  <flow id="JF25902" begin="360" fromJunction="J3" toJunction="J4" end="420" vehsPerHour="94.29295001029251"/>
  <flow id="JF25903" begin="360" fromJunction="J3" toJunction="J2" end="420" vehsPerHour="3.329912346999163"/>
  <flow id="JF25904" begin="360" fromJunction="J0" toJunction="J4" end="420" vehsPerHour="59.45856198874188"/>
  <flow id="JF25905" begin="360" fromJunction="J0" toJunction="J2" end="420" vehsPerHour="96.9196866947341"/>
  <flow id="JF25906" begin="360" fromJunction="J4" toJunction="J2" end="420" vehsPerHour="15.564326265228619"/>
  <flow id="JF25907" begin="360" fromJunction="J2" toJunction="J4" end="420" vehsPerHour="123.70965665114392"/>
  <flow id="JF25908" begin="360" fromJunction="J4" toJunction="J3" end="420" vehsPerHour="136.7299818748366"/>
  <flow id="JF25909" begin="360" fromJunction="J4" toJunction="J0" end="420" vehsPerHour="136.56367430687615"/>
  <flow id="JF25910" begin="360" fromJunction="J2" toJunction="J3" end="420" vehsPerHour="127.56716277742449"/>
  <flow id="JF25911" begin="360" fromJunction="J2" toJunction="J0" end="420" vehsPerHour="130.99290788045784"/>
  <flow id="JF25912" begin="420" fromJunction="J3" toJunction="J0" end="480" vehsPerHour="401.48634337692505"/>
  <flow id="JF25913" begin="420" fromJunction="J0" toJunction="J3" end="480" vehsPerHour="59.87011867268516"/>
  <flow id="JF25914" begin="420" fromJunction="J3" toJunction="J4" end="480" vehsPerHour="62.85801886140885"/>
  <flow id="JF25915" begin="420" fromJunction="J3" toJunction="J2" end="480" vehsPerHour="38.85047452903819"/>
  <flow id="JF25916" begin="420" fromJunction="J0" toJunction="J4" end="480" vehsPerHour="43.292628354830235"/>
  <flow id="JF25917" begin="420" fromJunction="J0" toJunction="J2" end="480" vehsPerHour="123.98332462282987"/>
  <flow id="JF25918" begin="420" fromJunction="J4" toJunction="J2" end="480" vehsPerHour="102.01414230000131"/>
  <flow id="JF25919" begin="420" fromJunction="J2" toJunction="J4" end="480" vehsPerHour="34.70319872550761"/>
  <flow id="JF25920" begin="420" fromJunction="J4" toJunction="J3" end="480" vehsPerHour="70.48407577165833"/>
  <flow id="JF25921" begin="420" fromJunction="J4" toJunction="J0" end="480" vehsPerHour="39.373136520814995"/>
  <flow id="JF25922" begin="420" fromJunction="J2" toJunction="J3" end="480" vehsPerHour="71.29281327976007"/>
  <flow id="JF25923" begin="420" fromJunction="J2" toJunction="J0" end="480" vehsPerHour="108.6772043559679"/>
  <flow id="JF25924" begin="480" fromJunction="J3" toJunction="J0" end="540" vehsPerHour="301.180293194595"/>
  <flow id="JF25925" begin="480" fromJunction="J0" toJunction="J3" end="540" vehsPerHour="23.10912680662764"/>
  <flow id="JF25926" begin="480" fromJunction="J3" toJunction="J4" end="540" vehsPerHour="119.20663339463827"/>
  <flow id="JF25927" begin="480" fromJunction="J3" toJunction="J2" end="540" vehsPerHour="8.735998641775657"/>
  <flow id="JF25928" begin="480" fromJunction="J0" toJunction="J4" end="540" vehsPerHour="67.3758128383619"/>
  <flow id="JF25929" begin="480" fromJunction="J0" toJunction="J2" end="540" vehsPerHour="84.64152881401922"/>
  <flow id="JF25930" begin="540" fromJunction="J3" toJunction="J0" end="600" vehsPerHour="449.2789197197344"/>
  <flow id="JF25931" begin="540" fromJunction="J0" toJunction="J3" end="600" vehsPerHour="120.85028160929117"/>
  <flow id="JF25932" begin="540" fromJunction="J3" toJunction="J4" end="600" vehsPerHour="113.96034846460122"/>
  <flow id="JF25933" begin="540" fromJunction="J3" toJunction="J2" end="600" vehsPerHour="135.68174724610833"/>
  <flow id="JF25934" begin="540" fromJunction="J0" toJunction="J4" end="600" vehsPerHour="113.19300477362842"/>
  <flow id="JF25935" begin="540" fromJunction="J0" toJunction="J2" end="600" vehsPerHour="26.431675670954366"/>
  <flow id="JF25936" begin="540" fromJunction="J4" toJunction="J2" end="600" vehsPerHour="12.734917085362055"/>
  <flow id="JF25937" begin="540" fromJunction="J2" toJunction="J4" end="600" vehsPerHour="80.64249835772175"/>
  <flow id="JF25938" begin="540" fromJunction="J4" toJunction="J3" end="600" vehsPerHour="21.893168652601105"/>
  <flow id="JF25939" begin="540" fromJunction="J4" toJunction="J0" end="600" vehsPerHour="135.90619849346973"/>
  <flow id="JF25940" begin="540" fromJunction="J2" toJunction="J3" end="600" vehsPerHour="9.292581127403626"/>
  <flow id="JF25941" begin="540" fromJunction="J2" toJunction="J0" end="600" vehsPerHour="42.503253292885006"/>
  <flow id="JF25942" begin="600" fromJunction="J3" toJunction="J0" end="660" vehsPerHour="41.4998640651408"/>
  <flow id="JF25943" begin="600" fromJunction="J0" toJunction="J3" end="660" vehsPerHour="27.013891014025656"/>
  <flow id="JF25944" begin="600" fromJunction="J3" toJunction="J4" end="660" vehsPerHour="115.05054199547598"/>
  <flow id="JF25945" begin="600" fromJunction="J3" toJunction="J2" end="660" vehsPerHour="16.302212820879973"/>
  <flow id="JF25946" begin="600" fromJunction="J0" toJunction="J4" end="660" vehsPerHour="50.93735310031819"/>
  <flow id="JF25947" begin="600" fromJunction="J0" toJunction="J2" end="660" vehsPerHour="29.905885940239394"/>
  <flow id="JF25948" begin="660" fromJunction="J3" toJunction="J0" end="720" vehsPerHour="504.67533703811574"/>
  <flow id="JF25949" begin="660" fromJunction="J0" toJunction="J3" end="720" vehsPerHour="164.85652677551977"/>
  <flow id="JF25950" begin="660" fromJunction="J3" toJunction="J4" end="720" vehsPerHour="74.98072855454583"/>
  <flow id="JF25951" begin="660" fromJunction="J3" toJunction="J2" end="720" vehsPerHour="122.02208458457308"/>
  <flow id="JF25952" begin="660" fromJunction="J0" toJunction="J4" end="720" vehsPerHour="68.18251946183963"/>
  <flow id="JF25953" begin="660" fromJunction="J0" toJunction="J2" end="720" vehsPerHour="56.95175705247761"/>
  <flow id="JF25954" begin="660" fromJunction="J4" toJunction="J2" end="720" vehsPerHour="79.86643324051501"/>
  <flow id="JF25955" begin="660" fromJunction="J2" toJunction="J4" end="720" vehsPerHour="78.59983409388826"/>
  <flow id="JF25956" begin="660" fromJunction="J4" toJunction="J3" end="720" vehsPerHour="63.61377959844774"/>
  <flow id="JF25957" begin="660" fromJunction="J4" toJunction="J0" end="720" vehsPerHour="125.60418316467565"/>
  <flow id="JF25958" begin="660" fromJunction="J2" toJunction="J3" end="720" vehsPerHour="64.1436743405246"/>
  <flow id="JF25959" begin="660" fromJunction="J2" toJunction="J0" end="720" vehsPerHour="60.48095888894915"/>
  <flow id="JF25960" begin="720" fromJunction="J3" toJunction="J0" end="780" vehsPerHour="526.9378700569221"/>
  <flow id="JF25961" begin="720" fromJunction="J0" toJunction="J3" end="780" vehsPerHour="165.41833699817727"/>
  <flow id="JF25962" begin="720" fromJunction="J3" toJunction="J4" end="780" vehsPerHour="82.44426882307505"/>
  <flow id="JF25963" begin="720" fromJunction="J3" toJunction="J2" end="780" vehsPerHour="71.63966765951311"/>
  <flow id="JF25964" begin="720" fromJunction="J0" toJunction="J4" end="780" vehsPerHour="119.10784759693095"/>
  <flow id="JF25965" begin="720" fromJunction="J0" toJunction="J2" end="780" vehsPerHour="107.2909942297088"/>
  <flow id="JF25966" begin="720" fromJunction="J4" toJunction="J2" end="780" vehsPerHour="134.19081974401303"/>
  <flow id="JF25967" begin="720" fromJunction="J2" toJunction="J4" end="780" vehsPerHour="106.08725600865101"/>
  <flow id="JF25968" begin="720" fromJunction="J4" toJunction="J3" end="780" vehsPerHour="51.5561121471512"/>
  <flow id="JF25969" begin="720" fromJunction="J4" toJunction="J0" end="780" vehsPerHour="109.40440744050404"/>
  <flow id="JF25970" begin="720" fromJunction="J2" toJunction="J3" end="780" vehsPerHour="39.98963595197889"/>
  <flow id="JF25971" begin="720" fromJunction="J2" toJunction="J0" end="780" vehsPerHour="69.30978260447102"/>
  <flow id="JF25972" begin="780" fromJunction="J3" toJunction="J0" end="840" vehsPerHour="338.24329687433294"/>
  <flow id="JF25973" begin="780" fromJunction="J0" toJunction="J3" end="840" vehsPerHour="431.01981258638347"/>
  <flow id="JF25974" begin="780" fromJunction="J3" toJunction="J4" end="840" vehsPerHour="133.63610249140612"/>
  <flow id="JF25975" begin="780" fromJunction="J3" toJunction="J2" end="840" vehsPerHour="46.6490518301199"/>
  <flow id="JF25976" begin="780" fromJunction="J0" toJunction="J4" end="840" vehsPerHour="116.0651653722329"/>
  <flow id="JF25977" begin="780" fromJunction="J0" toJunction="J2" end="840" vehsPerHour="52.60284396543456"/>
  <flow id="JF25978" begin="780" fromJunction="J4" toJunction="J2" end="840" vehsPerHour="12.13638121149338"/>
  <flow id="JF25979" begin="780" fromJunction="J2" toJunction="J4" end="840" vehsPerHour="83.11506044314152"/>
  <flow id="JF25980" begin="780" fromJunction="J4" toJunction="J3" end="840" vehsPerHour="30.411445581522056"/>
  <flow id="JF25981" begin="780" fromJunction="J4" toJunction="J0" end="840" vehsPerHour="64.63997773824016"/>
  <flow id="JF25982" begin="780" fromJunction="J2" toJunction="J3" end="840" vehsPerHour="61.535832302019045"/>
  <flow id="JF25983" begin="780" fromJunction="J2" toJunction="J0" end="840" vehsPerHour="0.671797366294491"/>
  <flow id="JF25984" begin="840" fromJunction="J3" toJunction="J0" end="900" vehsPerHour="310.41042804170746"/>
  <flow id="JF25985" begin="840" fromJunction="J0" toJunction="J3" end="900" vehsPerHour="83.8131544809052"/>
  <flow id="JF25986" begin="840" fromJunction="J3" toJunction="J4" end="900" vehsPerHour="53.84306090850502"/>
  <flow id="JF25987" begin="840" fromJunction="J3" toJunction="J2" end="900" vehsPerHour="91.41730780994995"/>
  <flow id="JF25988" begin="840" fromJunction="J0" toJunction="J4" end="900" vehsPerHour="89.79589972296239"/>
  <flow id="JF25989" begin="840" fromJunction="J0" toJunction="J2" end="900" vehsPerHour="103.59420814482242"/>
  <flow id="JF25990" begin="840" fromJunction="J4" toJunction="J2" end="900" vehsPerHour="113.612193604504"/>
  <flow id="JF25991" begin="840" fromJunction="J2" toJunction="J4" end="900" vehsPerHour="49.716942918098916"/>
  <flow id="JF25992" begin="840" fromJunction="J4" toJunction="J3" end="900" vehsPerHour="4.132417952849096"/>
  <flow id="JF25993" begin="840" fromJunction="J4" toJunction="J0" end="900" vehsPerHour="118.37213400920093"/>
  <flow id="JF25994" begin="840" fromJunction="J2" toJunction="J3" end="900" vehsPerHour="119.57822301405896"/>
  <flow id="JF25995" begin="840" fromJunction="J2" toJunction="J0" end="900" vehsPerHour="123.45222008491037"/>
  <flow id="JF25996" begin="900" fromJunction="J3" toJunction="J0" end="960" vehsPerHour="499.21197913949266"/>
  <flow id="JF25997" begin="900" fromJunction="J0" toJunction="J3" end="960" vehsPerHour="275.84875453964264"/>
  <flow id="JF25998" begin="900" fromJunction="J3" toJunction="J4" end="960" vehsPerHour="104.65387432872947"/>
  <flow id="JF25999" begin="900" fromJunction="J3" toJunction="J2" end="960" vehsPerHour="80.19706308589001"/>
  <flow id="JF26000" begin="900" fromJunction="J0" toJunction="J4" end="960" vehsPerHour="71.26898577693918"/>
  <flow id="JF26001" begin="900" fromJunction="J0" toJunction="J2" end="960" vehsPerHour="114.52442070035084"/>
  <flow id="JF26002" begin="900" fromJunction="J4" toJunction="J2" end="960" vehsPerHour="126.95986769045551"/>
  <flow id="JF26003" begin="900" fromJunction="J2" toJunction="J4" end="960" vehsPerHour="67.24803566074212"/>
  <flow id="JF26004" begin="900" fromJunction="J4" toJunction="J3" end="960" vehsPerHour="93.27452543304312"/>
  <flow id="JF26005" begin="900" fromJunction="J4" toJunction="J0" end="960" vehsPerHour="38.72311050894701"/>
  <flow id="JF26006" begin="900" fromJunction="J2" toJunction="J3" end="960" vehsPerHour="109.30437574121312"/>
  <flow id="JF26007" begin="900" fromJunction="J2" toJunction="J0" end="960" vehsPerHour="133.37417292104726"/>
  <flow id="JF26008" begin="960" fromJunction="J3" toJunction="J0" end="1020" vehsPerHour="525.2074684070445"/>
  <flow id="JF26009" begin="960" fromJunction="J0" toJunction="J3" end="1020" vehsPerHour="120.39570930075885"/>
  <flow id="JF26010" begin="960" fromJunction="J3" toJunction="J4" end="1020" vehsPerHour="40.03105247989326"/>
  <flow id="JF26011" begin="960" fromJunction="J3" toJunction="J2" end="1020" vehsPerHour="75.42999435613213"/>
  <flow id="JF26012" begin="960" fromJunction="J0" toJunction="J4" end="1020" vehsPerHour="95.25964294884656"/>
  <flow id="JF26013" begin="960" fromJunction="J0" toJunction="J2" end="1020" vehsPerHour="54.67883560741246"/>
  <flow id="JF26014" begin="1020" fromJunction="J3" toJunction="J0" end="1080" vehsPerHour="345.6189924754616"/>
  <flow id="JF26015" begin="1020" fromJunction="J0" toJunction="J3" end="1080" vehsPerHour="326.41580970102524"/>
  <flow id="JF26016" begin="1020" fromJunction="J3" toJunction="J4" end="1080" vehsPerHour="92.09327637835207"/>
  <flow id="JF26017" begin="1020" fromJunction="J3" toJunction="J2" end="1080" vehsPerHour="136.69227030577318"/>
  <flow id="JF26018" begin="1020" fromJunction="J0" toJunction="J4" end="1080" vehsPerHour="52.79301504592813"/>
  <flow id="JF26019" begin="1020" fromJunction="J0" toJunction="J2" end="1080" vehsPerHour="91.09285141121202"/>
  <flow id="JF26020" begin="1020" fromJunction="J4" toJunction="J2" end="1080" vehsPerHour="5.395418367994814"/>
  <flow id="JF26021" begin="1020" fromJunction="J2" toJunction="J4" end="1080" vehsPerHour="25.648150721377327"/>
  <flow id="JF26022" begin="1020" fromJunction="J4" toJunction="J3" end="1080" vehsPerHour="38.24314345723304"/>
  <flow id="JF26023" begin="1020" fromJunction="J4" toJunction="J0" end="1080" vehsPerHour="59.83589476513889"/>
  <flow id="JF26024" begin="1020" fromJunction="J2" toJunction="J3" end="1080" vehsPerHour="92.11249136740139"/>
  <flow id="JF26025" begin="1020" fromJunction="J2" toJunction="J0" end="1080" vehsPerHour="126.16603578915776"/>
  <flow id="JF26026" begin="1080" fromJunction="J3" toJunction="J0" end="1140" vehsPerHour="370.98621848287235"/>
  <flow id="JF26027" begin="1080" fromJunction="J0" toJunction="J3" end="1140" vehsPerHour="249.65344798491427"/>
  <flow id="JF26028" begin="1080" fromJunction="J3" toJunction="J4" end="1140" vehsPerHour="74.5241750673997"/>
  <flow id="JF26029" begin="1080" fromJunction="J3" toJunction="J2" end="1140" vehsPerHour="109.91148594408571"/>
  <flow id="JF26030" begin="1080" fromJunction="J0" toJunction="J4" end="1140" vehsPerHour="39.61741042281065"/>
  <flow id="JF26031" begin="1080" fromJunction="J0" toJunction="J2" end="1140" vehsPerHour="98.80056414499036"/>
  <flow id="JF26032" begin="1080" fromJunction="J4" toJunction="J2" end="1140" vehsPerHour="106.43709408123284"/>
  <flow id="JF26033" begin="1080" fromJunction="J2" toJunction="J4" end="1140" vehsPerHour="20.82684755947922"/>
  <flow id="JF26034" begin="1080" fromJunction="J4" toJunction="J3" end="1140" vehsPerHour="101.10626589624086"/>
  <flow id="JF26035" begin="1080" fromJunction="J4" toJunction="J0" end="1140" vehsPerHour="125.53700143791654"/>
  <flow id="JF26036" begin="1080" fromJunction="J2" toJunction="J3" end="1140" vehsPerHour="94.57286161057071"/>
  <flow id="JF26037" begin="1080" fromJunction="J2" toJunction="J0" end="1140" vehsPerHour="130.64515902545253"/>
  <flow id="JF26038" begin="1140" fromJunction="J3" toJunction="J0" end="1200" vehsPerHour="529.8977005045675"/>
  <flow id="JF26039" begin="1140" fromJunction="J0" toJunction="J3" end="1200" vehsPerHour="143.70057365382982"/>
  <flow id="JF26040" begin="1140" fromJunction="J3" toJunction="J4" end="1200" vehsPerHour="12.294883253381485"/>
  <flow id="JF26041" begin="1140" fromJunction="J3" toJunction="J2" end="1200" vehsPerHour="27.75331238519483"/>
  <flow id="JF26042" begin="1140" fromJunction="J0" toJunction="J4" end="1200" vehsPerHour="1.6769847105090598"/>
  <flow id="JF26043" begin="1140" fromJunction="J0" toJunction="J2" end="1200" vehsPerHour="53.60145576665536"/>
  <flow id="JF26044" begin="1200" fromJunction="J3" toJunction="J0" end="1260" vehsPerHour="410.3403249627604"/>
  <flow id="JF26045" begin="1200" fromJunction="J0" toJunction="J3" end="1260" vehsPerHour="515.8340332633188"/>
  <flow id="JF26046" begin="1200" fromJunction="J3" toJunction="J4" end="1260" vehsPerHour="100.70378624427812"/>
  <flow id="JF26047" begin="1200" fromJunction="J3" toJunction="J2" end="1260" vehsPerHour="134.48481341075734"/>
  <flow id="JF26048" begin="1200" fromJunction="J0" toJunction="J4" end="1260" vehsPerHour="36.57175825285091"/>
  <flow id="JF26049" begin="1200" fromJunction="J0" toJunction="J2" end="1260" vehsPerHour="24.82048169080922"/>
  <flow id="JF26050" begin="1200" fromJunction="J4" toJunction="J2" end="1260" vehsPerHour="20.31747996301314"/>
  <flow id="JF26051" begin="1200" fromJunction="J2" toJunction="J4" end="1260" vehsPerHour="9.718396884540368"/>
  <flow id="JF26052" begin="1200" fromJunction="J4" toJunction="J3" end="1260" vehsPerHour="59.87360178060467"/>
  <flow id="JF26053" begin="1200" fromJunction="J4" toJunction="J0" end="1260" vehsPerHour="60.38951575049487"/>
  <flow id="JF26054" begin="1200" fromJunction="J2" toJunction="J3" end="1260" vehsPerHour="96.5838324505581"/>
  <flow id="JF26055" begin="1200" fromJunction="J2" toJunction="J0" end="1260" vehsPerHour="51.48998208646273"/>
  <flow id="JF26056" begin="1260" fromJunction="J3" toJunction="J0" end="1320" vehsPerHour="30.484884814288517"/>
  <flow id="JF26057" begin="1260" fromJunction="J0" toJunction="J3" end="1320" vehsPerHour="459.1215021650683"/>
  <flow id="JF26058" begin="1260" fromJunction="J3" toJunction="J4" end="1320" vehsPerHour="93.93548023695892"/>
  <flow id="JF26059" begin="1260" fromJunction="J3" toJunction="J2" end="1320" vehsPerHour="12.303170306150815"/>
  <flow id="JF26060" begin="1260" fromJunction="J0" toJunction="J4" end="1320" vehsPerHour="84.55350762379265"/>
  <flow id="JF26061" begin="1260" fromJunction="J0" toJunction="J2" end="1320" vehsPerHour="22.06673247456074"/>
  <flow id="JF26062" begin="1320" fromJunction="J3" toJunction="J0" end="1380" vehsPerHour="446.59155835601393"/>
  <flow id="JF26063" begin="1320" fromJunction="J0" toJunction="J3" end="1380" vehsPerHour="201.19980653110483"/>
  <flow id="JF26064" begin="1320" fromJunction="J3" toJunction="J4" end="1380" vehsPerHour="96.10611399767788"/>
  <flow id="JF26065" begin="1320" fromJunction="J3" toJunction="J2" end="1380" vehsPerHour="121.31818289263603"/>
  <flow id="JF26066" begin="1320" fromJunction="J0" toJunction="J4" end="1380" vehsPerHour="97.73759180663116"/>
  <flow id="JF26067" begin="1320" fromJunction="J0" toJunction="J2" end="1380" vehsPerHour="82.5301114018413"/>
  <flow id="JF26068" begin="1320" fromJunction="J4" toJunction="J2" end="1380" vehsPerHour="20.802564486429482"/>
  <flow id="JF26069" begin="1320" fromJunction="J2" toJunction="J4" end="1380" vehsPerHour="85.17679661529202"/>
  <flow id="JF26070" begin="1320" fromJunction="J4" toJunction="J3" end="1380" vehsPerHour="55.547876826869214"/>
  <flow id="JF26071" begin="1320" fromJunction="J4" toJunction="J0" end="1380" vehsPerHour="80.12634021346298"/>
  <flow id="JF26072" begin="1320" fromJunction="J2" toJunction="J3" end="1380" vehsPerHour="54.601073845167335"/>
  <flow id="JF26073" begin="1320" fromJunction="J2" toJunction="J0" end="1380" vehsPerHour="73.76361041068407"/>
  <flow id="JF26074" begin="1380" fromJunction="J3" toJunction="J0" end="1440" vehsPerHour="483.76754416043923"/>
  <flow id="JF26075" begin="1380" fromJunction="J0" toJunction="J3" end="1440" vehsPerHour="209.43278008974605"/>
  <flow id="JF26076" begin="1380" fromJunction="J3" toJunction="J4" end="1440" vehsPerHour="43.667258008441664"/>
  <flow id="JF26077" begin="1380" fromJunction="J3" toJunction="J2" end="1440" vehsPerHour="24.55574525659556"/>
  <flow id="JF26078" begin="1380" fromJunction="J0" toJunction="J4" end="1440" vehsPerHour="19.124793228383037"/>
  <flow id="JF26079" begin="1380" fromJunction="J0" toJunction="J2" end="1440" vehsPerHour="40.08569979069271"/>
  <flow id="JF26080" begin="1380" fromJunction="J4" toJunction="J2" end="1440" vehsPerHour="62.55478731634839"/>
  <flow id="JF26081" begin="1380" fromJunction="J2" toJunction="J4" end="1440" vehsPerHour="41.88527274990856"/>
  <flow id="JF26082" begin="1380" fromJunction="J4" toJunction="J3" end="1440" vehsPerHour="0.9671317769967542"/>
  <flow id="JF26083" begin="1380" fromJunction="J4" toJunction="J0" end="1440" vehsPerHour="49.387272797642055"/>
  <flow id="JF26084" begin="1380" fromJunction="J2" toJunction="J3" end="1440" vehsPerHour="9.79822382396489"/>
  <flow id="JF26085" begin="1380" fromJunction="J2" toJunction="J0" end="1440" vehsPerHour="125.88688779335361"/>
  <flow id="JF26086" begin="1440" fromJunction="J3" toJunction="J0" end="1500" vehsPerHour="245.34924231597842"/>
  <flow id="JF26087" begin="1440" fromJunction="J0" toJunction="J3" end="1500" vehsPerHour="472.0015102345432"/>
  <flow id="JF26088" begin="1440" fromJunction="J3" toJunction="J4" end="1500" vehsPerHour="70.88865710291991"/>
  <flow id="JF26089" begin="1440" fromJunction="J3" toJunction="J2" end="1500" vehsPerHour="17.213241896908915"/>
  <flow id="JF26090" begin="1440" fromJunction="J0" toJunction="J4" end="1500" vehsPerHour="107.57618975144509"/>
  <flow id="JF26091" begin="1440" fromJunction="J0" toJunction="J2" end="1500" vehsPerHour="84.021154723908"/>
  <flow id="JF26092" begin="1440" fromJunction="J4" toJunction="J2" end="1500" vehsPerHour="84.01582681679172"/>
  <flow id="JF26093" begin="1440" fromJunction="J2" toJunction="J4" end="1500" vehsPerHour="60.0702820855897"/>
  <flow id="JF26094" begin="1440" fromJunction="J4" toJunction="J3" end="1500" vehsPerHour="93.09579191491515"/>
  <flow id="JF26095" begin="1440" fromJunction="J4" toJunction="J0" end="1500" vehsPerHour="127.78764028461019"/>
  <flow id="JF26096" begin="1440" fromJunction="J2" toJunction="J3" end="1500" vehsPerHour="13.115433638562905"/>
  <flow id="JF26097" begin="1440" fromJunction="J2" toJunction="J0" end="1500" vehsPerHour="106.67555321528812"/>
  <flow id="JF26098" begin="1500" fromJunction="J3" toJunction="J0" end="1560" vehsPerHour="87.92123020481101"/>
  <flow id="JF26099" begin="1500" fromJunction="J0" toJunction="J3" end="1560" vehsPerHour="164.99036906459403"/>
  <flow id="JF26100" begin="1500" fromJunction="J3" toJunction="J4" end="1560" vehsPerHour="79.5400731952489"/>
  <flow id="JF26101" begin="1500" fromJunction="J3" toJunction="J2" end="1560" vehsPerHour="48.515129977844346"/>
  <flow id="JF26102" begin="1500" fromJunction="J0" toJunction="J4" end="1560" vehsPerHour="76.39840315810267"/>
  <flow id="JF26103" begin="1500" fromJunction="J0" toJunction="J2" end="1560" vehsPerHour="86.8507680783873"/>
  <flow id="JF26104" begin="1560" fromJunction="J3" toJunction="J0" end="1620" vehsPerHour="63.93734006008119"/>
  <flow id="JF26105" begin="1560" fromJunction="J0" toJunction="J3" end="1620" vehsPerHour="491.55684647694363"/>