<?xml version="1.0" encoding="UTF-8"?>
<routes xmlns:xsi="http://www.w3.org/2001/XMLSchema-instance" xsi:noNamespaceSchemaLocation="http://sumo.dlr.de/xsd/routes_file.xsd">
  <flow id="JF27562" begin="0" fromJunction="J3" toJunction="J0" end="60" vehsPerHour="322.2415630252695"/>
  <flow id="JF27563" begin="0" fromJunction="J0" toJunction="J3" end="60" vehsPerHour="22.317056412565847"/>
  <flow id="JF27564" begin="0" fromJunction="J3" toJunction="J4" end="60" vehsPerHour="48.37921430296537"/>
  <flow id="JF27565" begin="0" fromJunction="J3" toJunction="J2" end="60" vehsPerHour="36.84129427073544"/>
  <flow id="JF27566" begin="0" fromJunction="J0" toJunction="J4" end="60" vehsPerHour="54.63615714082655"/>
  <flow id="JF27567" begin="0" fromJunction="J0" toJunction="J2" end="60" vehsPerHour="126.44519245691765"/>
  <flow id="JF27568" begin="0" fromJunction="J4" toJunction="J2" end="60" vehsPerHour="56.70155733588309"/>
  <flow id="JF27569" begin="0" fromJunction="J2" toJunction="J4" end="60" vehsPerHour="43.53275532057854"/>
  <flow id="JF27570" begin="0" fromJunction="J4" toJunction="J3" end="60" vehsPerHour="43.43622408166697"/>
  <flow id="JF27571" begin="0" fromJunction="J4" toJunction="J0" end="60" vehsPerHour="33.469880575141396"/>
  <flow id="JF27572" begin="0" fromJunction="J2" toJunction="J3" end="60" vehsPerHour="106.9646004647994"/>
  <flow id="JF27573" begin="0" fromJunction="J2" toJunction="J0" end="60" vehsPerHour="116.79241944454886"/>
  <flow id="JF27574" begin="60" fromJunction="J3" toJunction="J0" end="120" vehsPerHour="349.39683283949176"/>
  <flow id="JF27575" begin="60" fromJunction="J0" toJunction="J3" end="120" vehsPerHour="347.8302351647976"/>
  <flow id="JF27576" begin="60" fromJunction="J3" toJunction="J4" end="120" vehsPerHour="61.746926745658726"/>
  <flow id="JF27577" begin="60" fromJunction="J3" toJunction="J2" end="120" vehsPerHour="46.04331123698536"/>
  <flow id="JF27578" begin="60" fromJunction="J0" toJunction="J4" end="120" vehsPerHour="32.43287361143561"/>
  <flow id="JF27579" begin="60" fromJunction="J0" toJunction="J2" end="120" vehsPerHour="16.96576204223811"/>
  <flow id="JF27580" begin="120" fromJunction="J3" toJunction="J0" end="180" vehsPerHour="142.83727075084053"/>
  <flow id="JF27581" begin="120" fromJunction="J0" toJunction="J3" end="180" vehsPerHour="226.56924933072125"/>
  <flow id="JF27582" begin="120" fromJunction="J3" toJunction="J4" end="180" vehsPerHour="71.1845815269281"/>
  <flow id="JF27583" begin="120" fromJunction="J3" toJunction="J2" end="180" vehsPerHour="35.53839934258086"/>
  <flow id="JF27584" begin="120" fromJunction="J0" toJunction="J4" end="180" vehsPerHour="98.77431952169317"/>
  <flow id="JF27585" begin="120" fromJunction="J0" toJunction="J2" end="180" vehsPerHour="51.11236308893746"/>
  <flow id="JF27586" begin="180" fromJunction="J3" toJunction="J0" end="240" vehsPerHour="199.08541950929495"/>
  <flow id="JF27587" begin="180" fromJunction="J0" toJunction="J3" end="240" vehsPerHour="307.6419597861601"/>
  <flow id="JF27588" begin="180" fromJunction="J3" toJunction="J4" end="240" vehsPerHour="4.5760544961013405"/>
  <flow id="JF27589" begin="180" fromJunction="J3" toJunction="J2" end="240" vehsPerHour="122.80360132025143"/>
  <flow id="JF27590" begin="180" fromJunction="J0" toJunction="J4" end="240" vehsPerHour="75.3239035930113"/>
  <flow id="JF27591" begin="180" fromJunction="J0" toJunction="J2" end="240" vehsPerHour="47.906133933892896"/>
  <flow id="JF27592" begin="240" fromJunction="J3" toJunction="J0" end="300" vehsPerHour="428.87904329043783"/>
  <flow id="JF27593" begin="240" fromJunction="J0" toJunction="J3" end="300" vehsPerHour="502.2494619176462"/>
  <flow id="JF27594" begin="240" fromJunction="J3" toJunction="J4" end="300" vehsPerHour="29.656883617696373"/>
  <flow id="JF27595" begin="240" fromJunction="J3" toJunction="J2" end="300" vehsPerHour="33.264140752920234"/>
  <flow id="JF27596" begin="240" fromJunction="J0" toJunction="J4" end="300" vehsPerHour="66.781892988849"/>
  <flow id="JF27597" begin="240" fromJunction="J0" toJunction="J2" end="300" vehsPerHour="98.71311762654486"/>
  <flow id="JF27598" begin="300" fromJunction="J3" toJunction="J0" end="360" vehsPerHour="51.958733973011746"/>
  <flow id="JF27599" begin="300" fromJunction="J0" toJunction="J3" end="360" vehsPerHour="350.5691117933059"/>
  <flow id="JF27600" begin="300" fromJunction="J3" toJunction="J4" end="360" vehsPerHour="29.645984789889198"/>
  <flow id="JF27601" begin="300" fromJunction="J3" toJunction="J2" end="360" vehsPerHour="68.12734636770514"/>
  <flow id="JF27602" begin="300" fromJunction="J0" toJunction="J4" end="360" vehsPerHour="6.730075416718311"/>
  <flow id="JF27603" begin="300" fromJunction="J0" toJunction="J2" end="360" vehsPerHour="42.213053345624374"/>
  <flow id="JF27604" begin="360" fromJunction="J3" toJunction="J0" end="420" vehsPerHour="103.2188350961462"/>
  <flow id="JF27605" begin="360" fromJunction="J0" toJunction="J3" end="420" vehsPerHour="21.873388201632572"/>
  <flow id="JF27606" begin="360" fromJunction="J3" toJunction="J4" end="420" vehsPerHour="111.93243915606277"/>
  <flow id="JF27607" begin="360" fromJunction="J3" toJunction="J2" end="420" vehsPerHour="93.70211366784426"/>
  <flow id="JF27608" begin="360" fromJunction="J0" toJunction="J4" end="420" vehsPerHour="132.7898994413011"/>
  <flow id="JF27609" begin="360" fromJunction="J0" toJunction="J2" end="420" vehsPerHour="27.613195221504302"/>
  <flow id="JF27610" begin="420" fromJunction="J3" toJunction="J0" end="480" vehsPerHour="65.90687246145467"/>
  <flow id="JF27611" begin="420" fromJunction="J0" toJunction="J3" end="480" vehsPerHour="356.2025375593796"/>
  <flow id="JF27612" begin="420" fromJunction="J3" toJunction="J4" end="480" vehsPerHour="136.9330375372529"/>
  <flow id="JF27613" begin="420" fromJunction="J3" toJunction="J2" end="480" vehsPerHour="84.86503103874911"/>
  <flow id="JF27614" begin="420" fromJunction="J0" toJunction="J4" end="480" vehsPerHour="18.20885299758796"/>
  <flow id="JF27615" begin="420" fromJunction="J0" toJunction="J2" end="480" vehsPerHour="88.45313086650238"/>
  <flow id="JF27616" begin="420" fromJunction="J4" toJunction="J2" end="480" vehsPerHour="13.006434095714203"/>
  <flow id="JF27617" begin="420" fromJunction="J2" toJunction="J4" end="480" vehsPerHour="90.34482507276316"/>
  <flow id="JF27618" begin="420" fromJunction="J4" toJunction="J3" end="480" vehsPerHour="86.54087210587926"/>
  <flow id="JF27619" begin="420" fromJunction="J4" toJunction="J0" end="480" vehsPerHour="95.1058081676714"/>
  <flow id="JF27620" begin="420" fromJunction="J2" toJunction="J3" end="480" vehsPerHour="127.36892045748604"/>
  <flow id="JF27621" begin="420" fromJunction="J2" toJunction="J0" end="480" vehsPerHour="129.23992203538177"/>
  <flow id="JF27622" begin="480" fromJunction="J3" toJunction="J0" end="540" vehsPerHour="543.9468738560034"/>
  <flow id="JF27623" begin="480" fromJunction="J0" toJunction="J3" end="540" vehsPerHour="484.5364733606588"/>
  <flow id="JF27624" begin="480" fromJunction="J3" toJunction="J4" end="540" vehsPerHour="69.71216224093833"/>
  <flow id="JF27625" begin="480" fromJunction="J3" toJunction="J2" end="540" vehsPerHour="1.5414237111413218"/>
  <flow id="JF27626" begin="480" fromJunction="J0" toJunction="J4" end="540" vehsPerHour="134.6428075091752"/>
  <flow id="JF27627" begin="480" fromJunction="J0" toJunction="J2" end="540" vehsPerHour="41.75706301935671"/>
  <flow id="JF27628" begin="480" fromJunction="J4" toJunction="J2" end="540" vehsPerHour="128.5861399915622"/>
  <flow id="JF27629" begin="480" fromJunction="J2" toJunction="J4" end="540" vehsPerHour="58.54595687603783"/>
  <flow id="JF27630" begin="480" fromJunction="J4" toJunction="J3" end="540" vehsPerHour="62.29713156448487"/>
  <flow id="JF27631" begin="480" fromJunction="J4" toJunction="J0" end="540" vehsPerHour="134.21461842360728"/>
  <flow id="JF27632" begin="480" fromJunction="J2" toJunction="J3" end="540" vehsPerHour="126.33487878398881"/>
  <flow id="JF27633" begin="480" fromJunction="J2" toJunction="J0" end="540" vehsPerHour="99.75763610974214"/>
  <flow id="JF27634" begin="540" fromJunction="J3" toJunction="J0" end="600" vehsPerHour="317.9056690810208"/>
  <flow id="JF27635" begin="540" fromJunction="J0" toJunction="J3" end="600" vehsPerHour="120.1032226384037"/>
  <flow id="JF27636" begin="540" fromJunction="J3" toJunction="J4" end="600" vehsPerHour="73.07949581069832"/>
  <flow id="JF27637" begin="540" fromJunction="J3" toJunction="J2" end="600" vehsPerHour="23.71346012745357"/>
  <flow id="JF27638" begin="540" fromJunction="J0" toJunction="J4" end="600" vehsPerHour="56.757930793956646"/>
  <flow id="JF27639" begin="540" fromJunction="J0" toJunction="J2" end="600" vehsPerHour="105.42910306449994"/>
  <flow id="JF27640" begin="540" fromJunction="J4" toJunction="J2" end="600" vehsPerHour="109.15873499429802"/>
  <flow id="JF27641" begin="540" fromJunction="J2" toJunction="J4" end="600" vehsPerHour="81.78322522920388"/>
  <flow id="JF27642" begin="540" fromJunction="J4" toJunction="J3" end="600" vehsPerHour="38.357757585189944"/>
  <flow id="JF27643" begin="540" fromJunction="J4" toJunction="J0" end="600" vehsPerHour="76.91723630414407"/>
  <flow id="JF27644" begin="540" fromJunction="J2" toJunction="J3" end="600" vehsPerHour="70.4195616304655"/>
  <flow id="JF27645" begin="540" fromJunction="J2" toJunction="J0" end="600" vehsPerHour="123.15099357134278"/>
  <flow id="JF27646" begin="600" fromJunction="J3" toJunction="J0" end="660" vehsPerHour="533.4490735645106"/>
  <flow id="JF27647" begin="600" fromJunction="J0" toJunction="J3" end="660" vehsPerHour="229.59627627455876"/>
  <flow id="JF27648" begin="600" fromJunction="J3" toJunction="J4" end="660" vehsPerHour="109.85391655229344"/>
  <flow id="JF27649" begin="600" fromJunction="J3" toJunction="J2" end="660" vehsPerHour="17.626814394303835"/>
  <flow id="JF27650" begin="600" fromJunction="J0" toJunction="J4" end="660" vehsPerHour="40.482901557377915"/>
  <flow id="JF27651" begin="600" fromJunction="J0" toJunction="J2" end="660" vehsPerHour="52.21496444985084"/>
  <flow id="JF27652" begin="660" fromJunction="J3" toJunction="J0" end="720" vehsPerHour="231.27781333855705"/>
  <flow id="JF27653" begin="660" fromJunction="J0" toJunction="J3" end="720" vehsPerHour="537.25093669471"/>
  <flow id="JF27654" begin="660" fromJunction="J3" toJunction="J4" end="720" vehsPerHour="35.997096636578426"/>
  <flow id="JF27655" begin="660" fromJunction="J3" toJunction="J2" end="720" vehsPerHour="115.83103195591474"/>
  <flow id="JF27656" begin="660" fromJunction="J0" toJunction="J4" end="720" vehsPerHour="21.891674260568646"/>
  <flow id="JF27657" begin="660" fromJunction="J0" toJunction="J2" end="720" vehsPerHour="123.39210604011673"/>
  <flow id="JF27658" begin="660" fromJunction="J4" toJunction="J2" end="720" vehsPerHour="120.2925554521234"/>
  <flow id="JF27659" begin="660" fromJunction="J2" toJunction="J4" end="720" vehsPerHour="83.26747810900609"/>
  <flow id="JF27660" begin="660" fromJunction="J4" toJunction="J3" end="720" vehsPerHour="9.225812947759737"/>
  <flow id="JF27661" begin="660" fromJunction="J4" toJunction="J0" end="720" vehsPerHour="74.63541240756989"/>
  <flow id="JF27662" begin="660" fromJunction="J2" toJunction="J3" end="720" vehsPerHour="96.44192538564788"/>
  <flow id="JF27663" begin="660" fromJunction="J2" toJunction="J0" end="720" vehsPerHour="58.666874400145865"/>
  <flow id="JF27664" begin="720" fromJunction="J3" toJunction="J0" end="780" vehsPerHour="322.0109950794028"/>
  <flow id="JF27665" begin="720" fromJunction="J0" toJunction="J3" end="780" vehsPerHour="249.1691545024532"/>
  <flow id="JF27666" begin="720" fromJunction="J3" toJunction="J4" end="780" vehsPerHour="30.396684651191332"/>
  <flow id="JF27667" begin="720" fromJunction="J3" toJunction="J2" end="780" vehsPerHour="55.233481489320454"/>
  <flow id="JF27668" begin="720" fromJunction="J0" toJunction="J4" end="780" vehsPerHour="94.43065638388686"/>
  <flow id="JF27669" begin="720" fromJunction="J0" toJunction="J2" end="780" vehsPerHour="120.14241704373164"/>
  <flow id="JF27670" begin="720" fromJunction="J4" toJunction="J2" end="780" vehsPerHour="118.72093979667635"/>
  <flow id="JF27671" begin="720" fromJunction="J2" toJunction="J4" end="780" vehsPerHour="114.26252519226323"/>
  <flow id="JF27672" begin="720" fromJunction="J4" toJunction="J3" end="780" vehsPerHour="5.926254375987295"/>
  <flow id="JF27673" begin="720" fromJunction="J4" toJunction="J0" end="780" vehsPerHour="2.078998329495937"/>
  <flow id="JF27674" begin="720" fromJunction="J2" toJunction="J3" end="780" vehsPerHour="45.007272729126036"/>
  <flow id="JF27675" begin="720" fromJunction="J2" toJunction="J0" end="780" vehsPerHour="49.50128630486957"/>
  <flow id="JF27676" begin="780" fromJunction="J3" toJunction="J0" end="840" vehsPerHour="137.1883419582303"/>
  <flow id="JF27677" begin="780" fromJunction="J0" toJunction="J3" end="840" vehsPerHour="327.4094324384897"/>
  <flow id="JF27678" begin="780" fromJunction="J3" toJunction="J4" end="840" vehsPerHour="126.8969234681085"/>
  <flow id="JF27679" begin="780" fromJunction="J3" toJunction="J2" end="840" vehsPerHour="25.13464425412887"/>
  <flow id="JF27680" begin="780" fromJunction="J0" toJunction="J4" end="840" vehsPerHour="53.22927610590303"/>
  <flow id="JF27681" begin="780" fromJunction="J0" toJunction="J2" end="840" vehsPerHour="76.8228323321736"/>
  <flow id="JF27682" begin="780" fromJunction="J4" toJunction="J2" end="840" vehsPerHour="83.51781566902648"/>
  <flow id="JF27683" begin="780" fromJunction="J2" toJunction="J4" end="840" vehsPerHour="130.16071938193167"/>
  <flow id="JF27684" begin="780" fromJunction="J4" toJunction="J3" end="840" vehsPerHour="137.17734813690686"/>
  <flow id="JF27685" begin="780" fromJunction="J4" toJunction="J0" end="840" vehsPerHour="34.8378485448113"/>
  <flow id="JF27686" begin="780" fromJunction="J2" toJunction="J3" end="840" vehsPerHour="78.63399912728858"/>
  <flow id="JF27687" begin="780" fromJunction="J2" toJunction="J0" end="840" vehsPerHour="80.11321439400183"/>
  <flow id="JF27688" begin="840" fromJunction="J3" toJunction="J0" end="900" vehsPerHour="96.56403183511682"/>
  <flow id="JF27689" begin="840" fromJunction="J0" toJunction="J3" end="900" vehsPerHour="401.3109351865326"/>
  <flow id="JF27690" begin="840" fromJunction="J3" toJunction="J4" end="900" vehsPerHour="96.91750447170149"/>
  <flow id="JF27691" begin="840" fromJunction="J3" toJunction="J2" end="900" vehsPerHour="72.99272430640723"/>
  <flow id="JF27692" begin="840" fromJunction="J0" toJunction="J4" end="900" vehsPerHour="6.271322126209684"/>
  <flow id="JF27693" begin="840" fromJunction="J0" toJunction="J2" end="900" vehsPerHour="134.04488555960515"/>
  <flow id="JF27694" begin="840" fromJunction="J4" toJunction="J2" end="900" vehsPerHour="43.10312307694015"/>
  <flow id="JF27695" begin="840" fromJunction="J2" toJunction="J4" end="900" vehsPerHour="67.24967155028352"/>
  <flow id="JF27696" begin="840" fromJunction="J4" toJunction="J3" end="900" vehsPerHour="84.60128143295557"/>
  <flow id="JF27697" begin="840" fromJunction="J4" toJunction="J0" end="900" vehsPerHour="100.56033031658103"/>
  <flow id="JF27698" begin="840" fromJunction="J2" toJunction="J3" end="900" vehsPerHour="0.4664776976586778"/>
  <flow id="JF27699" begin="840" fromJunction="J2" toJunction="J0" end="900" vehsPerHour="116.41611533860672"/>
  <flow id="JF27700" begin="900" fromJunction="J3" toJunction="J0" end="960" vehsPerHour="314.58419788605335"/>
  <flow id="JF27701" begin="900" fromJunction="J0" toJunction="J3" end="960" vehsPerHour="407.6283925347804"/>
  <flow id="JF27702" begin="900" fromJunction="J3" toJunction="J4" end="960" vehsPerHour="35.32281267710397"/>
  <flow id="JF27703" begin="900" fromJunction="J3" toJunction="J2" end="960" vehsPerHour="2.8887396319312515"/>
  <flow id="JF27704" begin="900" fromJunction="J0" toJunction="J4" end="960" vehsPerHour="9.667813642602495"/>
  <flow id="JF27705" begin="900" fromJunction="J0" toJunction="J2" end="960" vehsPerHour="109.53822727436791"/>
  <flow id="JF27706" begin="900" fromJunction="J4" toJunction="J2" end="960" vehsPerHour="86.9537577357685"/>
  <flow id="JF27707" begin="900" fromJunction="J2" toJunction="J4" end="960" vehsPerHour="83.10678522905495"/>
  <flow id="JF27708" begin="900" fromJunction="J4" toJunction="J3" end="960" vehsPerHour="3.2947514577132484"/>
  <flow id="JF27709" begin="900" fromJunction="J4" toJunction="J0" end="960" vehsPerHour="66.99224979388451"/>
  <flow id="JF27710" begin="900" fromJunction="J2" toJunction="J3" end="960" vehsPerHour="92.31409973119356"/>
  <flow id="JF27711" begin="900" fromJunction="J2" toJunction="J0" end="960" vehsPerHour="65.75297575155409"/>
  <flow id="JF27712" begin="960" fromJunction="J3" toJunction="J0" end="1020" vehsPerHour="437.6831860649593"/>
  <flow id="JF27713" begin="960" fromJunction="J0" toJunction="J3" end="1020" vehsPerHour="437.594259323181"/>
  <flow id="JF27714" begin="960" fromJunction="J3" toJunction="J4" end="1020" vehsPerHour="6.209852866485913"/>
  <flow id="JF27715" begin="960" fromJunction="J3" toJunction="J2" end="1020" vehsPerHour="36.07250892000321"/>
  <flow id="JF27716" begin="960" fromJunction="J0" toJunction="J4" end="1020" vehsPerHour="91.67748139782525"/>
  <flow id="JF27717" begin="960" fromJunction="J0" toJunction="J2" end="1020" vehsPerHour="64.38670853197578"/>
  <flow id="JF27718" begin="960" fromJunction="J4" toJunction="J2" end="1020" vehsPerHour="40.63726999960997"/>
  <flow id="JF27719" begin="960" fromJunction="J2" toJunction="J4" end="1020" vehsPerHour="24.764953038820988"/>
  <flow id="JF27720" begin="960" fromJunction="J4" toJunction="J3" end="1020" vehsPerHour="117.37264370402494"/>
  <flow id="JF27721" begin="960" fromJunction="J4" toJunction="J0" end="1020" vehsPerHour="63.757889002827476"/>
  <flow id="JF27722" begin="960" fromJunction="J2" toJunction="J3" end="1020" vehsPerHour="91.07274947343824"/>
  <flow id="JF27723" begin="960" fromJunction="J2" toJunction="J0" end="1020" vehsPerHour="39.36412662694805"/>
  <flow id="JF27724" begin="1020" fromJunction="J3" toJunction="J0" end="1080" vehsPerHour="116.70917600581579"/>
  <flow id="JF27725" begin="1020" fromJunction="J0" toJunction="J3" end="1080" vehsPerHour="440.62039455077183"/>
  <flow id="JF27726" begin="1020" fromJunction="J3" toJunction="J4" end="1080" vehsPerHour="61.86017138272362"/>
  <flow id="JF27727" begin="1020" fromJunction="J3" toJunction="J2" end="1080" vehsPerHour="24.390977215644714"/>
  <flow id="JF27728" begin="1020" fromJunction="J0" toJunction="J4" end="1080" vehsPerHour="83.05414614209464"/>
  <flow id="JF27729" begin="1020" fromJunction="J0" toJunction="J2" end="1080" vehsPerHour="105.87366150335093"/>
  <flow id="JF27730" begin="1080" fromJunction="J3" toJunction="J0" end="1140" vehsPerHour="175.8441335411428"/>
  <flow id="JF27731" begin="1080" fromJunction="J0" toJunction="J3" end="1140" vehsPerHour="100.78702312953556"/>
  <flow id="JF27732" begin="1080" fromJunction="J3" toJunction="J4" end="1140" vehsPerHour="6.829180566582035"/>
  <flow id="JF27733" begin="1080" fromJunction="J3" toJunction="J2" end="1140" vehsPerHour="131.0905609866189"/>
  <flow id="JF27734" begin="1080" fromJunction="J0" toJunction="J4" end="1140" vehsPerHour="119.20634202811523"/>
  <flow id="JF27735" begin="1080" fromJunction="J0" toJunction="J2" end="1140" vehsPerHour="66.58996183034738"/>
  <flow id="JF27736" begin="1080" fromJunction="J4" toJunction="J2" end="1140" vehsPerHour="48.83076298813666"/>
  <flow id="JF27737" begin="1080" fromJunction="J2" toJunction="J4" end="1140" vehsPerHour="126.45071670449646"/>
  <flow id="JF27738" begin="1080" fromJunction="J4" toJunction="J3" end="1140" vehsPerHour="90.90281943861964"/>
  <flow id="JF27739" begin="1080" fromJunction="J4" toJunction="J0" end="1140" vehsPerHour="75.09186239659716"/>
  <flow id="JF27740" begin="1080" fromJunction="J2" toJunction="J3" end="1140" vehsPerHour="40.87422244433753"/>
  <flow id="JF27741" begin="1080" fromJunction="J2" toJunction="J0" end="1140" vehsPerHour="47.53045227932052"/>
  <flow id="JF27742" begin="1140" fromJunction="J3" toJunction="J0" end="1200" vehsPerHour="394.893817163072"/>
  <flow id="JF27743" begin="1140" fromJunction="J0" toJunction="J3" end="1200" vehsPerHour="198.9052748301638"/>
  <flow id="JF27744" begin="1140" fromJunction="J3" toJunction="J4" end="1200" vehsPerHour="7.041942766974152"/>
  <flow id="JF27745" begin="1140" fromJunction="J3" toJunction="J2" end="1200" vehsPerHour="31.855649210481715"/>
  <flow id="JF27746" begin="1140" fromJunction="J0" toJunction="J4" end="1200" vehsPerHour="122.07848970723363"/>
  <flow id="JF27747" begin="1140" fromJunction="J0" toJunction="J2" end="1200" vehsPerHour="97.89436167758704"/>
  <flow id="JF27748" begin="1140" fromJunction="J4" toJunction="J2" end="1200" vehsPerHour="14.483549781493124"/>
  <flow id="JF27749" begin="1140" fromJunction="J2" toJunction="J4" end="1200" vehsPerHour="22.165884440462715"/>
  <flow id="JF27750" begin="1140" fromJunction="J4" toJunction="J3" end="1200" vehsPerHour="0.30039424867367703"/>
  <flow id="JF27751" begin="1140" fromJunction="J4" toJunction="J0" end="1200" vehsPerHour="58.35249476435553"/>
  <flow id="JF27752" begin="1140" fromJunction="J2" toJunction="J3" end="1200" vehsPerHour="97.26057696068906"/>
  <flow id="JF27753" begin="1140" fromJunction="J2" toJunction="J0" end="1200" vehsPerHour="117.20365479651493"/>
  <flow id="JF27754" begin="1200" fromJunction="J3" toJunction="J0" end="1260" vehsPerHour="298.6384686144529"/>
  <flow id="JF27755" begin="1200" fromJunction="J0" toJunction="J3" end="1260" vehsPerHour="240.8221027228522"/>
  <flow id="JF27756" begin="1200" fromJunction="J3" toJunction="J4" end="1260" vehsPerHour="60.9890329948266"/>
  <flow id="JF27757" begin="1200" fromJunction="J3" toJunction="J2" end="1260" vehsPerHour="63.84872922227471"/>
  <flow id="JF27758" begin="1200" fromJunction="J0" toJunction="J4" end="1260" vehsPerHour="109.99671192540768"/>
  <flow id="JF27759" begin="1200" fromJunction="J0" toJunction="J2" end="1260" vehsPerHour="67.61972668825908"/>
  <flow id="JF27760" begin="1260" fromJunction="J3" toJunction="J0" end="1320" vehsPerHour="267.74662451927367"/>
  <flow id="JF27761" begin="1260" fromJunction="J0" toJunction="J3" end="1320" vehsPerHour="224.8389830263793"/>
  <flow id="JF27762" begin="1260" fromJunction="J3" toJunction="J4" end="1320" vehsPerHour="127.50379278474955"/>
  <flow id="JF27763" begin="1260" fromJunction="J3" toJunction="J2" end="1320" vehsPerHour="93.13482262578381"/>
  <flow id="JF27764" begin="1260" fromJunction="J0" toJunction="J4" end="1320" vehsPerHour="45.62774901534948"/>
  <flow id="JF27765" begin="1260" fromJunction="J0" toJunction="J2" end="1320" vehsPerHour="30.856198458010738"/>
  <flow id="JF27766" begin="1260" fromJunction="J4" toJunction="J2" end="1320" vehsPerHour="130.76865714180153"/>
  <flow id="JF27767" begin="1260" fromJunction="J2" toJunction="J4" end="1320" vehsPerHour="74.72678400611183"/>
  <flow id="JF27768" begin="1260" fromJunction="J4" toJunction="J3" end="1320" vehsPerHour="61.960631406293665"/>
  <flow id="JF27769" begin="1260" fromJunction="J4" toJunction="J0" end="1320" vehsPerHour="78.07804759095046"/>
  <flow id="JF27770" begin="1260" fromJunction="J2" toJunction="J3" end="1320" vehsPerHour="90.12834862947803"/>
  <flow id="JF27771" begin="1260" fromJunction="J2" toJunction="J0" end="1320" vehsPerHour="91.86162592541686"/>
  <flow id="JF27772" begin="1320" fromJunction="J3" toJunction="J0" end="1380" vehsPerHour="430.6249528398279"/>
  <flow id="JF27773" begin="1320" fromJunction="J0" toJunction="J3" end="1380" vehsPerHour="333.21489340456196"/>
  <flow id="JF27774" begin="1320" fromJunction="J3" toJunction="J4" end="1380" vehsPerHour="67.37629270398709"/>
  <flow id="JF27775" begin="1320" fromJunction="J3" toJunction="J2" end="1380" vehsPerHour="128.17684713028737"/>
  <flow id="JF27776" begin="1320" fromJunction="J0" toJunction="J4" end="1380" vehsPerHour="83.52785542639039"/>
  <flow id="JF27777" begin="1320" fromJunction="J0" toJunction="J2" end="1380" vehsPerHour="65.81147307028101"/>
  <flow id="JF27778" begin="1320" fromJunction="J4" toJunction="J2" end="1380" vehsPerHour="112.46535229593333"/>
  <flow id="JF27779" begin="1320" fromJunction="J2" toJunction="J4" end="1380" vehsPerHour="117.61598381765533"/>
  <flow id="JF27780" begin="1320" fromJunction="J4" toJunction="J3" end="1380" vehsPerHour="120.79104024138034"/>
  <flow id="JF27781" begin="1320" fromJunction="J4" toJunction="J0" end="1380" vehsPerHour="39.78532434061028"/>
  <flow id="JF27782" begin="1320" fromJunction="J2" toJunction="J3" end="1380" vehsPerHour="63.791258337400315"/>
  <flow id="JF27783" begin="1320" fromJunction="J2" toJunction="J0" end="1380" vehsPerHour="80.92224652301745"/>
  <flow id="JF27784" begin="1380" fromJunction="J3" toJunction="J0" end="1440" vehsPerHour="475.87346295773153"/>
  <flow id="JF27785" begin="1380" fromJunction="J0" toJunction="J3" end="1440" vehsPerHour="290.6481046303895"/>
  <flow id="JF27786" begin="1380" fromJunction="J3" toJunction="J4" end="1440" vehsPerHour="106.46967612067907"/>
  <flow id="JF27787" begin="1380" fromJunction="J3" toJunction="J2" end="1440" vehsPerHour="108.3276671676236"/>
  <flow id="JF27788" begin="1380" fromJunction="J0" toJunction="J4" end="1440" vehsPerHour="63.72365853478234"/>
  <flow id="JF27789" begin="1380" fromJunction="J0" toJunction="J2" end="1440" vehsPerHour="63.44706186428821"/>
  <flow id="JF27790" begin="1380" fromJunction="J4" toJunction="J2" end="1440" vehsPerHour="88.02040396481563"/>
  <flow id="JF27791" begin="1380" fromJunction="J2" toJunction="J4" end="1440" vehsPerHour="113.69244244757044"/>
  <flow id="JF27792" begin="1380" fromJunction="J4" toJunction="J3" end="1440" vehsPerHour="135.68841780364033"/>
  <flow id="JF27793" begin="1380" fromJunction="J4" toJunction="J0" end="1440" vehsPerHour="50.670872002175706"/>
  <flow id="JF27794" begin="1380" fromJunction="J2" toJunction="J3" end="1440" vehsPerHour="14.36907134881522"/>
  <flow id="JF27795" begin="1380" fromJunction="J2" toJunction="J0" end="1440" vehsPerHour="10.527655847775284"/>
  <flow id="JF27796" begin="1440" fromJunction="J3" toJunction="J0" end="1500" vehsPerHour="437.85124121404374"/>
  <flow id="JF27797" begin="1440" fromJunction="J0" toJunction="J3" end="1500" vehsPerHour="305.7107353016426"/>
  <flow id="JF27798" begin="1440" fromJunction="J3" toJunction="J4" end="1500" vehsPerHour="108.81222011581801"/>
  <flow id="JF27799" begin="1440" fromJunction="J3" toJunction="J2" end="1500" vehsPerHour="69.92336921121907"/>
  <flow id="JF27800" begin="1440" fromJunction="J0" toJunction="J4" end="1500" vehsPerHour="23.858875759437232"/>
  <flow id="JF27801" begin="1440" fromJunction="J0" toJunction="J2" end="1500" vehsPerHour="127.45852890068016"/>
  <flow id="JF27802" begin="1500" fromJunction="J3" toJunction="J0" end="1560" vehsPerHour="90.871444457309"/>
  <flow id="JF27803" begin="1500" fromJunction="J0" toJunction="J3" end="1560" vehsPerHour="549.3079346030797"/>
  <flow id="JF27804" begin="1500" fromJunction="J3" toJunction="J4" end="1560" vehsPerHour="126.18243737924189"/>
  <flow id="JF27805" begin="1500" fromJunction="J3" toJunction="J2" end="1560" vehsPerHour="133.76929813062605"/>
  <flow id="JF27806" begin="1500" fromJunction="J0" toJunction="J4" end="1560" vehsPerHour="99.29991517224802"/>
  <flow id="JF27807" begin="1500" fromJunction="J0" toJunction="J2" end="1560" vehsPerHour="15.200588356171137"/>
  <flow id="JF27808" begin="1560" fromJunction="J3" toJunction="J0" end="1620" vehsPerHour="8.625238076120594"/>
  <flow id="JF27809" begin="1560" fromJunction="J0" toJunction="J3" end="1620" vehsPerHour="25.000340981650282"/>
  <flow id="JF27810" begin="1560" fromJunction="J3" toJunction="J4" end="1620" vehsPerHour="6.927112501266757"/>
  <flow id="JF27811" begin="1560" fromJunction="J3" toJunction="J2" end="1620" vehsPerHour="131.66016155564404"/>
  <flow id="JF27812" begin="1560" fromJunction="J0" toJunction="J4" end="1620" vehsPerHour="118.04775254435147"/>
  <flow id="JF27813" begin="1560" fromJunction="J0" toJunction="J2" end="1620" vehsPerHour="24.7703009467345"/>
  <flow id="JF27814" begin="1560" fromJunction="J4" toJunction="J2" end="1620" vehsPerHour="38.10933230479907"/>
  <flow id="JF27815" begin="1560" fromJunction="J2" toJunction="J4" end="1620" vehsPerHour="64.75608667822597"/>
  <flow id="JF27816" begin="1560" fromJunction="J4" toJunction="J3" end="1620" vehsPerHour="123.14505606112458"/>
  <flow id="JF27817" begin="1560" fromJunction="J4" toJunction="J0" end="1620" vehsPerHour="87.84117124117279"/>
  <flow id="JF27818" begin="1560" fromJunction="J2" toJunction="J3" end="1620" vehsPerHour="129.53226347162317"/>
  <flow id="JF27819" begin="1560" fromJunction="J2" toJunction="J0" end="1620" vehsPerHour="86.77023149494961"/>
  <flow id="JF27820" begin="1620" fromJunction="J3" toJunction="J0" end="1680" vehsPerHour="28.961511193768395"/>
  <flow id="JF27821" begin="1620" fromJunction="J0" toJunction="J3" end="1680" vehsPerHour="92.50369015511707"/>
  <flow id="JF27822" begin="1620" fromJunction="J3" toJunction="J4" end="1680" vehsPerHour="74.87956404753974"/>
  <flow id="JF27823" begin="1620" fromJunction="J3" toJunction="J2" end="1680" vehsPerHour="39.9113211175613"/>
  <flow id="JF27824" begin="1620" fromJunction="J0" toJunction="J4" end="1680" vehsPerHour="96.66812292933913"/>
  <flow id="JF27825" begin="1620" fromJunction="J0" toJunction="J2" end="1680" vehsPerHour="26.045943749467757"/>
  <flow id="JF27826" begin="1620" fromJunction="J4" toJunction="J2" end="1680" vehsPerHour="97.64827026029047"/>
  <flow id="JF27827" begin="1620" fromJunction="J2" toJunction="J4" end="1680" vehsPerHour="123.18395346706802"/>