<?xml version="1.0" encoding="UTF-8"?>
<routes xmlns:xsi="http://www.w3.org/2001/XMLSchema-instance" xsi:noNamespaceSchemaLocation="http://sumo.dlr.de/xsd/routes_file.xsd">
  <flow id="JF24142" begin="0" fromJunction="J3" toJunction="J0" end="60" vehsPerHour="419.99952876893303"/>
  <flow id="JF24143" begin="0" fromJunction="J0" toJunction="J3" end="60" vehsPerHour="330.3684033290162"/>
  <flow id="JF24144" begin="0" fromJunction="J3" toJunction="J4" end="60" vehsPerHour="6.14931142217128"/>
  <flow id="JF24145" begin="0" fromJunction="J3" toJunction="J2" end="60" vehsPerHour="89.6435119872803"/>
  <flow id="JF24146" begin="0" fromJunction="J0" toJunction="J4" end="60" vehsPerHour="82.19677928724819"/>
  <flow id="JF24147" begin="0" fromJunction="J0" toJunction="J2" end="60" vehsPerHour="25.321691841396458"/>
  <flow id="JF24148" begin="0" fromJunction="J4" toJunction="J2" end="60" vehsPerHour="127.43267672688613"/>
  <flow id="JF24149" begin="0" fromJunction="J2" toJunction="J4" end="60" vehsPerHour="89.08336168765814"/>
  <flow id="JF24150" begin="0" fromJunction="J4" toJunction="J3" end="60" vehsPerHour="24.893424263004373"/>
  <flow id="JF24151" begin="0" fromJunction="J4" toJunction="J0" end="60" vehsPerHour="50.66530688764711"/>
  <flow id="JF24152" begin="0" fromJunction="J2" toJunction="J3" end="60" vehsPerHour="93.25696701289795"/>
  <flow id="JF24153" begin="0" fromJunction="J2" toJunction="J0" end="60" vehsPerHour="104.70619567403043"/>
  <flow id="JF24154" begin="60" fromJunction="J3" toJunction="J0" end="120" vehsPerHour="336.2970049734523"/>
  <flow id="JF24155" begin="60" fromJunction="J0" toJunction="J3" end="120" vehsPerHour="372.0288683244506"/>
  <flow id="JF24156" begin="60" fromJunction="J3" toJunction="J4" end="120" vehsPerHour="67.89521847620097"/>
  <flow id="JF24157" begin="60" fromJunction="J3" toJunction="J2" end="120" vehsPerHour="95.37099807023823"/>
  <flow id="JF24158" begin="60" fromJunction="J0" toJunction="J4" end="120" vehsPerHour="119.95717591666244"/>
  <flow id="JF24159" begin="60" fromJunction="J0" toJunction="J2" end="120" vehsPerHour="109.86646710150353"/>
  <flow id="JF24160" begin="60" fromJunction="J4" toJunction="J2" end="120" vehsPerHour="93.00081751567784"/>
  <flow id="JF24161" begin="60" fromJunction="J2" toJunction="J4" end="120" vehsPerHour="60.19383525678428"/>
  <flow id="JF24162" begin="60" fromJunction="J4" toJunction="J3" end="120" vehsPerHour="84.03772628308204"/>
  <flow id="JF24163" begin="60" fromJunction="J4" toJunction="J0" end="120" vehsPerHour="134.6638861341388"/>
  <flow id="JF24164" begin="60" fromJunction="J2" toJunction="J3" end="120" vehsPerHour="15.647432872953758"/>
  <flow id="JF24165" begin="60" fromJunction="J2" toJunction="J0" end="120" vehsPerHour="37.485731781680045"/>
  <flow id="JF24166" begin="120" fromJunction="J3" toJunction="J0" end="180" vehsPerHour="94.97333374766303"/>
  <flow id="JF24167" begin="120" fromJunction="J0" toJunction="J3" end="180" vehsPerHour="451.75220840134375"/>
  <flow id="JF24168" begin="120" fromJunction="J3" toJunction="J4" end="180" vehsPerHour="97.64340220364866"/>
  <flow id="JF24169" begin="120" fromJunction="J3" toJunction="J2" end="180" vehsPerHour="36.73671213655958"/>
  <flow id="JF24170" begin="120" fromJunction="J0" toJunction="J4" end="180" vehsPerHour="134.61233812769132"/>
  <flow id="JF24171" begin="120" fromJunction="J0" toJunction="J2" end="180" vehsPerHour="103.70207089574527"/>
  <flow id="JF24172" begin="120" fromJunction="J4" toJunction="J2" end="180" vehsPerHour="47.79130044750966"/>
  <flow id="JF24173" begin="120" fromJunction="J2" toJunction="J4" end="180" vehsPerHour="85.4716919937164"/>
  <flow id="JF24174" begin="120" fromJunction="J4" toJunction="J3" end="180" vehsPerHour="41.98547860403253"/>
  <flow id="JF24175" begin="120" fromJunction="J4" toJunction="J0" end="180" vehsPerHour="127.26127493586253"/>
  <flow id="JF24176" begin="120" fromJunction="J2" toJunction="J3" end="180" vehsPerHour="26.754947455046814"/>
  <flow id="JF24177" begin="120" fromJunction="J2" toJunction="J0" end="180" vehsPerHour="32.352495757132154"/>
  <flow id="JF24178" begin="180" fromJunction="J3" toJunction="J0" end="240" vehsPerHour="238.11298288479065"/>
  <flow id="JF24179" begin="180" fromJunction="J0" toJunction="J3" end="240" vehsPerHour="504.42618682221547"/>
  <flow id="JF24180" begin="180" fromJunction="J3" toJunction="J4" end="240" vehsPerHour="10.620157978265738"/>
  <flow id="JF24181" begin="180" fromJunction="J3" toJunction="J2" end="240" vehsPerHour="37.12734970692815"/>
  <flow id="JF24182" begin="180" fromJunction="J0" toJunction="J4" end="240" vehsPerHour="15.931678310680661"/>
  <flow id="JF24183" begin="180" fromJunction="J0" toJunction="J2" end="240" vehsPerHour="39.038158494002836"/>
  <flow id="JF24184" begin="180" fromJunction="J4" toJunction="J2" end="240" vehsPerHour="109.41491563020524"/>
  <flow id="JF24185" begin="180" fromJunction="J2" toJunction="J4" end="240" vehsPerHour="96.50763188889032"/>
  <flow id="JF24186" begin="180" fromJunction="J4" toJunction="J3" end="240" vehsPerHour="80.43620486713793"/>
  <flow id="JF24187" begin="180" fromJunction="J4" toJunction="J0" end="240" vehsPerHour="53.45762858546368"/>
  <flow id="JF24188" begin="180" fromJunction="J2" toJunction="J3" end="240" vehsPerHour="46.78850878871603"/>
  <flow id="JF24189" begin="180" fromJunction="J2" toJunction="J0" end="240" vehsPerHour="76.63831894170791"/>
  <flow id="JF24190" begin="240" fromJunction="J3" toJunction="J0" end="300" vehsPerHour="64.93384102628649"/>
  <flow id="JF24191" begin="240" fromJunction="J0" toJunction="J3" end="300" vehsPerHour="202.2362445058413"/>
  <flow id="JF24192" begin="240" fromJunction="J3" toJunction="J4" end="300" vehsPerHour="120.32316219525696"/>
  <flow id="JF24193" begin="240" fromJunction="J3" toJunction="J2" end="300" vehsPerHour="64.52363721194452"/>
  <flow id="JF24194" begin="240" fromJunction="J0" toJunction="J4" end="300" vehsPerHour="15.083075352399222"/>
  <flow id="JF24195" begin="240" fromJunction="J0" toJunction="J2" end="300" vehsPerHour="110.84789343204663"/>
  <flow id="JF24196" begin="240" fromJunction="J4" toJunction="J2" end="300" vehsPerHour="92.4715582755064"/>
  <flow id="JF24197" begin="240" fromJunction="J2" toJunction="J4" end="300" vehsPerHour="49.0215948911448"/>
  <flow id="JF24198" begin="240" fromJunction="J4" toJunction="J3" end="300" vehsPerHour="38.57829937591579"/>
  <flow id="JF24199" begin="240" fromJunction="J4" toJunction="J0" end="300" vehsPerHour="133.0187060544426"/>
  <flow id="JF24200" begin="240" fromJunction="J2" toJunction="J3" end="300" vehsPerHour="18.258218924285433"/>
  <flow id="JF24201" begin="240" fromJunction="J2" toJunction="J0" end="300" vehsPerHour="132.87849836504338"/>
  <flow id="JF24202" begin="300" fromJunction="J3" toJunction="J0" end="360" vehsPerHour="120.90055029986833"/>
  <flow id="JF24203" begin="300" fromJunction="J0" toJunction="J3" end="360" vehsPerHour="5.413233998401829"/>
  <flow id="JF24204" begin="300" fromJunction="J3" toJunction="J4" end="360" vehsPerHour="64.63197057807788"/>
  <flow id="JF24205" begin="300" fromJunction="J3" toJunction="J2" end="360" vehsPerHour="114.79459117066278"/>
  <flow id="JF24206" begin="300" fromJunction="J0" toJunction="J4" end="360" vehsPerHour="125.60606786707056"/>
  <flow id="JF24207" begin="300" fromJunction="J0" toJunction="J2" end="360" vehsPerHour="16.259640735147467"/>
  <flow id="JF24208" begin="300" fromJunction="J4" toJunction="J2" end="360" vehsPerHour="95.09013346209673"/>
  <flow id="JF24209" begin="300" fromJunction="J2" toJunction="J4" end="360" vehsPerHour="6.366804490069694"/>
  <flow id="JF24210" begin="300" fromJunction="J4" toJunction="J3" end="360" vehsPerHour="30.651976762352202"/>
  <flow id="JF24211" begin="300" fromJunction="J4" toJunction="J0" end="360" vehsPerHour="19.654083715242166"/>
  <flow id="JF24212" begin="300" fromJunction="J2" toJunction="J3" end="360" vehsPerHour="98.17537488251847"/>
  <flow id="JF24213" begin="300" fromJunction="J2" toJunction="J0" end="360" vehsPerHour="14.160042587322831"/>
  <flow id="JF24214" begin="360" fromJunction="J3" toJunction="J0" end="420" vehsPerHour="444.62639728808335"/>
  <flow id="JF24215" begin="360" fromJunction="J0" toJunction="J3" end="420" vehsPerHour="451.90755386482635"/>
  <flow id="JF24216" begin="360" fromJunction="J3" toJunction="J4" end="420" vehsPerHour="46.222869751933345"/>
  <flow id="JF24217" begin="360" fromJunction="J3" toJunction="J2" end="420" vehsPerHour="100.46794183516909"/>
  <flow id="JF24218" begin="360" fromJunction="J0" toJunction="J4" end="420" vehsPerHour="92.26114934497433"/>
  <flow id="JF24219" begin="360" fromJunction="J0" toJunction="J2" end="420" vehsPerHour="30.70129989461216"/>
  <flow id="JF24220" begin="360" fromJunction="J4" toJunction="J2" end="420" vehsPerHour="119.49357727108462"/>
  <flow id="JF24221" begin="360" fromJunction="J2" toJunction="J4" end="420" vehsPerHour="102.32856890692743"/>
  <flow id="JF24222" begin="360" fromJunction="J4" toJunction="J3" end="420" vehsPerHour="83.2853978967637"/>
  <flow id="JF24223" begin="360" fromJunction="J4" toJunction="J0" end="420" vehsPerHour="136.29780706402403"/>
  <flow id="JF24224" begin="360" fromJunction="J2" toJunction="J3" end="420" vehsPerHour="82.96085234573"/>
  <flow id="JF24225" begin="360" fromJunction="J2" toJunction="J0" end="420" vehsPerHour="82.82654221588149"/>
  <flow id="JF24226" begin="420" fromJunction="J3" toJunction="J0" end="480" vehsPerHour="0.0332921995794635"/>
  <flow id="JF24227" begin="420" fromJunction="J0" toJunction="J3" end="480" vehsPerHour="313.80062888688013"/>
  <flow id="JF24228" begin="420" fromJunction="J3" toJunction="J4" end="480" vehsPerHour="134.9081568957017"/>
  <flow id="JF24229" begin="420" fromJunction="J3" toJunction="J2" end="480" vehsPerHour="30.42273688665875"/>
  <flow id="JF24230" begin="420" fromJunction="J0" toJunction="J4" end="480" vehsPerHour="86.97221707247346"/>
  <flow id="JF24231" begin="420" fromJunction="J0" toJunction="J2" end="480" vehsPerHour="37.12820330222135"/>
  <flow id="JF24232" begin="420" fromJunction="J4" toJunction="J2" end="480" vehsPerHour="96.41311481592376"/>
  <flow id="JF24233" begin="420" fromJunction="J2" toJunction="J4" end="480" vehsPerHour="17.973479651197618"/>
  <flow id="JF24234" begin="420" fromJunction="J4" toJunction="J3" end="480" vehsPerHour="85.2144492233547"/>
  <flow id="JF24235" begin="420" fromJunction="J4" toJunction="J0" end="480" vehsPerHour="24.027415131568045"/>
  <flow id="JF24236" begin="420" fromJunction="J2" toJunction="J3" end="480" vehsPerHour="106.56365170278437"/>
  <flow id="JF24237" begin="420" fromJunction="J2" toJunction="J0" end="480" vehsPerHour="28.967295030222864"/>
  <flow id="JF24238" begin="480" fromJunction="J3" toJunction="J0" end="540" vehsPerHour="52.26313709419513"/>
  <flow id="JF24239" begin="480" fromJunction="J0" toJunction="J3" end="540" vehsPerHour="262.98195170712586"/>
  <flow id="JF24240" begin="480" fromJunction="J3" toJunction="J4" end="540" vehsPerHour="2.9926637985227136"/>
  <flow id="JF24241" begin="480" fromJunction="J3" toJunction="J2" end="540" vehsPerHour="61.94082848665464"/>
  <flow id="JF24242" begin="480" fromJunction="J0" toJunction="J4" end="540" vehsPerHour="7.716115161253981"/>
  <flow id="JF24243" begin="480" fromJunction="J0" toJunction="J2" end="540" vehsPerHour="102.40609794791361"/>
  <flow id="JF24244" begin="480" fromJunction="J4" toJunction="J2" end="540" vehsPerHour="63.97078444780502"/>
  <flow id="JF24245" begin="480" fromJunction="J2" toJunction="J4" end="540" vehsPerHour="70.16082010882346"/>
  <flow id="JF24246" begin="480" fromJunction="J4" toJunction="J3" end="540" vehsPerHour="120.309344346478"/>
  <flow id="JF24247" begin="480" fromJunction="J4" toJunction="J0" end="540" vehsPerHour="5.688213076784034"/>
  <flow id="JF24248" begin="480" fromJunction="J2" toJunction="J3" end="540" vehsPerHour="133.82077339961876"/>
  <flow id="JF24249" begin="480" fromJunction="J2" toJunction="J0" end="540" vehsPerHour="123.10856963487853"/>
  <flow id="JF24250" begin="540" fromJunction="J3" toJunction="J0" end="600" vehsPerHour="48.473251871406944"/>
  <flow id="JF24251" begin="540" fromJunction="J0" toJunction="J3" end="600" vehsPerHour="465.2878553698463"/>
  <flow id="JF24252" begin="540" fromJunction="J3" toJunction="J4" end="600" vehsPerHour="9.543477358926198"/>
  <flow id="JF24253" begin="540" fromJunction="J3" toJunction="J2" end="600" vehsPerHour="58.01749362731851"/>
  <flow id="JF24254" begin="540" fromJunction="J0" toJunction="J4" end="600" vehsPerHour="68.13274461398437"/>
  <flow id="JF24255" begin="540" fromJunction="J0" toJunction="J2" end="600" vehsPerHour="30.39311929374182"/>
  <flow id="JF24256" begin="540" fromJunction="J4" toJunction="J2" end="600" vehsPerHour="120.64091948666122"/>
  <flow id="JF24257" begin="540" fromJunction="J2" toJunction="J4" end="600" vehsPerHour="55.85141851219489"/>
  <flow id="JF24258" begin="540" fromJunction="J4" toJunction="J3" end="600" vehsPerHour="28.31586557946848"/>
  <flow id="JF24259" begin="540" fromJunction="J4" toJunction="J0" end="600" vehsPerHour="91.65223451532123"/>
  <flow id="JF24260" begin="540" fromJunction="J2" toJunction="J3" end="600" vehsPerHour="43.40864110212385"/>
  <flow id="JF24261" begin="540" fromJunction="J2" toJunction="J0" end="600" vehsPerHour="61.130833131353135"/>
  <flow id="JF24262" begin="600" fromJunction="J3" toJunction="J0" end="660" vehsPerHour="156.4217857572993"/>
  <flow id="JF24263" begin="600" fromJunction="J0" toJunction="J3" end="660" vehsPerHour="357.88997012928877"/>
  <flow id="JF24264" begin="600" fromJunction="J3" toJunction="J4" end="660" vehsPerHour="132.06089804458563"/>
  <flow id="JF24265" begin="600" fromJunction="J3" toJunction="J2" end="660" vehsPerHour="92.04275584432229"/>
  <flow id="JF24266" begin="600" fromJunction="J0" toJunction="J4" end="660" vehsPerHour="85.90647102014636"/>
  <flow id="JF24267" begin="600" fromJunction="J0" toJunction="J2" end="660" vehsPerHour="23.27389994079422"/>
  <flow id="JF24268" begin="600" fromJunction="J4" toJunction="J2" end="660" vehsPerHour="74.6066398703841"/>
  <flow id="JF24269" begin="600" fromJunction="J2" toJunction="J4" end="660" vehsPerHour="12.320792008955493"/>
  <flow id="JF24270" begin="600" fromJunction="J4" toJunction="J3" end="660" vehsPerHour="10.155899638337592"/>
  <flow id="JF24271" begin="600" fromJunction="J4" toJunction="J0" end="660" vehsPerHour="15.435758002900295"/>
  <flow id="JF24272" begin="600" fromJunction="J2" toJunction="J3" end="660" vehsPerHour="123.94176907068547"/>
  <flow id="JF24273" begin="600" fromJunction="J2" toJunction="J0" end="660" vehsPerHour="89.73265825318202"/>
  <flow id="JF24274" begin="660" fromJunction="J3" toJunction="J0" end="720" vehsPerHour="86.52961944585911"/>
  <flow id="JF24275" begin="660" fromJunction="J0" toJunction="J3" end="720" vehsPerHour="233.1032356325041"/>
  <flow id="JF24276" begin="660" fromJunction="J3" toJunction="J4" end="720" vehsPerHour="15.595348937889117"/>
  <flow id="JF24277" begin="660" fromJunction="J3" toJunction="J2" end="720" vehsPerHour="5.324819129048572"/>
  <flow id="JF24278" begin="660" fromJunction="J0" toJunction="J4" end="720" vehsPerHour="46.70974178663636"/>
  <flow id="JF24279" begin="660" fromJunction="J0" toJunction="J2" end="720" vehsPerHour="70.08070226503372"/>
  <flow id="JF24280" begin="720" fromJunction="J3" toJunction="J0" end="780" vehsPerHour="337.4434235617169"/>
  <flow id="JF24281" begin="720" fromJunction="J0" toJunction="J3" end="780" vehsPerHour="39.98792791828469"/>
  <flow id="JF24282" begin="720" fromJunction="J3" toJunction="J4" end="780" vehsPerHour="31.06578922131216"/>
  <flow id="JF24283" begin="720" fromJunction="J3" toJunction="J2" end="780" vehsPerHour="40.688411402014594"/>
  <flow id="JF24284" begin="720" fromJunction="J0" toJunction="J4" end="780" vehsPerHour="105.25148040694903"/>
  <flow id="JF24285" begin="720" fromJunction="J0" toJunction="J2" end="780" vehsPerHour="46.11435560448069"/>
  <flow id="JF24286" begin="720" fromJunction="J4" toJunction="J2" end="780" vehsPerHour="3.4303057565125163"/>
  <flow id="JF24287" begin="720" fromJunction="J2" toJunction="J4" end="780" vehsPerHour="7.978065857124028"/>
  <flow id="JF24288" begin="720" fromJunction="J4" toJunction="J3" end="780" vehsPerHour="4.010217850747669"/>
  <flow id="JF24289" begin="720" fromJunction="J4" toJunction="J0" end="780" vehsPerHour="21.3503579212856"/>
  <flow id="JF24290" begin="720" fromJunction="J2" toJunction="J3" end="780" vehsPerHour="68.12418018629901"/>
  <flow id="JF24291" begin="720" fromJunction="J2" toJunction="J0" end="780" vehsPerHour="43.36310561070254"/>
  <flow id="JF24292" begin="780" fromJunction="J3" toJunction="J0" end="840" vehsPerHour="498.2396374611264"/>
  <flow id="JF24293" begin="780" fromJunction="J0" toJunction="J3" end="840" vehsPerHour="360.21222135468594"/>
  <flow id="JF24294" begin="780" fromJunction="J3" toJunction="J4" end="840" vehsPerHour="129.56813980363316"/>
  <flow id="JF24295" begin="780" fromJunction="J3" toJunction="J2" end="840" vehsPerHour="117.21679422477446"/>
  <flow id="JF24296" begin="780" fromJunction="J0" toJunction="J4" end="840" vehsPerHour="32.89007053900462"/>
  <flow id="JF24297" begin="780" fromJunction="J0" toJunction="J2" end="840" vehsPerHour="82.44435229602112"/>
  <flow id="JF24298" begin="780" fromJunction="J4" toJunction="J2" end="840" vehsPerHour="83.07773526653096"/>
  <flow id="JF24299" begin="780" fromJunction="J2" toJunction="J4" end="840" vehsPerHour="129.02213284600012"/>
  <flow id="JF24300" begin="780" fromJunction="J4" toJunction="J3" end="840" vehsPerHour="71.10289442978629"/>
  <flow id="JF24301" begin="780" fromJunction="J4" toJunction="J0" end="840" vehsPerHour="27.43564823975374"/>
  <flow id="JF24302" begin="780" fromJunction="J2" toJunction="J3" end="840" vehsPerHour="79.80677722758608"/>
  <flow id="JF24303" begin="780" fromJunction="J2" toJunction="J0" end="840" vehsPerHour="106.71699246481303"/>
  <flow id="JF24304" begin="840" fromJunction="J3" toJunction="J0" end="900" vehsPerHour="229.14012014284214"/>
  <flow id="JF24305" begin="840" fromJunction="J0" toJunction="J3" end="900" vehsPerHour="536.9806462129841"/>
  <flow id="JF24306" begin="840" fromJunction="J3" toJunction="J4" end="900" vehsPerHour="96.42012027805274"/>
  <flow id="JF24307" begin="840" fromJunction="J3" toJunction="J2" end="900" vehsPerHour="29.44329874261072"/>
  <flow id="JF24308" begin="840" fromJunction="J0" toJunction="J4" end="900" vehsPerHour="115.83543059299372"/>
  <flow id="JF24309" begin="840" fromJunction="J0" toJunction="J2" end="900" vehsPerHour="19.30573902106308"/>
  <flow id="JF24310" begin="840" fromJunction="J4" toJunction="J2" end="900" vehsPerHour="82.41577409066964"/>
  <flow id="JF24311" begin="840" fromJunction="J2" toJunction="J4" end="900" vehsPerHour="123.87887818009142"/>
  <flow id="JF24312" begin="840" fromJunction="J4" toJunction="J3" end="900" vehsPerHour="108.53886916259033"/>
  <flow id="JF24313" begin="840" fromJunction="J4" toJunction="J0" end="900" vehsPerHour="0.49498001935940455"/>
  <flow id="JF24314" begin="840" fromJunction="J2" toJunction="J3" end="900" vehsPerHour="1.0988259882157685"/>
  <flow id="JF24315" begin="840" fromJunction="J2" toJunction="J0" end="900" vehsPerHour="41.98189988735295"/>
  <flow id="JF24316" begin="900" fromJunction="J3" toJunction="J0" end="960" vehsPerHour="16.235661449623535"/>
  <flow id="JF24317" begin="900" fromJunction="J0" toJunction="J3" end="960" vehsPerHour="367.9005453348813"/>
  <flow id="JF24318" begin="900" fromJunction="J3" toJunction="J4" end="960" vehsPerHour="91.97558865143037"/>
  <flow id="JF24319" begin="900" fromJunction="J3" toJunction="J2" end="960" vehsPerHour="117.06454078536099"/>
  <flow id="JF24320" begin="900" fromJunction="J0" toJunction="J4" end="960" vehsPerHour="69.34324523225773"/>
  <flow id="JF24321" begin="900" fromJunction="J0" toJunction="J2" end="960" vehsPerHour="79.97940436561639"/>
  <flow id="JF24322" begin="960" fromJunction="J3" toJunction="J0" end="1020" vehsPerHour="483.4832494048025"/>
  <flow id="JF24323" begin="960" fromJunction="J0" toJunction="J3" end="1020" vehsPerHour="33.567434108168406"/>
  <flow id="JF24324" begin="960" fromJunction="J3" toJunction="J4" end="1020" vehsPerHour="98.60583561258646"/>
  <flow id="JF24325" begin="960" fromJunction="J3" toJunction="J2" end="1020" vehsPerHour="79.15813622597896"/>
  <flow id="JF24326" begin="960" fromJunction="J0" toJunction="J4" end="1020" vehsPerHour="35.7742933421588"/>
  <flow id="JF24327" begin="960" fromJunction="J0" toJunction="J2" end="1020" vehsPerHour="17.958836188731457"/>
  <flow id="JF24328" begin="1020" fromJunction="J3" toJunction="J0" end="1080" vehsPerHour="313.66489999219266"/>
  <flow id="JF24329" begin="1020" fromJunction="J0" toJunction="J3" end="1080" vehsPerHour="299.7498338861453"/>
  <flow id="JF24330" begin="1020" fromJunction="J3" toJunction="J4" end="1080" vehsPerHour="80.81309671425947"/>
  <flow id="JF24331" begin="1020" fromJunction="J3" toJunction="J2" end="1080" vehsPerHour="75.84009181334567"/>
  <flow id="JF24332" begin="1020" fromJunction="J0" toJunction="J4" end="1080" vehsPerHour="61.48100004198194"/>
  <flow id="JF24333" begin="1020" fromJunction="J0" toJunction="J2" end="1080" vehsPerHour="96.04191392138043"/>
  <flow id="JF24334" begin="1020" fromJunction="J4" toJunction="J2" end="1080" vehsPerHour="124.49546381598687"/>
  <flow id="JF24335" begin="1020" fromJunction="J2" toJunction="J4" end="1080" vehsPerHour="14.529234744514007"/>
  <flow id="JF24336" begin="1020" fromJunction="J4" toJunction="J3" end="1080" vehsPerHour="61.71574492247027"/>
  <flow id="JF24337" begin="1020" fromJunction="J4" toJunction="J0" end="1080" vehsPerHour="43.09202499011302"/>
  <flow id="JF24338" begin="1020" fromJunction="J2" toJunction="J3" end="1080" vehsPerHour="10.400764179557113"/>
  <flow id="JF24339" begin="1020" fromJunction="J2" toJunction="J0" end="1080" vehsPerHour="49.435512869675975"/>
  <flow id="JF24340" begin="1080" fromJunction="J3" toJunction="J0" end="1140" vehsPerHour="267.4448965446766"/>
  <flow id="JF24341" begin="1080" fromJunction="J0" toJunction="J3" end="1140" vehsPerHour="379.96462719638646"/>
  <flow id="JF24342" begin="1080" fromJunction="J3" toJunction="J4" end="1140" vehsPerHour="64.25954354699368"/>
  <flow id="JF24343" begin="1080" fromJunction="J3" toJunction="J2" end="1140" vehsPerHour="57.89910377968878"/>
  <flow id="JF24344" begin="1080" fromJunction="J0" toJunction="J4" end="1140" vehsPerHour="7.739302735380378"/>
  <flow id="JF24345" begin="1080" fromJunction="J0" toJunction="J2" end="1140" vehsPerHour="68.56618135876533"/>
  <flow id="JF24346" begin="1080" fromJunction="J4" toJunction="J2" end="1140" vehsPerHour="16.533290078070507"/>
  <flow id="JF24347" begin="1080" fromJunction="J2" toJunction="J4" end="1140" vehsPerHour="68.53550889332907"/>
  <flow id="JF24348" begin="1080" fromJunction="J4" toJunction="J3" end="1140" vehsPerHour="75.26295381120345"/>
  <flow id="JF24349" begin="1080" fromJunction="J4" toJunction="J0" end="1140" vehsPerHour="88.15143351257052"/>
  <flow id="JF24350" begin="1080" fromJunction="J2" toJunction="J3" end="1140" vehsPerHour="56.674021325157156"/>
  <flow id="JF24351" begin="1080" fromJunction="J2" toJunction="J0" end="1140" vehsPerHour="54.5885511781922"/>
  <flow id="JF24352" begin="1140" fromJunction="J3" toJunction="J0" end="1200" vehsPerHour="216.33944863915661"/>
  <flow id="JF24353" begin="1140" fromJunction="J0" toJunction="J3" end="1200" vehsPerHour="421.98262732151824"/>
  <flow id="JF24354" begin="1140" fromJunction="J3" toJunction="J4" end="1200" vehsPerHour="79.6276424735542"/>
  <flow id="JF24355" begin="1140" fromJunction="J3" toJunction="J2" end="1200" vehsPerHour="18.005061884387644"/>
  <flow id="JF24356" begin="1140" fromJunction="J0" toJunction="J4" end="1200" vehsPerHour="44.46673509685541"/>
  <flow id="JF24357" begin="1140" fromJunction="J0" toJunction="J2" end="1200" vehsPerHour="37.86992829949089"/>
  <flow id="JF24358" begin="1140" fromJunction="J4" toJunction="J2" end="1200" vehsPerHour="109.32008793283677"/>
  <flow id="JF24359" begin="1140" fromJunction="J2" toJunction="J4" end="1200" vehsPerHour="30.072231824144534"/>
  <flow id="JF24360" begin="1140" fromJunction="J4" toJunction="J3" end="1200" vehsPerHour="82.643204913537"/>
  <flow id="JF24361" begin="1140" fromJunction="J4" toJunction="J0" end="1200" vehsPerHour="137.2127994377553"/>
  <flow id="JF24362" begin="1140" fromJunction="J2" toJunction="J3" end="1200" vehsPerHour="31.524948563775084"/>
  <flow id="JF24363" begin="1140" fromJunction="J2" toJunction="J0" end="1200" vehsPerHour="65.4558166558822"/>
  <flow id="JF24364" begin="1200" fromJunction="J3" toJunction="J0" end="1260" vehsPerHour="131.99836851158943"/>
  <flow id="JF24365" begin="1200" fromJunction="J0" toJunction="J3" end="1260" vehsPerHour="215.71506319896835"/>
  <flow id="JF24366" begin="1200" fromJunction="J3" toJunction="J4" end="1260" vehsPerHour="37.20158324804169"/>
  <flow id="JF24367" begin="1200" fromJunction="J3" toJunction="J2" end="1260" vehsPerHour="86.76880501000613"/>
  <flow id="JF24368" begin="1200" fromJunction="J0" toJunction="J4" end="1260" vehsPerHour="5.285224838030814"/>
  <flow id="JF24369" begin="1200" fromJunction="J0" toJunction="J2" end="1260" vehsPerHour="118.93943949448742"/>
  <flow id="JF24370" begin="1260" fromJunction="J3" toJunction="J0" end="1320" vehsPerHour="182.5649118118667"/>
  <flow id="JF24371" begin="1260" fromJunction="J0" toJunction="J3" end="1320" vehsPerHour="181.65889875988776"/>
  <flow id="JF24372" begin="1260" fromJunction="J3" toJunction="J4" end="1320" vehsPerHour="74.25191597470052"/>
  <flow id="JF24373" begin="1260" fromJunction="J3" toJunction="J2" end="1320" vehsPerHour="90.50590640756302"/>
  <flow id="JF24374" begin="1260" fromJunction="J0" toJunction="J4" end="1320" vehsPerHour="53.87615826997126"/>
  <flow id="JF24375" begin="1260" fromJunction="J0" toJunction="J2" end="1320" vehsPerHour="48.92323569965947"/>
  <flow id="JF24376" begin="1260" fromJunction="J4" toJunction="J2" end="1320" vehsPerHour="79.64947753090392"/>
  <flow id="JF24377" begin="1260" fromJunction="J2" toJunction="J4" end="1320" vehsPerHour="14.81047465929861"/>
  <flow id="JF24378" begin="1260" fromJunction="J4" toJunction="J3" end="1320" vehsPerHour="117.71898112367104"/>
  <flow id="JF24379" begin="1260" fromJunction="J4" toJunction="J0" end="1320" vehsPerHour="3.8466459445369185"/>
  <flow id="JF24380" begin="1260" fromJunction="J2" toJunction="J3" end="1320" vehsPerHour="45.01252892053127"/>
  <flow id="JF24381" begin="1260" fromJunction="J2" toJunction="J0" end="1320" vehsPerHour="32.964601841521706"/>
  <flow id="JF24382" begin="1320" fromJunction="J3" toJunction="J0" end="1380" vehsPerHour="209.2622028660637"/>
  <flow id="JF24383" begin="1320" fromJunction="J0" toJunction="J3" end="1380" vehsPerHour="520.6470936018989"/>
  <flow id="JF24384" begin="1320" fromJunction="J3" toJunction="J4" end="1380" vehsPerHour="82.20856214460004"/>
  <flow id="JF24385" begin="1320" fromJunction="J3" toJunction="J2" end="1380" vehsPerHour="42.338868004094515"/>
  <flow id="JF24386" begin="1320" fromJunction="J0" toJunction="J4" end="1380" vehsPerHour="72.21456469766242"/>
  <flow id="JF24387" begin="1320" fromJunction="J0" toJunction="J2" end="1380" vehsPerHour="111.40241936101184"/>
  <flow id="JF24388" begin="1320" fromJunction="J4" toJunction="J2" end="1380" vehsPerHour="8.787569013505465"/>
  <flow id="JF24389" begin="1320" fromJunction="J2" toJunction="J4" end="1380" vehsPerHour="39.17726597860187"/>
  <flow id="JF24390" begin="1320" fromJunction="J4" toJunction="J3" end="1380" vehsPerHour="33.48373850316372"/>
  <flow id="JF24391" begin="1320" fromJunction="J4" toJunction="J0" end="1380" vehsPerHour="17.78034918104454"/>
  <flow id="JF24392" begin="1320" fromJunction="J2" toJunction="J3" end="1380" vehsPerHour="88.52804645342789"/>
  <flow id="JF24393" begin="1320" fromJunction="J2" toJunction="J0" end="1380" vehsPerHour="12.851741927302154"/>
  <flow id="JF24394" begin="1380" fromJunction="J3" toJunction="J0" end="1440" vehsPerHour="539.6589631374939"/>
  <flow id="JF24395" begin="1380" fromJunction="J0" toJunction="J3" end="1440" vehsPerHour="146.09019010396355"/>
  <flow id="JF24396" begin="1380" fromJunction="J3" toJunction="J4" end="1440" vehsPerHour="34.91573031951914"/>
  <flow id="JF24397" begin="1380" fromJunction="J3" toJunction="J2" end="1440" vehsPerHour="90.55906307894922"/>
  <flow id="JF24398" begin="1380" fromJunction="J0" toJunction="J4" end="1440" vehsPerHour="52.4221395470905"/>
  <flow id="JF24399" begin="1380" fromJunction="J0" toJunction="J2" end="1440" vehsPerHour="123.37973010950289"/>
  <flow id="JF24400" begin="1380" fromJunction="J4" toJunction="J2" end="1440" vehsPerHour="11.543214453399267"/>
  <flow id="JF24401" begin="1380" fromJunction="J2" toJunction="J4" end="1440" vehsPerHour="91.7870561969192"/>
  <flow id="JF24402" begin="1380" fromJunction="J4" toJunction="J3" end="1440" vehsPerHour="43.21094835351969"/>
  <flow id="JF24403" begin="1380" fromJunction="J4" toJunction="J0" end="1440" vehsPerHour="106.2325829067346"/>
  <flow id="JF24404" begin="1380" fromJunction="J2" toJunction="J3" end="1440" vehsPerHour="122.1812170697989"/>
  <flow id="JF24405" begin="1380" fromJunction="J2" toJunction="J0" end="1440" vehsPerHour="93.45507048568771"/>
  <flow id="JF24406" begin="1440" fromJunction="J3" toJunction="J0" end="1500" vehsPerHour="413.33727567658946"/>
  <flow id="JF24407" begin="1440" fromJunction="J0" toJunction="J3" end="1500" vehsPerHour="128.10903088803911"/>