<?xml version="1.0" encoding="UTF-8"?>
<routes xmlns:xsi="http://www.w3.org/2001/XMLSchema-instance" xsi:noNamespaceSchemaLocation="http://sumo.dlr.de/xsd/routes_file.xsd">
  <flow id="JF300" begin="0" fromJunction="J3" toJunction="J0" end="3600" vehsPerHour="109.92000000000002"/>
  <flow id="JF301" begin="0" fromJunction="J3" toJunction="J4" end="3600" vehsPerHour="109.92000000000002"/>
  <flow id="JF302" begin="0" fromJunction="J3" toJunction="J5" end="3600" vehsPerHour="109.92000000000002"/>
  <flow id="JF303" begin="0" fromJunction="J3" toJunction="J6" end="3600" vehsPerHour="109.92000000000002"/>
  <flow id="JF304" begin="0" fromJunction="J3" toJunction="J7" end="3600" vehsPerHour="109.92000000000002"/>
  <flow id="JF305" begin="0" fromJunction="J4" toJunction="J0" end="3600" vehsPerHour="54.96000000000001"/>
  <flow id="JF306" begin="0" fromJunction="J4" toJunction="J3" end="3600" vehsPerHour="54.96000000000001"/>
  <flow id="JF307" begin="0" fromJunction="J4" toJunction="J5" end="3600" vehsPerHour="54.96000000000001"/>
  <flow id="JF308" begin="0" fromJunction="J4" toJunction="J6" end="3600" vehsPerHour="54.96000000000001"/>
  <flow id="JF309" begin="0" fromJunction="J4" toJunction="J7" end="3600" vehsPerHour="54.96000000000001"/>
  <flow id="JF310" begin="0" fromJunction="J5" toJunction="J6" end="3600" vehsPerHour="687.0"/>
  <flow id="JF311" begin="0" fromJunction="J5" toJunction="J0" end="3600" vehsPerHour="171.75"/>
  <flow id="JF312" begin="0" fromJunction="J5" toJunction="J3" end="3600" vehsPerHour="171.75"/>
  <flow id="JF313" begin="0" fromJunction="J5" toJunction="J4" end="3600" vehsPerHour="171.75"/>
  <flow id="JF314" begin="0" fromJunction="J5" toJunction="J7" end="3600" vehsPerHour="171.75"/>
  <flow id="JF315" begin="0" fromJunction="J6" toJunction="J0" end="3600" vehsPerHour="54.96000000000001"/>
  <flow id="JF316" begin="0" fromJunction="J6" toJunction="J3" end="3600" vehsPerHour="54.96000000000001"/>
  <flow id="JF317" begin="0" fromJunction="J6" toJunction="J4" end="3600" vehsPerHour="54.96000000000001"/>
  <flow id="JF318" begin="0" fromJunction="J6" toJunction="J5" end="3600" vehsPerHour="54.96000000000001"/>
  <flow id="JF319" begin="0" fromJunction="J6" toJunction="J7" end="3600" vehsPerHour="54.96000000000001"/>
  <flow id="JF320" begin="0" fromJunction="J7" toJunction="J0" end="3600" vehsPerHour="54.96000000000001"/>
  <flow id="JF321" begin="0" fromJunction="J7" toJunction="J3" end="3600" vehsPerHour="54.96000000000001"/>
  <flow id="JF322" begin="0" fromJunction="J7" toJunction="J4" end="3600" vehsPerHour="54.96000000000001"/>
  <flow id="JF323" begin="0" fromJunction="J7" toJunction="J5" end="3600" vehsPerHour="54.96000000000001"/>
  <flow id="JF324" begin="0" fromJunction="J7" toJunction="J6" end="3600" vehsPerHour="54.96000000000001"/>
  <flow id="JF325" begin="0" fromJunction="J0" toJunction="J3" end="3600" vehsPerHour="109.92000000000002"/>
  <flow id="JF326" begin="0" fromJunction="J0" toJunction="J4" end="3600" vehsPerHour="109.92000000000002"/>
  <flow id="JF327" begin="0" fromJunction="J0" toJunction="J5" end="3600" vehsPerHour="109.92000000000002"/>
  <flow id="JF328" begin="0" fromJunction="J0" toJunction="J6" end="3600" vehsPerHour="109.92000000000002"/>
  <flow id="JF329" begin="0" fromJunction="J0" toJunction="J7" end="3600" vehsPerHour="109.92000000000002"/>
  <flow id="JF330" begin="10000" fromJunction="J3" toJunction="J0" end="13600" vehsPerHour="109.92000000000002"/>
  <flow id="JF331" begin="10000" fromJunction="J3" toJunction="J4" end="13600" vehsPerHour="109.92000000000002"/>
  <flow id="JF332" begin="10000" fromJunction="J3" toJunction="J5" end="13600" vehsPerHour="109.92000000000002"/>
  <flow id="JF333" begin="10000" fromJunction="J3" toJunction="J6" end="13600" vehsPerHour="109.92000000000002"/>
  <flow id="JF334" begin="10000" fromJunction="J3" toJunction="J7" end="13600" vehsPerHour="109.92000000000002"/>
  <flow id="JF335" begin="10000" fromJunction="J4" toJunction="J0" end="13600" vehsPerHour="54.96000000000001"/>
  <flow id="JF336" begin="10000" fromJunction="J4" toJunction="J3" end="13600" vehsPerHour="54.96000000000001"/>
  <flow id="JF337" begin="10000" fromJunction="J4" toJunction="J5" end="13600" vehsPerHour="54.96000000000001"/>
  <flow id="JF338" begin="10000" fromJunction="J4" toJunction="J6" end="13600" vehsPerHour="54.96000000000001"/>
  <flow id="JF339" begin="10000" fromJunction="J4" toJunction="J7" end="13600" vehsPerHour="54.96000000000001"/>
  <flow id="JF340" begin="10000" fromJunction="J5" toJunction="J4" end="13600" vehsPerHour="687.0"/>
  <flow id="JF341" begin="10000" fromJunction="J5" toJunction="J0" end="13600" vehsPerHour="171.75"/>
  <flow id="JF342" begin="10000" fromJunction="J5" toJunction="J3" end="13600" vehsPerHour="171.75"/>
  <flow id="JF343" begin="10000" fromJunction="J5" toJunction="J6" end="13600" vehsPerHour="171.75"/>
  <flow id="JF344" begin="10000" fromJunction="J5" toJunction="J7" end="13600" vehsPerHour="171.75"/>
  <flow id="JF345" begin="10000" fromJunction="J6" toJunction="J0" end="13600" vehsPerHour="54.96000000000001"/>
  <flow id="JF346" begin="10000" fromJunction="J6" toJunction="J3" end="13600" vehsPerHour="54.96000000000001"/>
  <flow id="JF347" begin="10000" fromJunction="J6" toJunction="J4" end="13600" vehsPerHour="54.96000000000001"/>
  <flow id="JF348" begin="10000" fromJunction="J6" toJunction="J5" end="13600" vehsPerHour="54.96000000000001"/>
  <flow id="JF349" begin="10000" fromJunction="J6" toJunction="J7" end="13600" vehsPerHour="54.96000000000001"/>
  <flow id="JF350" begin="10000" fromJunction="J7" toJunction="J0" end="13600" vehsPerHour="54.96000000000001"/>
  <flow id="JF351" begin="10000" fromJunction="J7" toJunction="J3" end="13600" vehsPerHour="54.96000000000001"/>
  <flow id="JF352" begin="10000" fromJunction="J7" toJunction="J4" end="13600" vehsPerHour="54.96000000000001"/>
  <flow id="JF353" begin="10000" fromJunction="J7" toJunction="J5" end="13600" vehsPerHour="54.96000000000001"/>
  <flow id="JF354" begin="10000" fromJunction="J7" toJunction="J6" end="13600" vehsPerHour="54.96000000000001"/>
  <flow id="JF355" begin="10000" fromJunction="J0" toJunction="J3" end="13600" vehsPerHour="109.92000000000002"/>
  <flow id="JF356" begin="10000" fromJunction="J0" toJunction="J4" end="13600" vehsPerHour="109.92000000000002"/>
  <flow id="JF357" begin="10000" fromJunction="J0" toJunction="J5" end="13600" vehsPerHour="109.92000000000002"/>
  <flow id="JF358" begin="10000" fromJunction="J0" toJunction="J6" end="13600" vehsPerHour="109.92000000000002"/>
  <flow id="JF359" begin="10000" fromJunction="J0" toJunction="J7" end="13600" vehsPerHour="109.92000000000002"/>
  <flow id="JF360" begin="20000" fromJunction="J3" toJunction="J0" end="23600" vehsPerHour="109.92000000000002"/>
  <flow id="JF361" begin="20000" fromJunction="J3" toJunction="J4" end="23600" vehsPerHour="109.92000000000002"/>
  <flow id="JF362" begin="20000" fromJunction="J3" toJunction="J5" end="23600" vehsPerHour="109.92000000000002"/>
  <flow id="JF363" begin="20000" fromJunction="J3" toJunction="J6" end="23600" vehsPerHour="109.92000000000002"/>
  <flow id="JF364" begin="20000" fromJunction="J3" toJunction="J7" end="23600" vehsPerHour="109.92000000000002"/>
  <flow id="JF365" begin="20000" fromJunction="J4" toJunction="J0" end="23600" vehsPerHour="54.96000000000001"/>
  <flow id="JF366" begin="20000" fromJunction="J4" toJunction="J3" end="23600" vehsPerHour="54.96000000000001"/>
  <flow id="JF367" begin="20000" fromJunction="J4" toJunction="J5" end="23600" vehsPerHour="54.96000000000001"/>
  <flow id="JF368" begin="20000" fromJunction="J4" toJunction="J6" end="23600" vehsPerHour="54.96000000000001"/>
  <flow id="JF369" begin="20000" fromJunction="J4" toJunction="J7" end="23600" vehsPerHour="54.96000000000001"/>
  <flow id="JF370" begin="20000" fromJunction="J5" toJunction="J0" end="23600" vehsPerHour="54.96000000000001"/>
  <flow id="JF371" begin="20000" fromJunction="J5" toJunction="J3" end="23600" vehsPerHour="54.96000000000001"/>
  <flow id="JF372" begin="20000" fromJunction="J5" toJunction="J4" end="23600" vehsPerHour="54.96000000000001"/>
  <flow id="JF373" begin="20000" fromJunction="J5" toJunction="J6" end="23600" vehsPerHour="54.96000000000001"/>
  <flow id="JF374" begin="20000" fromJunction="J5" toJunction="J7" end="23600" vehsPerHour="54.96000000000001"/>
  <flow id="JF375" begin="20000" fromJunction="J6" toJunction="J0" end="23600" vehsPerHour="54.96000000000001"/>
  <flow id="JF376" begin="20000" fromJunction="J6" toJunction="J3" end="23600" vehsPerHour="54.96000000000001"/>
  <flow id="JF377" begin="20000" fromJunction="J6" toJunction="J4" end="23600" vehsPerHour="54.96000000000001"/>
  <flow id="JF378" begin="20000" fromJunction="J6" toJunction="J5" end="23600" vehsPerHour="54.96000000000001"/>
  <flow id="JF379" begin="20000" fromJunction="J6" toJunction="J7" end="23600" vehsPerHour="54.96000000000001"/>
  <flow id="JF380" begin="20000" fromJunction="J7" toJunction="J0" end="23600" vehsPerHour="54.96000000000001"/>
  <flow id="JF381" begin="20000" fromJunction="J7" toJunction="J3" end="23600" vehsPerHour="54.96000000000001"/>
  <flow id="JF382" begin="20000" fromJunction="J7" toJunction="J4" end="23600" vehsPerHour="54.96000000000001"/>
  <flow id="JF383" begin="20000" fromJunction="J7" toJunction="J5" end="23600" vehsPerHour="54.96000000000001"/>
  <flow id="JF384" begin="20000" fromJunction="J7" toJunction="J6" end="23600" vehsPerHour="54.96000000000001"/>
  <flow id="JF385" begin="20000" fromJunction="J0" toJunction="J4" end="23600" vehsPerHour="1374.0"/>
  <flow id="JF386" begin="20000" fromJunction="J0" toJunction="J3" end="23600" vehsPerHour="343.5"/>
  <flow id="JF387" begin="20000" fromJunction="J0" toJunction="J5" end="23600" vehsPerHour="343.5"/>
  <flow id="JF388" begin="20000" fromJunction="J0" toJunction="J6" end="23600" vehsPerHour="343.5"/>
  <flow id="JF389" begin="20000" fromJunction="J0" toJunction="J7" end="23600" vehsPerHour="343.5"/>
  <flow id="JF390" begin="30000" fromJunction="J3" toJunction="J0" end="33600" vehsPerHour="1374.0"/>
  <flow id="JF391" begin="30000" fromJunction="J3" toJunction="J4" end="33600" vehsPerHour="343.5"/>
  <flow id="JF392" begin="30000" fromJunction="J3" toJunction="J5" end="33600" vehsPerHour="343.5"/>
  <flow id="JF393" begin="30000" fromJunction="J3" toJunction="J6" end="33600" vehsPerHour="343.5"/>
  <flow id="JF394" begin="30000" fromJunction="J3" toJunction="J7" end="33600" vehsPerHour="343.5"/>
  <flow id="JF395" begin="30000" fromJunction="J4" toJunction="J0" end="33600" vehsPerHour="54.96000000000001"/>
  <flow id="JF396" begin="30000" fromJunction="J4" toJunction="J3" end="33600" vehsPerHour="54.96000000000001"/>
  <flow id="JF397" begin="30000" fromJunction="J4" toJunction="J5" end="33600" vehsPerHour="54.96000000000001"/>
  <flow id="JF398" begin="30000" fromJunction="J4" toJunction="J6" end="33600" vehsPerHour="54.96000000000001"/>
  <flow id="JF399" begin="30000" fromJunction="J4" toJunction="J7" end="33600" vehsPerHour="54.96000000000001"/>
  <flow id="JF400" begin="30000" fromJunction="J5" toJunction="J0" end="33600" vehsPerHour="54.96000000000001"/>
  <flow id="JF401" begin="30000" fromJunction="J5" toJunction="J3" end="33600" vehsPerHour="54.96000000000001"/>
  <flow id="JF402" begin="30000" fromJunction="J5" toJunction="J4" end="33600" vehsPerHour="54.96000000000001"/>
  <flow id="JF403" begin="30000" fromJunction="J5" toJunction="J6" end="33600" vehsPerHour="54.96000000000001"/>
  <flow id="JF404" begin="30000" fromJunction="J5" toJunction="J7" end="33600" vehsPerHour="54.96000000000001"/>
  <flow id="JF405" begin="30000" fromJunction="J6" toJunction="J0" end="33600" vehsPerHour="54.96000000000001"/>
  <flow id="JF406" begin="30000" fromJunction="J6" toJunction="J3" end="33600" vehsPerHour="54.96000000000001"/>
  <flow id="JF407" begin="30000" fromJunction="J6" toJunction="J4" end="33600" vehsPerHour="54.96000000000001"/>
  <flow id="JF408" begin="30000" fromJunction="J6" toJunction="J5" end="33600" vehsPerHour="54.96000000000001"/>
  <flow id="JF409" begin="30000" fromJunction="J6" toJunction="J7" end="33600" vehsPerHour="54.96000000000001"/>
  <flow id="JF410" begin="30000" fromJunction="J7" toJunction="J0" end="33600" vehsPerHour="54.96000000000001"/>
  <flow id="JF411" begin="30000" fromJunction="J7" toJunction="J3" end="33600" vehsPerHour="54.96000000000001"/>
  <flow id="JF412" begin="30000" fromJunction="J7" toJunction="J4" end="33600" vehsPerHour="54.96000000000001"/>
  <flow id="JF413" begin="30000" fromJunction="J7" toJunction="J5" end="33600" vehsPerHour="54.96000000000001"/>
  <flow id="JF414" begin="30000" fromJunction="J7" toJunction="J6" end="33600" vehsPerHour="54.96000000000001"/>
  <flow id="JF415" begin="30000" fromJunction="J0" toJunction="J3" end="33600" vehsPerHour="109.92000000000002"/>
  <flow id="JF416" begin="30000" fromJunction="J0" toJunction="J4" end="33600" vehsPerHour="109.92000000000002"/>
  <flow id="JF417" begin="30000" fromJunction="J0" toJunction="J5" end="33600" vehsPerHour="109.92000000000002"/>
  <flow id="JF418" begin="30000" fromJunction="J0" toJunction="J6" end="33600" vehsPerHour="109.92000000000002"/>
  <flow id="JF419" begin="30000" fromJunction="J0" toJunction="J7" end="33600" vehsPerHour="109.92000000000002"/>
  <flow id="JF420" begin="40000" fromJunction="J3" toJunction="J6" end="43600" vehsPerHour="1374.0"/>
  <flow id="JF421" begin="40000" fromJunction="J3" toJunction="J0" end="43600" vehsPerHour="343.5"/>
  <flow id="JF422" begin="40000" fromJunction="J3" toJunction="J4" end="43600" vehsPerHour="343.5"/>
  <flow id="JF423" begin="40000" fromJunction="J3" toJunction="J5" end="43600" vehsPerHour="343.5"/>
  <flow id="JF424" begin="40000" fromJunction="J3" toJunction="J7" end="43600" vehsPerHour="343.5"/>
  <flow id="JF425" begin="40000" fromJunction="J4" toJunction="J0" end="43600" vehsPerHour="54.96000000000001"/>
  <flow id="JF426" begin="40000" fromJunction="J4" toJunction="J3" end="43600" vehsPerHour="54.96000000000001"/>
  <flow id="JF427" begin="40000" fromJunction="J4" toJunction="J5" end="43600" vehsPerHour="54.96000000000001"/>
  <flow id="JF428" begin="40000" fromJunction="J4" toJunction="J6" end="43600" vehsPerHour="54.96000000000001"/>
  <flow id="JF429" begin="40000" fromJunction="J4" toJunction="J7" end="43600" vehsPerHour="54.96000000000001"/>
  <flow id="JF430" begin="40000" fromJunction="J5" toJunction="J0" end="43600" vehsPerHour="54.96000000000001"/>
  <flow id="JF431" begin="40000" fromJunction="J5" toJunction="J3" end="43600" vehsPerHour="54.96000000000001"/>
  <flow id="JF432" begin="40000" fromJunction="J5" toJunction="J4" end="43600" vehsPerHour="54.96000000000001"/>
  <flow id="JF433" begin="40000" fromJunction="J5" toJunction="J6" end="43600" vehsPerHour="54.96000000000001"/>
  <flow id="JF434" begin="40000" fromJunction="J5" toJunction="J7" end="43600" vehsPerHour="54.96000000000001"/>
  <flow id="JF435" begin="40000" fromJunction="J6" toJunction="J0" end="43600" vehsPerHour="54.96000000000001"/>
  <flow id="JF436" begin="40000" fromJunction="J6" toJunction="J3" end="43600" vehsPerHour="54.96000000000001"/>
  <flow id="JF437" begin="40000" fromJunction="J6" toJunction="J4" end="43600" vehsPerHour="54.96000000000001"/>
  <flow id="JF438" begin="40000" fromJunction="J6" toJunction="J5" end="43600" vehsPerHour="54.96000000000001"/>
  <flow id="JF439" begin="40000" fromJunction="J6" toJunction="J7" end="43600" vehsPerHour="54.96000000000001"/>
  <flow id="JF440" begin="40000" fromJunction="J7" toJunction="J0" end="43600" vehsPerHour="54.96000000000001"/>
  <flow id="JF441" begin="40000" fromJunction="J7" toJunction="J3" end="43600" vehsPerHour="54.96000000000001"/>
  <flow id="JF442" begin="40000" fromJunction="J7" toJunction="J4" end="43600" vehsPerHour="54.96000000000001"/>
  <flow id="JF443" begin="40000" fromJunction="J7" toJunction="J5" end="43600" vehsPerHour="54.96000000000001"/>
  <flow id="JF444" begin="40000" fromJunction="J7" toJunction="J6" end="43600" vehsPerHour="54.96000000000001"/>
  <flow id="JF445" begin="40000" fromJunction="J0" toJunction="J3" end="43600" vehsPerHour="109.92000000000002"/>
  <flow id="JF446" begin="40000" fromJunction="J0" toJunction="J4" end="43600" vehsPerHour="109.92000000000002"/>
  <flow id="JF447" begin="40000" fromJunction="J0" toJunction="J5" end="43600" vehsPerHour="109.92000000000002"/>
  <flow id="JF448" begin="40000" fromJunction="J0" toJunction="J6" end="43600" vehsPerHour="109.92000000000002"/>
  <flow id="JF449" begin="40000" fromJunction="J0" toJunction="J7" end="43600" vehsPerHour="109.92000000000002"/>
</routes>