<?xml version="1.0" encoding="UTF-8"?>
<routes xmlns:xsi="http://www.w3.org/2001/XMLSchema-instance" xsi:noNamespaceSchemaLocation="http://sumo.dlr.de/xsd/routes_file.xsd">
  <flow id="JF1200" begin="0" fromJunction="J3" toJunction="J4" end="3600" vehsPerHour="1374.0"/>
  <flow id="JF1201" begin="0" fromJunction="J3" toJunction="J0" end="3600" vehsPerHour="343.5"/>
  <flow id="JF1202" begin="0" fromJunction="J3" toJunction="J5" end="3600" vehsPerHour="343.5"/>
  <flow id="JF1203" begin="0" fromJunction="J3" toJunction="J6" end="3600" vehsPerHour="343.5"/>
  <flow id="JF1204" begin="0" fromJunction="J3" toJunction="J7" end="3600" vehsPerHour="343.5"/>
  <flow id="JF1205" begin="0" fromJunction="J4" toJunction="J0" end="3600" vehsPerHour="54.96000000000001"/>
  <flow id="JF1206" begin="0" fromJunction="J4" toJunction="J3" end="3600" vehsPerHour="54.96000000000001"/>
  <flow id="JF1207" begin="0" fromJunction="J4" toJunction="J5" end="3600" vehsPerHour="54.96000000000001"/>
  <flow id="JF1208" begin="0" fromJunction="J4" toJunction="J6" end="3600" vehsPerHour="54.96000000000001"/>
  <flow id="JF1209" begin="0" fromJunction="J4" toJunction="J7" end="3600" vehsPerHour="54.96000000000001"/>
  <flow id="JF1210" begin="0" fromJunction="J5" toJunction="J0" end="3600" vehsPerHour="54.96000000000001"/>
  <flow id="JF1211" begin="0" fromJunction="J5" toJunction="J3" end="3600" vehsPerHour="54.96000000000001"/>
  <flow id="JF1212" begin="0" fromJunction="J5" toJunction="J4" end="3600" vehsPerHour="54.96000000000001"/>
  <flow id="JF1213" begin="0" fromJunction="J5" toJunction="J6" end="3600" vehsPerHour="54.96000000000001"/>
  <flow id="JF1214" begin="0" fromJunction="J5" toJunction="J7" end="3600" vehsPerHour="54.96000000000001"/>
  <flow id="JF1215" begin="0" fromJunction="J6" toJunction="J0" end="3600" vehsPerHour="54.96000000000001"/>
  <flow id="JF1216" begin="0" fromJunction="J6" toJunction="J3" end="3600" vehsPerHour="54.96000000000001"/>
  <flow id="JF1217" begin="0" fromJunction="J6" toJunction="J4" end="3600" vehsPerHour="54.96000000000001"/>
  <flow id="JF1218" begin="0" fromJunction="J6" toJunction="J5" end="3600" vehsPerHour="54.96000000000001"/>
  <flow id="JF1219" begin="0" fromJunction="J6" toJunction="J7" end="3600" vehsPerHour="54.96000000000001"/>
  <flow id="JF1220" begin="0" fromJunction="J7" toJunction="J0" end="3600" vehsPerHour="54.96000000000001"/>
  <flow id="JF1221" begin="0" fromJunction="J7" toJunction="J3" end="3600" vehsPerHour="54.96000000000001"/>
  <flow id="JF1222" begin="0" fromJunction="J7" toJunction="J4" end="3600" vehsPerHour="54.96000000000001"/>
  <flow id="JF1223" begin="0" fromJunction="J7" toJunction="J5" end="3600" vehsPerHour="54.96000000000001"/>
  <flow id="JF1224" begin="0" fromJunction="J7" toJunction="J6" end="3600" vehsPerHour="54.96000000000001"/>
  <flow id="JF1225" begin="0" fromJunction="J0" toJunction="J3" end="3600" vehsPerHour="109.92000000000002"/>
  <flow id="JF1226" begin="0" fromJunction="J0" toJunction="J4" end="3600" vehsPerHour="109.92000000000002"/>
  <flow id="JF1227" begin="0" fromJunction="J0" toJunction="J5" end="3600" vehsPerHour="109.92000000000002"/>
  <flow id="JF1228" begin="0" fromJunction="J0" toJunction="J6" end="3600" vehsPerHour="109.92000000000002"/>
  <flow id="JF1229" begin="0" fromJunction="J0" toJunction="J7" end="3600" vehsPerHour="109.92000000000002"/>
  <flow id="JF1230" begin="10000" fromJunction="J3" toJunction="J0" end="13600" vehsPerHour="109.92000000000002"/>
  <flow id="JF1231" begin="10000" fromJunction="J3" toJunction="J4" end="13600" vehsPerHour="109.92000000000002"/>
  <flow id="JF1232" begin="10000" fromJunction="J3" toJunction="J5" end="13600" vehsPerHour="109.92000000000002"/>
  <flow id="JF1233" begin="10000" fromJunction="J3" toJunction="J6" end="13600" vehsPerHour="109.92000000000002"/>
  <flow id="JF1234" begin="10000" fromJunction="J3" toJunction="J7" end="13600" vehsPerHour="109.92000000000002"/>
  <flow id="JF1235" begin="10000" fromJunction="J4" toJunction="J0" end="13600" vehsPerHour="54.96000000000001"/>
  <flow id="JF1236" begin="10000" fromJunction="J4" toJunction="J3" end="13600" vehsPerHour="54.96000000000001"/>
  <flow id="JF1237" begin="10000" fromJunction="J4" toJunction="J5" end="13600" vehsPerHour="54.96000000000001"/>
  <flow id="JF1238" begin="10000" fromJunction="J4" toJunction="J6" end="13600" vehsPerHour="54.96000000000001"/>
  <flow id="JF1239" begin="10000" fromJunction="J4" toJunction="J7" end="13600" vehsPerHour="54.96000000000001"/>
  <flow id="JF1240" begin="10000" fromJunction="J5" toJunction="J0" end="13600" vehsPerHour="54.96000000000001"/>
  <flow id="JF1241" begin="10000" fromJunction="J5" toJunction="J3" end="13600" vehsPerHour="54.96000000000001"/>
  <flow id="JF1242" begin="10000" fromJunction="J5" toJunction="J4" end="13600" vehsPerHour="54.96000000000001"/>
  <flow id="JF1243" begin="10000" fromJunction="J5" toJunction="J6" end="13600" vehsPerHour="54.96000000000001"/>
  <flow id="JF1244" begin="10000" fromJunction="J5" toJunction="J7" end="13600" vehsPerHour="54.96000000000001"/>
  <flow id="JF1245" begin="10000" fromJunction="J6" toJunction="J5" end="13600" vehsPerHour="687.0"/>
  <flow id="JF1246" begin="10000" fromJunction="J6" toJunction="J0" end="13600" vehsPerHour="171.75"/>
  <flow id="JF1247" begin="10000" fromJunction="J6" toJunction="J3" end="13600" vehsPerHour="171.75"/>
  <flow id="JF1248" begin="10000" fromJunction="J6" toJunction="J4" end="13600" vehsPerHour="171.75"/>
  <flow id="JF1249" begin="10000" fromJunction="J6" toJunction="J7" end="13600" vehsPerHour="171.75"/>
  <flow id="JF1250" begin="10000" fromJunction="J7" toJunction="J0" end="13600" vehsPerHour="54.96000000000001"/>
  <flow id="JF1251" begin="10000" fromJunction="J7" toJunction="J3" end="13600" vehsPerHour="54.96000000000001"/>
  <flow id="JF1252" begin="10000" fromJunction="J7" toJunction="J4" end="13600" vehsPerHour="54.96000000000001"/>
  <flow id="JF1253" begin="10000" fromJunction="J7" toJunction="J5" end="13600" vehsPerHour="54.96000000000001"/>
  <flow id="JF1254" begin="10000" fromJunction="J7" toJunction="J6" end="13600" vehsPerHour="54.96000000000001"/>
  <flow id="JF1255" begin="10000" fromJunction="J0" toJunction="J3" end="13600" vehsPerHour="109.92000000000002"/>
  <flow id="JF1256" begin="10000" fromJunction="J0" toJunction="J4" end="13600" vehsPerHour="109.92000000000002"/>
  <flow id="JF1257" begin="10000" fromJunction="J0" toJunction="J5" end="13600" vehsPerHour="109.92000000000002"/>
  <flow id="JF1258" begin="10000" fromJunction="J0" toJunction="J6" end="13600" vehsPerHour="109.92000000000002"/>
  <flow id="JF1259" begin="10000" fromJunction="J0" toJunction="J7" end="13600" vehsPerHour="109.92000000000002"/>
  <flow id="JF1260" begin="20000" fromJunction="J3" toJunction="J0" end="23600" vehsPerHour="109.92000000000002"/>
  <flow id="JF1261" begin="20000" fromJunction="J3" toJunction="J4" end="23600" vehsPerHour="109.92000000000002"/>
  <flow id="JF1262" begin="20000" fromJunction="J3" toJunction="J5" end="23600" vehsPerHour="109.92000000000002"/>
  <flow id="JF1263" begin="20000" fromJunction="J3" toJunction="J6" end="23600" vehsPerHour="109.92000000000002"/>
  <flow id="JF1264" begin="20000" fromJunction="J3" toJunction="J7" end="23600" vehsPerHour="109.92000000000002"/>
  <flow id="JF1265" begin="20000" fromJunction="J4" toJunction="J0" end="23600" vehsPerHour="54.96000000000001"/>
  <flow id="JF1266" begin="20000" fromJunction="J4" toJunction="J3" end="23600" vehsPerHour="54.96000000000001"/>
  <flow id="JF1267" begin="20000" fromJunction="J4" toJunction="J5" end="23600" vehsPerHour="54.96000000000001"/>
  <flow id="JF1268" begin="20000" fromJunction="J4" toJunction="J6" end="23600" vehsPerHour="54.96000000000001"/>
  <flow id="JF1269" begin="20000" fromJunction="J4" toJunction="J7" end="23600" vehsPerHour="54.96000000000001"/>
  <flow id="JF1270" begin="20000" fromJunction="J5" toJunction="J0" end="23600" vehsPerHour="54.96000000000001"/>
  <flow id="JF1271" begin="20000" fromJunction="J5" toJunction="J3" end="23600" vehsPerHour="54.96000000000001"/>
  <flow id="JF1272" begin="20000" fromJunction="J5" toJunction="J4" end="23600" vehsPerHour="54.96000000000001"/>
  <flow id="JF1273" begin="20000" fromJunction="J5" toJunction="J6" end="23600" vehsPerHour="54.96000000000001"/>
  <flow id="JF1274" begin="20000" fromJunction="J5" toJunction="J7" end="23600" vehsPerHour="54.96000000000001"/>
  <flow id="JF1275" begin="20000" fromJunction="J6" toJunction="J7" end="23600" vehsPerHour="687.0"/>
  <flow id="JF1276" begin="20000" fromJunction="J6" toJunction="J0" end="23600" vehsPerHour="171.75"/>
  <flow id="JF1277" begin="20000" fromJunction="J6" toJunction="J3" end="23600" vehsPerHour="171.75"/>
  <flow id="JF1278" begin="20000" fromJunction="J6" toJunction="J4" end="23600" vehsPerHour="171.75"/>
  <flow id="JF1279" begin="20000" fromJunction="J6" toJunction="J5" end="23600" vehsPerHour="171.75"/>
  <flow id="JF1280" begin="20000" fromJunction="J7" toJunction="J0" end="23600" vehsPerHour="54.96000000000001"/>
  <flow id="JF1281" begin="20000" fromJunction="J7" toJunction="J3" end="23600" vehsPerHour="54.96000000000001"/>
  <flow id="JF1282" begin="20000" fromJunction="J7" toJunction="J4" end="23600" vehsPerHour="54.96000000000001"/>
  <flow id="JF1283" begin="20000" fromJunction="J7" toJunction="J5" end="23600" vehsPerHour="54.96000000000001"/>
  <flow id="JF1284" begin="20000" fromJunction="J7" toJunction="J6" end="23600" vehsPerHour="54.96000000000001"/>
  <flow id="JF1285" begin="20000" fromJunction="J0" toJunction="J3" end="23600" vehsPerHour="109.92000000000002"/>
  <flow id="JF1286" begin="20000" fromJunction="J0" toJunction="J4" end="23600" vehsPerHour="109.92000000000002"/>
  <flow id="JF1287" begin="20000" fromJunction="J0" toJunction="J5" end="23600" vehsPerHour="109.92000000000002"/>
  <flow id="JF1288" begin="20000" fromJunction="J0" toJunction="J6" end="23600" vehsPerHour="109.92000000000002"/>
  <flow id="JF1289" begin="20000" fromJunction="J0" toJunction="J7" end="23600" vehsPerHour="109.92000000000002"/>
  <flow id="JF1290" begin="30000" fromJunction="J3" toJunction="J0" end="33600" vehsPerHour="109.92000000000002"/>
  <flow id="JF1291" begin="30000" fromJunction="J3" toJunction="J4" end="33600" vehsPerHour="109.92000000000002"/>
  <flow id="JF1292" begin="30000" fromJunction="J3" toJunction="J5" end="33600" vehsPerHour="109.92000000000002"/>
  <flow id="JF1293" begin="30000" fromJunction="J3" toJunction="J6" end="33600" vehsPerHour="109.92000000000002"/>
  <flow id="JF1294" begin="30000" fromJunction="J3" toJunction="J7" end="33600" vehsPerHour="109.92000000000002"/>
  <flow id="JF1295" begin="30000" fromJunction="J4" toJunction="J0" end="33600" vehsPerHour="54.96000000000001"/>
  <flow id="JF1296" begin="30000" fromJunction="J4" toJunction="J3" end="33600" vehsPerHour="54.96000000000001"/>
  <flow id="JF1297" begin="30000" fromJunction="J4" toJunction="J5" end="33600" vehsPerHour="54.96000000000001"/>
  <flow id="JF1298" begin="30000" fromJunction="J4" toJunction="J6" end="33600" vehsPerHour="54.96000000000001"/>
  <flow id="JF1299" begin="30000" fromJunction="J4" toJunction="J7" end="33600" vehsPerHour="54.96000000000001"/>
  <flow id="JF1300" begin="30000" fromJunction="J5" toJunction="J0" end="33600" vehsPerHour="54.96000000000001"/>
  <flow id="JF1301" begin="30000" fromJunction="J5" toJunction="J3" end="33600" vehsPerHour="54.96000000000001"/>
  <flow id="JF1302" begin="30000" fromJunction="J5" toJunction="J4" end="33600" vehsPerHour="54.96000000000001"/>
  <flow id="JF1303" begin="30000" fromJunction="J5" toJunction="J6" end="33600" vehsPerHour="54.96000000000001"/>
  <flow id="JF1304" begin="30000" fromJunction="J5" toJunction="J7" end="33600" vehsPerHour="54.96000000000001"/>
  <flow id="JF1305" begin="30000" fromJunction="J6" toJunction="J0" end="33600" vehsPerHour="54.96000000000001"/>
  <flow id="JF1306" begin="30000" fromJunction="J6" toJunction="J3" end="33600" vehsPerHour="54.96000000000001"/>
  <flow id="JF1307" begin="30000" fromJunction="J6" toJunction="J4" end="33600" vehsPerHour="54.96000000000001"/>
  <flow id="JF1308" begin="30000" fromJunction="J6" toJunction="J5" end="33600" vehsPerHour="54.96000000000001"/>
  <flow id="JF1309" begin="30000" fromJunction="J6" toJunction="J7" end="33600" vehsPerHour="54.96000000000001"/>
  <flow id="JF1310" begin="30000" fromJunction="J7" toJunction="J4" end="33600" vehsPerHour="687.0"/>
  <flow id="JF1311" begin="30000" fromJunction="J7" toJunction="J0" end="33600" vehsPerHour="171.75"/>
  <flow id="JF1312" begin="30000" fromJunction="J7" toJunction="J3" end="33600" vehsPerHour="171.75"/>
  <flow id="JF1313" begin="30000" fromJunction="J7" toJunction="J5" end="33600" vehsPerHour="171.75"/>
  <flow id="JF1314" begin="30000" fromJunction="J7" toJunction="J6" end="33600" vehsPerHour="171.75"/>
  <flow id="JF1315" begin="30000" fromJunction="J0" toJunction="J3" end="33600" vehsPerHour="109.92000000000002"/>
  <flow id="JF1316" begin="30000" fromJunction="J0" toJunction="J4" end="33600" vehsPerHour="109.92000000000002"/>
  <flow id="JF1317" begin="30000" fromJunction="J0" toJunction="J5" end="33600" vehsPerHour="109.92000000000002"/>
  <flow id="JF1318" begin="30000" fromJunction="J0" toJunction="J6" end="33600" vehsPerHour="109.92000000000002"/>
  <flow id="JF1319" begin="30000" fromJunction="J0" toJunction="J7" end="33600" vehsPerHour="109.92000000000002"/>
  <flow id="JF1320" begin="40000" fromJunction="J3" toJunction="J0" end="43600" vehsPerHour="109.92000000000002"/>
  <flow id="JF1321" begin="40000" fromJunction="J3" toJunction="J4" end="43600" vehsPerHour="109.92000000000002"/>
  <flow id="JF1322" begin="40000" fromJunction="J3" toJunction="J5" end="43600" vehsPerHour="109.92000000000002"/>
  <flow id="JF1323" begin="40000" fromJunction="J3" toJunction="J6" end="43600" vehsPerHour="109.92000000000002"/>
  <flow id="JF1324" begin="40000" fromJunction="J3" toJunction="J7" end="43600" vehsPerHour="109.92000000000002"/>
  <flow id="JF1325" begin="40000" fromJunction="J4" toJunction="J6" end="43600" vehsPerHour="687.0"/>
  <flow id="JF1326" begin="40000" fromJunction="J4" toJunction="J0" end="43600" vehsPerHour="171.75"/>
  <flow id="JF1327" begin="40000" fromJunction="J4" toJunction="J3" end="43600" vehsPerHour="171.75"/>
  <flow id="JF1328" begin="40000" fromJunction="J4" toJunction="J5" end="43600" vehsPerHour="171.75"/>
  <flow id="JF1329" begin="40000" fromJunction="J4" toJunction="J7" end="43600" vehsPerHour="171.75"/>
  <flow id="JF1330" begin="40000" fromJunction="J5" toJunction="J0" end="43600" vehsPerHour="54.96000000000001"/>
  <flow id="JF1331" begin="40000" fromJunction="J5" toJunction="J3" end="43600" vehsPerHour="54.96000000000001"/>
  <flow id="JF1332" begin="40000" fromJunction="J5" toJunction="J4" end="43600" vehsPerHour="54.96000000000001"/>
  <flow id="JF1333" begin="40000" fromJunction="J5" toJunction="J6" end="43600" vehsPerHour="54.96000000000001"/>
  <flow id="JF1334" begin="40000" fromJunction="J5" toJunction="J7" end="43600" vehsPerHour="54.96000000000001"/>
  <flow id="JF1335" begin="40000" fromJunction="J6" toJunction="J0" end="43600" vehsPerHour="54.96000000000001"/>
  <flow id="JF1336" begin="40000" fromJunction="J6" toJunction="J3" end="43600" vehsPerHour="54.96000000000001"/>
  <flow id="JF1337" begin="40000" fromJunction="J6" toJunction="J4" end="43600" vehsPerHour="54.96000000000001"/>
  <flow id="JF1338" begin="40000" fromJunction="J6" toJunction="J5" end="43600" vehsPerHour="54.96000000000001"/>
  <flow id="JF1339" begin="40000" fromJunction="J6" toJunction="J7" end="43600" vehsPerHour="54.96000000000001"/>
  <flow id="JF1340" begin="40000" fromJunction="J7" toJunction="J0" end="43600" vehsPerHour="54.96000000000001"/>
  <flow id="JF1341" begin="40000" fromJunction="J7" toJunction="J3" end="43600" vehsPerHour="54.96000000000001"/>
  <flow id="JF1342" begin="40000" fromJunction="J7" toJunction="J4" end="43600" vehsPerHour="54.96000000000001"/>
  <flow id="JF1343" begin="40000" fromJunction="J7" toJunction="J5" end="43600" vehsPerHour="54.96000000000001"/>
  <flow id="JF1344" begin="40000" fromJunction="J7" toJunction="J6" end="43600" vehsPerHour="54.96000000000001"/>
  <flow id="JF1345" begin="40000" fromJunction="J0" toJunction="J3" end="43600" vehsPerHour="109.92000000000002"/>
  <flow id="JF1346" begin="40000" fromJunction="J0" toJunction="J4" end="43600" vehsPerHour="109.92000000000002"/>
  <flow id="JF1347" begin="40000" fromJunction="J0" toJunction="J5" end="43600" vehsPerHour="109.92000000000002"/>
  <flow id="JF1348" begin="40000" fromJunction="J0" toJunction="J6" end="43600" vehsPerHour="109.92000000000002"/>
  <flow id="JF1349" begin="40000" fromJunction="J0" toJunction="J7" end="43600" vehsPerHour="109.92000000000002"/>
</routes>