<?xml version="1.0" encoding="UTF-8"?>
<routes xmlns:xsi="http://www.w3.org/2001/XMLSchema-instance" xsi:noNamespaceSchemaLocation="http://sumo.dlr.de/xsd/routes_file.xsd">
  <flow id="JF1800" begin="0" fromJunction="J3" toJunction="J0" end="1000" vehsPerHour="109.92000000000002"/>
  <flow id="JF1801" begin="0" fromJunction="J3" toJunction="J4" end="1000" vehsPerHour="109.92000000000002"/>
  <flow id="JF1802" begin="0" fromJunction="J3" toJunction="J5" end="1000" vehsPerHour="109.92000000000002"/>
  <flow id="JF1803" begin="0" fromJunction="J3" toJunction="J6" end="1000" vehsPerHour="109.92000000000002"/>
  <flow id="JF1804" begin="0" fromJunction="J3" toJunction="J7" end="1000" vehsPerHour="109.92000000000002"/>
  <flow id="JF1805" begin="0" fromJunction="J4" toJunction="J6" end="1000" vehsPerHour="687.0"/>
  <flow id="JF1806" begin="0" fromJunction="J4" toJunction="J0" end="1000" vehsPerHour="171.75"/>
  <flow id="JF1807" begin="0" fromJunction="J4" toJunction="J3" end="1000" vehsPerHour="171.75"/>
  <flow id="JF1808" begin="0" fromJunction="J4" toJunction="J5" end="1000" vehsPerHour="171.75"/>
  <flow id="JF1809" begin="0" fromJunction="J4" toJunction="J7" end="1000" vehsPerHour="171.75"/>
  <flow id="JF1810" begin="0" fromJunction="J5" toJunction="J0" end="1000" vehsPerHour="54.96000000000001"/>
  <flow id="JF1811" begin="0" fromJunction="J5" toJunction="J3" end="1000" vehsPerHour="54.96000000000001"/>
  <flow id="JF1812" begin="0" fromJunction="J5" toJunction="J4" end="1000" vehsPerHour="54.96000000000001"/>
  <flow id="JF1813" begin="0" fromJunction="J5" toJunction="J6" end="1000" vehsPerHour="54.96000000000001"/>
  <flow id="JF1814" begin="0" fromJunction="J5" toJunction="J7" end="1000" vehsPerHour="54.96000000000001"/>
  <flow id="JF1815" begin="0" fromJunction="J6" toJunction="J0" end="1000" vehsPerHour="54.96000000000001"/>
  <flow id="JF1816" begin="0" fromJunction="J6" toJunction="J3" end="1000" vehsPerHour="54.96000000000001"/>
  <flow id="JF1817" begin="0" fromJunction="J6" toJunction="J4" end="1000" vehsPerHour="54.96000000000001"/>
  <flow id="JF1818" begin="0" fromJunction="J6" toJunction="J5" end="1000" vehsPerHour="54.96000000000001"/>
  <flow id="JF1819" begin="0" fromJunction="J6" toJunction="J7" end="1000" vehsPerHour="54.96000000000001"/>
  <flow id="JF1820" begin="0" fromJunction="J7" toJunction="J3" end="1000" vehsPerHour="687.0"/>
  <flow id="JF1821" begin="0" fromJunction="J7" toJunction="J0" end="1000" vehsPerHour="171.75"/>
  <flow id="JF1822" begin="0" fromJunction="J7" toJunction="J4" end="1000" vehsPerHour="171.75"/>
  <flow id="JF1823" begin="0" fromJunction="J7" toJunction="J5" end="1000" vehsPerHour="171.75"/>
  <flow id="JF1824" begin="0" fromJunction="J7" toJunction="J6" end="1000" vehsPerHour="171.75"/>
  <flow id="JF1825" begin="0" fromJunction="J0" toJunction="J6" end="1000" vehsPerHour="1374.0"/>
  <flow id="JF1826" begin="0" fromJunction="J0" toJunction="J3" end="1000" vehsPerHour="343.5"/>
  <flow id="JF1827" begin="0" fromJunction="J0" toJunction="J4" end="1000" vehsPerHour="343.5"/>
  <flow id="JF1828" begin="0" fromJunction="J0" toJunction="J5" end="1000" vehsPerHour="343.5"/>
  <flow id="JF1829" begin="0" fromJunction="J0" toJunction="J7" end="1000" vehsPerHour="343.5"/>
  <flow id="JF1830" begin="1000" fromJunction="J3" toJunction="J0" end="2000" vehsPerHour="109.92000000000002"/>
  <flow id="JF1831" begin="1000" fromJunction="J3" toJunction="J4" end="2000" vehsPerHour="109.92000000000002"/>
  <flow id="JF1832" begin="1000" fromJunction="J3" toJunction="J5" end="2000" vehsPerHour="109.92000000000002"/>
  <flow id="JF1833" begin="1000" fromJunction="J3" toJunction="J6" end="2000" vehsPerHour="109.92000000000002"/>
  <flow id="JF1834" begin="1000" fromJunction="J3" toJunction="J7" end="2000" vehsPerHour="109.92000000000002"/>
  <flow id="JF1835" begin="1000" fromJunction="J4" toJunction="J7" end="2000" vehsPerHour="687.0"/>
  <flow id="JF1836" begin="1000" fromJunction="J4" toJunction="J0" end="2000" vehsPerHour="171.75"/>
  <flow id="JF1837" begin="1000" fromJunction="J4" toJunction="J3" end="2000" vehsPerHour="171.75"/>
  <flow id="JF1838" begin="1000" fromJunction="J4" toJunction="J5" end="2000" vehsPerHour="171.75"/>
  <flow id="JF1839" begin="1000" fromJunction="J4" toJunction="J6" end="2000" vehsPerHour="171.75"/>
  <flow id="JF1840" begin="1000" fromJunction="J5" toJunction="J0" end="2000" vehsPerHour="54.96000000000001"/>
  <flow id="JF1841" begin="1000" fromJunction="J5" toJunction="J3" end="2000" vehsPerHour="54.96000000000001"/>
  <flow id="JF1842" begin="1000" fromJunction="J5" toJunction="J4" end="2000" vehsPerHour="54.96000000000001"/>
  <flow id="JF1843" begin="1000" fromJunction="J5" toJunction="J6" end="2000" vehsPerHour="54.96000000000001"/>
  <flow id="JF1844" begin="1000" fromJunction="J5" toJunction="J7" end="2000" vehsPerHour="54.96000000000001"/>
  <flow id="JF1845" begin="1000" fromJunction="J6" toJunction="J0" end="2000" vehsPerHour="54.96000000000001"/>
  <flow id="JF1846" begin="1000" fromJunction="J6" toJunction="J3" end="2000" vehsPerHour="54.96000000000001"/>
  <flow id="JF1847" begin="1000" fromJunction="J6" toJunction="J4" end="2000" vehsPerHour="54.96000000000001"/>
  <flow id="JF1848" begin="1000" fromJunction="J6" toJunction="J5" end="2000" vehsPerHour="54.96000000000001"/>
  <flow id="JF1849" begin="1000" fromJunction="J6" toJunction="J7" end="2000" vehsPerHour="54.96000000000001"/>
  <flow id="JF1850" begin="1000" fromJunction="J7" toJunction="J6" end="2000" vehsPerHour="499.6363636363636"/>
  <flow id="JF1851" begin="1000" fromJunction="J7" toJunction="J3" end="2000" vehsPerHour="499.6363636363636"/>
  <flow id="JF1852" begin="1000" fromJunction="J7" toJunction="J0" end="2000" vehsPerHour="124.9090909090909"/>
  <flow id="JF1853" begin="1000" fromJunction="J7" toJunction="J4" end="2000" vehsPerHour="124.9090909090909"/>
  <flow id="JF1854" begin="1000" fromJunction="J7" toJunction="J5" end="2000" vehsPerHour="124.9090909090909"/>
  <flow id="JF1855" begin="1000" fromJunction="J0" toJunction="J3" end="2000" vehsPerHour="109.92000000000002"/>
  <flow id="JF1856" begin="1000" fromJunction="J0" toJunction="J4" end="2000" vehsPerHour="109.92000000000002"/>
  <flow id="JF1857" begin="1000" fromJunction="J0" toJunction="J5" end="2000" vehsPerHour="109.92000000000002"/>
  <flow id="JF1858" begin="1000" fromJunction="J0" toJunction="J6" end="2000" vehsPerHour="109.92000000000002"/>
  <flow id="JF1859" begin="1000" fromJunction="J0" toJunction="J7" end="2000" vehsPerHour="109.92000000000002"/>
  <flow id="JF1860" begin="2000" fromJunction="J3" toJunction="J0" end="3000" vehsPerHour="1374.0"/>
  <flow id="JF1861" begin="2000" fromJunction="J3" toJunction="J4" end="3000" vehsPerHour="343.5"/>
  <flow id="JF1862" begin="2000" fromJunction="J3" toJunction="J5" end="3000" vehsPerHour="343.5"/>
  <flow id="JF1863" begin="2000" fromJunction="J3" toJunction="J6" end="3000" vehsPerHour="343.5"/>
  <flow id="JF1864" begin="2000" fromJunction="J3" toJunction="J7" end="3000" vehsPerHour="343.5"/>
  <flow id="JF1865" begin="2000" fromJunction="J4" toJunction="J0" end="3000" vehsPerHour="687.0"/>
  <flow id="JF1866" begin="2000" fromJunction="J4" toJunction="J3" end="3000" vehsPerHour="171.75"/>
  <flow id="JF1867" begin="2000" fromJunction="J4" toJunction="J5" end="3000" vehsPerHour="171.75"/>
  <flow id="JF1868" begin="2000" fromJunction="J4" toJunction="J6" end="3000" vehsPerHour="171.75"/>
  <flow id="JF1869" begin="2000" fromJunction="J4" toJunction="J7" end="3000" vehsPerHour="171.75"/>
  <flow id="JF1870" begin="2000" fromJunction="J5" toJunction="J0" end="3000" vehsPerHour="54.96000000000001"/>
  <flow id="JF1871" begin="2000" fromJunction="J5" toJunction="J3" end="3000" vehsPerHour="54.96000000000001"/>
  <flow id="JF1872" begin="2000" fromJunction="J5" toJunction="J4" end="3000" vehsPerHour="54.96000000000001"/>
  <flow id="JF1873" begin="2000" fromJunction="J5" toJunction="J6" end="3000" vehsPerHour="54.96000000000001"/>
  <flow id="JF1874" begin="2000" fromJunction="J5" toJunction="J7" end="3000" vehsPerHour="54.96000000000001"/>
  <flow id="JF1875" begin="2000" fromJunction="J6" toJunction="J5" end="3000" vehsPerHour="687.0"/>
  <flow id="JF1876" begin="2000" fromJunction="J6" toJunction="J0" end="3000" vehsPerHour="171.75"/>
  <flow id="JF1877" begin="2000" fromJunction="J6" toJunction="J3" end="3000" vehsPerHour="171.75"/>
  <flow id="JF1878" begin="2000" fromJunction="J6" toJunction="J4" end="3000" vehsPerHour="171.75"/>
  <flow id="JF1879" begin="2000" fromJunction="J6" toJunction="J7" end="3000" vehsPerHour="171.75"/>
  <flow id="JF1880" begin="2000" fromJunction="J7" toJunction="J0" end="3000" vehsPerHour="54.96000000000001"/>
  <flow id="JF1881" begin="2000" fromJunction="J7" toJunction="J3" end="3000" vehsPerHour="54.96000000000001"/>
  <flow id="JF1882" begin="2000" fromJunction="J7" toJunction="J4" end="3000" vehsPerHour="54.96000000000001"/>
  <flow id="JF1883" begin="2000" fromJunction="J7" toJunction="J5" end="3000" vehsPerHour="54.96000000000001"/>
  <flow id="JF1884" begin="2000" fromJunction="J7" toJunction="J6" end="3000" vehsPerHour="54.96000000000001"/>
  <flow id="JF1885" begin="2000" fromJunction="J0" toJunction="J3" end="3000" vehsPerHour="109.92000000000002"/>
  <flow id="JF1886" begin="2000" fromJunction="J0" toJunction="J4" end="3000" vehsPerHour="109.92000000000002"/>
  <flow id="JF1887" begin="2000" fromJunction="J0" toJunction="J5" end="3000" vehsPerHour="109.92000000000002"/>
  <flow id="JF1888" begin="2000" fromJunction="J0" toJunction="J6" end="3000" vehsPerHour="109.92000000000002"/>
  <flow id="JF1889" begin="2000" fromJunction="J0" toJunction="J7" end="3000" vehsPerHour="109.92000000000002"/>
  <flow id="JF1890" begin="3000" fromJunction="J3" toJunction="J0" end="4000" vehsPerHour="1374.0"/>
  <flow id="JF1891" begin="3000" fromJunction="J3" toJunction="J4" end="4000" vehsPerHour="343.5"/>
  <flow id="JF1892" begin="3000" fromJunction="J3" toJunction="J5" end="4000" vehsPerHour="343.5"/>
  <flow id="JF1893" begin="3000" fromJunction="J3" toJunction="J6" end="4000" vehsPerHour="343.5"/>
  <flow id="JF1894" begin="3000" fromJunction="J3" toJunction="J7" end="4000" vehsPerHour="343.5"/>
  <flow id="JF1895" begin="3000" fromJunction="J4" toJunction="J3" end="4000" vehsPerHour="687.0"/>
  <flow id="JF1896" begin="3000" fromJunction="J4" toJunction="J0" end="4000" vehsPerHour="171.75"/>
  <flow id="JF1897" begin="3000" fromJunction="J4" toJunction="J5" end="4000" vehsPerHour="171.75"/>
  <flow id="JF1898" begin="3000" fromJunction="J4" toJunction="J6" end="4000" vehsPerHour="171.75"/>
  <flow id="JF1899" begin="3000" fromJunction="J4" toJunction="J7" end="4000" vehsPerHour="171.75"/>
  <flow id="JF1900" begin="3000" fromJunction="J5" toJunction="J0" end="4000" vehsPerHour="54.96000000000001"/>
  <flow id="JF1901" begin="3000" fromJunction="J5" toJunction="J3" end="4000" vehsPerHour="54.96000000000001"/>
  <flow id="JF1902" begin="3000" fromJunction="J5" toJunction="J4" end="4000" vehsPerHour="54.96000000000001"/>
  <flow id="JF1903" begin="3000" fromJunction="J5" toJunction="J6" end="4000" vehsPerHour="54.96000000000001"/>
  <flow id="JF1904" begin="3000" fromJunction="J5" toJunction="J7" end="4000" vehsPerHour="54.96000000000001"/>
  <flow id="JF1905" begin="3000" fromJunction="J6" toJunction="J0" end="4000" vehsPerHour="54.96000000000001"/>
  <flow id="JF1906" begin="3000" fromJunction="J6" toJunction="J3" end="4000" vehsPerHour="54.96000000000001"/>
  <flow id="JF1907" begin="3000" fromJunction="J6" toJunction="J4" end="4000" vehsPerHour="54.96000000000001"/>
  <flow id="JF1908" begin="3000" fromJunction="J6" toJunction="J5" end="4000" vehsPerHour="54.96000000000001"/>
  <flow id="JF1909" begin="3000" fromJunction="J6" toJunction="J7" end="4000" vehsPerHour="54.96000000000001"/>
  <flow id="JF1910" begin="3000" fromJunction="J7" toJunction="J3" end="4000" vehsPerHour="687.0"/>
  <flow id="JF1911" begin="3000" fromJunction="J7" toJunction="J0" end="4000" vehsPerHour="171.75"/>
  <flow id="JF1912" begin="3000" fromJunction="J7" toJunction="J4" end="4000" vehsPerHour="171.75"/>
  <flow id="JF1913" begin="3000" fromJunction="J7" toJunction="J5" end="4000" vehsPerHour="171.75"/>
  <flow id="JF1914" begin="3000" fromJunction="J7" toJunction="J6" end="4000" vehsPerHour="171.75"/>
  <flow id="JF1915" begin="3000" fromJunction="J0" toJunction="J3" end="4000" vehsPerHour="109.92000000000002"/>
  <flow id="JF1916" begin="3000" fromJunction="J0" toJunction="J4" end="4000" vehsPerHour="109.92000000000002"/>
  <flow id="JF1917" begin="3000" fromJunction="J0" toJunction="J5" end="4000" vehsPerHour="109.92000000000002"/>
  <flow id="JF1918" begin="3000" fromJunction="J0" toJunction="J6" end="4000" vehsPerHour="109.92000000000002"/>
  <flow id="JF1919" begin="3000" fromJunction="J0" toJunction="J7" end="4000" vehsPerHour="109.92000000000002"/>
  <flow id="JF1920" begin="4000" fromJunction="J3" toJunction="J0" end="5000" vehsPerHour="109.92000000000002"/>
  <flow id="JF1921" begin="4000" fromJunction="J3" toJunction="J4" end="5000" vehsPerHour="109.92000000000002"/>
  <flow id="JF1922" begin="4000" fromJunction="J3" toJunction="J5" end="5000" vehsPerHour="109.92000000000002"/>
  <flow id="JF1923" begin="4000" fromJunction="J3" toJunction="J6" end="5000" vehsPerHour="109.92000000000002"/>
  <flow id="JF1924" begin="4000" fromJunction="J3" toJunction="J7" end="5000" vehsPerHour="109.92000000000002"/>
  <flow id="JF1925" begin="4000" fromJunction="J4" toJunction="J0" end="5000" vehsPerHour="54.96000000000001"/>
  <flow id="JF1926" begin="4000" fromJunction="J4" toJunction="J3" end="5000" vehsPerHour="54.96000000000001"/>
  <flow id="JF1927" begin="4000" fromJunction="J4" toJunction="J5" end="5000" vehsPerHour="54.96000000000001"/>
  <flow id="JF1928" begin="4000" fromJunction="J4" toJunction="J6" end="5000" vehsPerHour="54.96000000000001"/>
  <flow id="JF1929" begin="4000" fromJunction="J4" toJunction="J7" end="5000" vehsPerHour="54.96000000000001"/>
  <flow id="JF1930" begin="4000" fromJunction="J5" toJunction="J7" end="5000" vehsPerHour="687.0"/>
  <flow id="JF1931" begin="4000" fromJunction="J5" toJunction="J0" end="5000" vehsPerHour="171.75"/>
  <flow id="JF1932" begin="4000" fromJunction="J5" toJunction="J3" end="5000" vehsPerHour="171.75"/>
  <flow id="JF1933" begin="4000" fromJunction="J5" toJunction="J4" end="5000" vehsPerHour="171.75"/>
  <flow id="JF1934" begin="4000" fromJunction="J5" toJunction="J6" end="5000" vehsPerHour="171.75"/>
  <flow id="JF1935" begin="4000" fromJunction="J6" toJunction="J0" end="5000" vehsPerHour="687.0"/>
  <flow id="JF1936" begin="4000" fromJunction="J6" toJunction="J3" end="5000" vehsPerHour="171.75"/>
  <flow id="JF1937" begin="4000" fromJunction="J6" toJunction="J4" end="5000" vehsPerHour="171.75"/>
  <flow id="JF1938" begin="4000" fromJunction="J6" toJunction="J5" end="5000" vehsPerHour="171.75"/>
  <flow id="JF1939" begin="4000" fromJunction="J6" toJunction="J7" end="5000" vehsPerHour="171.75"/>
  <flow id="JF1940" begin="4000" fromJunction="J7" toJunction="J0" end="5000" vehsPerHour="54.96000000000001"/>
  <flow id="JF1941" begin="4000" fromJunction="J7" toJunction="J3" end="5000" vehsPerHour="54.96000000000001"/>
  <flow id="JF1942" begin="4000" fromJunction="J7" toJunction="J4" end="5000" vehsPerHour="54.96000000000001"/>
  <flow id="JF1943" begin="4000" fromJunction="J7" toJunction="J5" end="5000" vehsPerHour="54.96000000000001"/>
  <flow id="JF1944" begin="4000" fromJunction="J7" toJunction="J6" end="5000" vehsPerHour="54.96000000000001"/>
  <flow id="JF1945" begin="4000" fromJunction="J0" toJunction="J6" end="5000" vehsPerHour="1374.0"/>
  <flow id="JF1946" begin="4000" fromJunction="J0" toJunction="J3" end="5000" vehsPerHour="343.5"/>
  <flow id="JF1947" begin="4000" fromJunction="J0" toJunction="J4" end="5000" vehsPerHour="343.5"/>
  <flow id="JF1948" begin="4000" fromJunction="J0" toJunction="J5" end="5000" vehsPerHour="343.5"/>
  <flow id="JF1949" begin="4000" fromJunction="J0" toJunction="J7" end="5000" vehsPerHour="343.5"/>
  <flow id="JF1950" begin="5000" fromJunction="J3" toJunction="J0" end="6000" vehsPerHour="1374.0"/>
  <flow id="JF1951" begin="5000" fromJunction="J3" toJunction="J4" end="6000" vehsPerHour="343.5"/>
  <flow id="JF1952" begin="5000" fromJunction="J3" toJunction="J5" end="6000" vehsPerHour="343.5"/>
  <flow id="JF1953" begin="5000" fromJunction="J3" toJunction="J6" end="6000" vehsPerHour="343.5"/>
  <flow id="JF1954" begin="5000" fromJunction="J3" toJunction="J7" end="6000" vehsPerHour="343.5"/>
  <flow id="JF1955" begin="5000" fromJunction="J4" toJunction="J0" end="6000" vehsPerHour="54.96000000000001"/>
  <flow id="JF1956" begin="5000" fromJunction="J4" toJunction="J3" end="6000" vehsPerHour="54.96000000000001"/>
  <flow id="JF1957" begin="5000" fromJunction="J4" toJunction="J5" end="6000" vehsPerHour="54.96000000000001"/>
  <flow id="JF1958" begin="5000" fromJunction="J4" toJunction="J6" end="6000" vehsPerHour="54.96000000000001"/>
  <flow id="JF1959" begin="5000" fromJunction="J4" toJunction="J7" end="6000" vehsPerHour="54.96000000000001"/>
  <flow id="JF1960" begin="5000" fromJunction="J5" toJunction="J0" end="6000" vehsPerHour="687.0"/>
  <flow id="JF1961" begin="5000" fromJunction="J5" toJunction="J3" end="6000" vehsPerHour="171.75"/>
  <flow id="JF1962" begin="5000" fromJunction="J5" toJunction="J4" end="6000" vehsPerHour="171.75"/>
  <flow id="JF1963" begin="5000" fromJunction="J5" toJunction="J6" end="6000" vehsPerHour="171.75"/>
  <flow id="JF1964" begin="5000" fromJunction="J5" toJunction="J7" end="6000" vehsPerHour="171.75"/>
  <flow id="JF1965" begin="5000" fromJunction="J6" toJunction="J3" end="6000" vehsPerHour="687.0"/>
  <flow id="JF1966" begin="5000" fromJunction="J6" toJunction="J0" end="6000" vehsPerHour="171.75"/>
  <flow id="JF1967" begin="5000" fromJunction="J6" toJunction="J4" end="6000" vehsPerHour="171.75"/>
  <flow id="JF1968" begin="5000" fromJunction="J6" toJunction="J5" end="6000" vehsPerHour="171.75"/>
  <flow id="JF1969" begin="5000" fromJunction="J6" toJunction="J7" end="6000" vehsPerHour="171.75"/>
  <flow id="JF1970" begin="5000" fromJunction="J7" toJunction="J0" end="6000" vehsPerHour="54.96000000000001"/>
  <flow id="JF1971" begin="5000" fromJunction="J7" toJunction="J3" end="6000" vehsPerHour="54.96000000000001"/>
  <flow id="JF1972" begin="5000" fromJunction="J7" toJunction="J4" end="6000" vehsPerHour="54.96000000000001"/>
  <flow id="JF1973" begin="5000" fromJunction="J7" toJunction="J5" end="6000" vehsPerHour="54.96000000000001"/>
  <flow id="JF1974" begin="5000" fromJunction="J7" toJunction="J6" end="6000" vehsPerHour="54.96000000000001"/>
  <flow id="JF1975" begin="5000" fromJunction="J0" toJunction="J3" end="6000" vehsPerHour="109.92000000000002"/>
  <flow id="JF1976" begin="5000" fromJunction="J0" toJunction="J4" end="6000" vehsPerHour="109.92000000000002"/>
  <flow id="JF1977" begin="5000" fromJunction="J0" toJunction="J5" end="6000" vehsPerHour="109.92000000000002"/>
  <flow id="JF1978" begin="5000" fromJunction="J0" toJunction="J6" end="6000" vehsPerHour="109.92000000000002"/>
  <flow id="JF1979" begin="5000" fromJunction="J0" toJunction="J7" end="6000" vehsPerHour="109.92000000000002"/>
  <flow id="JF1980" begin="6000" fromJunction="J3" toJunction="J4" end="7000" vehsPerHour="999.2727272727273"/>
  <flow id="JF1981" begin="6000" fromJunction="J3" toJunction="J7" end="7000" vehsPerHour="999.2727272727273"/>
  <flow id="JF1982" begin="6000" fromJunction="J3" toJunction="J0" end="7000" vehsPerHour="249.8181818181818"/>
  <flow id="JF1983" begin="6000" fromJunction="J3" toJunction="J5" end="7000" vehsPerHour="249.8181818181818"/>
  <flow id="JF1984" begin="6000" fromJunction="J3" toJunction="J6" end="7000" vehsPerHour="249.8181818181818"/>
  <flow id="JF1985" begin="6000" fromJunction="J4" toJunction="J0" end="7000" vehsPerHour="54.96000000000001"/>
  <flow id="JF1986" begin="6000" fromJunction="J4" toJunction="J3" end="7000" vehsPerHour="54.96000000000001"/>
  <flow id="JF1987" begin="6000" fromJunction="J4" toJunction="J5" end="7000" vehsPerHour="54.96000000000001"/>
  <flow id="JF1988" begin="6000" fromJunction="J4" toJunction="J6" end="7000" vehsPerHour="54.96000000000001"/>
  <flow id="JF1989" begin="6000" fromJunction="J4" toJunction="J7" end="7000" vehsPerHour="54.96000000000001"/>
  <flow id="JF1990" begin="6000" fromJunction="J5" toJunction="J0" end="7000" vehsPerHour="54.96000000000001"/>
  <flow id="JF1991" begin="6000" fromJunction="J5" toJunction="J3" end="7000" vehsPerHour="54.96000000000001"/>
  <flow id="JF1992" begin="6000" fromJunction="J5" toJunction="J4" end="7000" vehsPerHour="54.96000000000001"/>
  <flow id="JF1993" begin="6000" fromJunction="J5" toJunction="J6" end="7000" vehsPerHour="54.96000000000001"/>
  <flow id="JF1994" begin="6000" fromJunction="J5" toJunction="J7" end="7000" vehsPerHour="54.96000000000001"/>
  <flow id="JF1995" begin="6000" fromJunction="J6" toJunction="J0" end="7000" vehsPerHour="54.96000000000001"/>
  <flow id="JF1996" begin="6000" fromJunction="J6" toJunction="J3" end="7000" vehsPerHour="54.96000000000001"/>
  <flow id="JF1997" begin="6000" fromJunction="J6" toJunction="J4" end="7000" vehsPerHour="54.96000000000001"/>
  <flow id="JF1998" begin="6000" fromJunction="J6" toJunction="J5" end="7000" vehsPerHour="54.96000000000001"/>
  <flow id="JF1999" begin="6000" fromJunction="J6" toJunction="J7" end="7000" vehsPerHour="54.96000000000001"/>
  <flow id="JF2000" begin="6000" fromJunction="J7" toJunction="J0" end="7000" vehsPerHour="54.96000000000001"/>
  <flow id="JF2001" begin="6000" fromJunction="J7" toJunction="J3" end="7000" vehsPerHour="54.96000000000001"/>
  <flow id="JF2002" begin="6000" fromJunction="J7" toJunction="J4" end="7000" vehsPerHour="54.96000000000001"/>
  <flow id="JF2003" begin="6000" fromJunction="J7" toJunction="J5" end="7000" vehsPerHour="54.96000000000001"/>
  <flow id="JF2004" begin="6000" fromJunction="J7" toJunction="J6" end="7000" vehsPerHour="54.96000000000001"/>
  <flow id="JF2005" begin="6000" fromJunction="J0" toJunction="J6" end="7000" vehsPerHour="1374.0"/>
  <flow id="JF2006" begin="6000" fromJunction="J0" toJunction="J3" end="7000" vehsPerHour="343.5"/>
  <flow id="JF2007" begin="6000" fromJunction="J0" toJunction="J4" end="7000" vehsPerHour="343.5"/>
  <flow id="JF2008" begin="6000" fromJunction="J0" toJunction="J5" end="7000" vehsPerHour="343.5"/>
  <flow id="JF2009" begin="6000" fromJunction="J0" toJunction="J7" end="7000" vehsPerHour="343.5"/>
  <flow id="JF2010" begin="7000" fromJunction="J3" toJunction="J0" end="8000" vehsPerHour="109.92000000000002"/>
  <flow id="JF2011" begin="7000" fromJunction="J3" toJunction="J4" end="8000" vehsPerHour="109.92000000000002"/>
  <flow id="JF2012" begin="7000" fromJunction="J3" toJunction="J5" end="8000" vehsPerHour="109.92000000000002"/>
  <flow id="JF2013" begin="7000" fromJunction="J3" toJunction="J6" end="8000" vehsPerHour="109.92000000000002"/>
  <flow id="JF2014" begin="7000" fromJunction="J3" toJunction="J7" end="8000" vehsPerHour="109.92000000000002"/>
  <flow id="JF2015" begin="7000" fromJunction="J4" toJunction="J5" end="8000" vehsPerHour="687.0"/>
  <flow id="JF2016" begin="7000" fromJunction="J4" toJunction="J0" end="8000" vehsPerHour="171.75"/>
  <flow id="JF2017" begin="7000" fromJunction="J4" toJunction="J3" end="8000" vehsPerHour="171.75"/>
  <flow id="JF2018" begin="7000" fromJunction="J4" toJunction="J6" end="8000" vehsPerHour="171.75"/>
  <flow id="JF2019" begin="7000" fromJunction="J4" toJunction="J7" end="8000" vehsPerHour="171.75"/>
  <flow id="JF2020" begin="7000" fromJunction="J5" toJunction="J0" end="8000" vehsPerHour="54.96000000000001"/>
  <flow id="JF2021" begin="7000" fromJunction="J5" toJunction="J3" end="8000" vehsPerHour="54.96000000000001"/>
  <flow id="JF2022" begin="7000" fromJunction="J5" toJunction="J4" end="8000" vehsPerHour="54.96000000000001"/>
  <flow id="JF2023" begin="7000" fromJunction="J5" toJunction="J6" end="8000" vehsPerHour="54.96000000000001"/>
  <flow id="JF2024" begin="7000" fromJunction="J5" toJunction="J7" end="8000" vehsPerHour="54.96000000000001"/>
  <flow id="JF2025" begin="7000" fromJunction="J6" toJunction="J0" end="8000" vehsPerHour="54.96000000000001"/>
  <flow id="JF2026" begin="7000" fromJunction="J6" toJunction="J3" end="8000" vehsPerHour="54.96000000000001"/>
  <flow id="JF2027" begin="7000" fromJunction="J6" toJunction="J4" end="8000" vehsPerHour="54.96000000000001"/>
  <flow id="JF2028" begin="7000" fromJunction="J6" toJunction="J5" end="8000" vehsPerHour="54.96000000000001"/>
  <flow id="JF2029" begin="7000" fromJunction="J6" toJunction="J7" end="8000" vehsPerHour="54.96000000000001"/>
  <flow id="JF2030" begin="7000" fromJunction="J7" toJunction="J0" end="8000" vehsPerHour="687.0"/>
  <flow id="JF2031" begin="7000" fromJunction="J7" toJunction="J3" end="8000" vehsPerHour="171.75"/>
  <flow id="JF2032" begin="7000" fromJunction="J7" toJunction="J4" end="8000" vehsPerHour="171.75"/>
  <flow id="JF2033" begin="7000" fromJunction="J7" toJunction="J5" end="8000" vehsPerHour="171.75"/>
  <flow id="JF2034" begin="7000" fromJunction="J7" toJunction="J6" end="8000" vehsPerHour="171.75"/>
  <flow id="JF2035" begin="7000" fromJunction="J0" toJunction="J6" end="8000" vehsPerHour="1374.0"/>
  <flow id="JF2036" begin="7000" fromJunction="J0" toJunction="J3" end="8000" vehsPerHour="343.5"/>
  <flow id="JF2037" begin="7000" fromJunction="J0" toJunction="J4" end="8000" vehsPerHour="343.5"/>
  <flow id="JF2038" begin="7000" fromJunction="J0" toJunction="J5" end="8000" vehsPerHour="343.5"/>
  <flow id="JF2039" begin="7000" fromJunction="J0" toJunction="J7" end="8000" vehsPerHour="343.5"/>
  <flow id="JF2040" begin="8000" fromJunction="J3" toJunction="J0" end="9000" vehsPerHour="109.92000000000002"/>
  <flow id="JF2041" begin="8000" fromJunction="J3" toJunction="J4" end="9000" vehsPerHour="109.92000000000002"/>
  <flow id="JF2042" begin="8000" fromJunction="J3" toJunction="J5" end="9000" vehsPerHour="109.92000000000002"/>
  <flow id="JF2043" begin="8000" fromJunction="J3" toJunction="J6" end="9000" vehsPerHour="109.92000000000002"/>
  <flow id="JF2044" begin="8000" fromJunction="J3" toJunction="J7" end="9000" vehsPerHour="109.92000000000002"/>
  <flow id="JF2045" begin="8000" fromJunction="J4" toJunction="J0" end="9000" vehsPerHour="54.96000000000001"/>
  <flow id="JF2046" begin="8000" fromJunction="J4" toJunction="J3" end="9000" vehsPerHour="54.96000000000001"/>
  <flow id="JF2047" begin="8000" fromJunction="J4" toJunction="J5" end="9000" vehsPerHour="54.96000000000001"/>
  <flow id="JF2048" begin="8000" fromJunction="J4" toJunction="J6" end="9000" vehsPerHour="54.96000000000001"/>
  <flow id="JF2049" begin="8000" fromJunction="J4" toJunction="J7" end="9000" vehsPerHour="54.96000000000001"/>
  <flow id="JF2050" begin="8000" fromJunction="J5" toJunction="J0" end="9000" vehsPerHour="54.96000000000001"/>
  <flow id="JF2051" begin="8000" fromJunction="J5" toJunction="J3" end="9000" vehsPerHour="54.96000000000001"/>
  <flow id="JF2052" begin="8000" fromJunction="J5" toJunction="J4" end="9000" vehsPerHour="54.96000000000001"/>
  <flow id="JF2053" begin="8000" fromJunction="J5" toJunction="J6" end="9000" vehsPerHour="54.96000000000001"/>
  <flow id="JF2054" begin="8000" fromJunction="J5" toJunction="J7" end="9000" vehsPerHour="54.96000000000001"/>
  <flow id="JF2055" begin="8000" fromJunction="J6" toJunction="J7" end="9000" vehsPerHour="687.0"/>
  <flow id="JF2056" begin="8000" fromJunction="J6" toJunction="J0" end="9000" vehsPerHour="171.75"/>
  <flow id="JF2057" begin="8000" fromJunction="J6" toJunction="J3" end="9000" vehsPerHour="171.75"/>
  <flow id="JF2058" begin="8000" fromJunction="J6" toJunction="J4" end="9000" vehsPerHour="171.75"/>
  <flow id="JF2059" begin="8000" fromJunction="J6" toJunction="J5" end="9000" vehsPerHour="171.75"/>
  <flow id="JF2060" begin="8000" fromJunction="J7" toJunction="J4" end="9000" vehsPerHour="687.0"/>
  <flow id="JF2061" begin="8000" fromJunction="J7" toJunction="J0" end="9000" vehsPerHour="171.75"/>
  <flow id="JF2062" begin="8000" fromJunction="J7" toJunction="J3" end="9000" vehsPerHour="171.75"/>
  <flow id="JF2063" begin="8000" fromJunction="J7" toJunction="J5" end="9000" vehsPerHour="171.75"/>
  <flow id="JF2064" begin="8000" fromJunction="J7" toJunction="J6" end="9000" vehsPerHour="171.75"/>
  <flow id="JF2065" begin="8000" fromJunction="J0" toJunction="J5" end="9000" vehsPerHour="1374.0"/>
  <flow id="JF2066" begin="8000" fromJunction="J0" toJunction="J3" end="9000" vehsPerHour="343.5"/>
  <flow id="JF2067" begin="8000" fromJunction="J0" toJunction="J4" end="9000" vehsPerHour="343.5"/>
  <flow id="JF2068" begin="8000" fromJunction="J0" toJunction="J6" end="9000" vehsPerHour="343.5"/>
  <flow id="JF2069" begin="8000" fromJunction="J0" toJunction="J7" end="9000" vehsPerHour="343.5"/>
  <flow id="JF2070" begin="9000" fromJunction="J3" toJunction="J0" end="10000" vehsPerHour="109.92000000000002"/>
  <flow id="JF2071" begin="9000" fromJunction="J3" toJunction="J4" end="10000" vehsPerHour="109.92000000000002"/>
  <flow id="JF2072" begin="9000" fromJunction="J3" toJunction="J5" end="10000" vehsPerHour="109.92000000000002"/>
  <flow id="JF2073" begin="9000" fromJunction="J3" toJunction="J6" end="10000" vehsPerHour="109.92000000000002"/>
  <flow id="JF2074" begin="9000" fromJunction="J3" toJunction="J7" end="10000" vehsPerHour="109.92000000000002"/>
  <flow id="JF2075" begin="9000" fromJunction="J4" toJunction="J7" end="10000" vehsPerHour="499.6363636363636"/>
  <flow id="JF2076" begin="9000" fromJunction="J4" toJunction="J5" end="10000" vehsPerHour="499.6363636363636"/>
  <flow id="JF2077" begin="9000" fromJunction="J4" toJunction="J0" end="10000" vehsPerHour="124.9090909090909"/>