<?xml version="1.0" encoding="UTF-8"?>
<routes xmlns:xsi="http://www.w3.org/2001/XMLSchema-instance" xsi:noNamespaceSchemaLocation="http://sumo.dlr.de/xsd/routes_file.xsd">
  <flow id="JF1350" begin="0" fromJunction="J3" toJunction="J7" end="5000" vehsPerHour="999.2727272727273"/>
  <flow id="JF1351" begin="0" fromJunction="J3" toJunction="J6" end="5000" vehsPerHour="999.2727272727273"/>
  <flow id="JF1352" begin="0" fromJunction="J3" toJunction="J0" end="5000" vehsPerHour="249.8181818181818"/>
  <flow id="JF1353" begin="0" fromJunction="J3" toJunction="J4" end="5000" vehsPerHour="249.8181818181818"/>
  <flow id="JF1354" begin="0" fromJunction="J3" toJunction="J5" end="5000" vehsPerHour="249.8181818181818"/>
  <flow id="JF1355" begin="0" fromJunction="J4" toJunction="J0" end="5000" vehsPerHour="687.0"/>
  <flow id="JF1356" begin="0" fromJunction="J4" toJunction="J3" end="5000" vehsPerHour="171.75"/>
  <flow id="JF1357" begin="0" fromJunction="J4" toJunction="J5" end="5000" vehsPerHour="171.75"/>
  <flow id="JF1358" begin="0" fromJunction="J4" toJunction="J6" end="5000" vehsPerHour="171.75"/>
  <flow id="JF1359" begin="0" fromJunction="J4" toJunction="J7" end="5000" vehsPerHour="171.75"/>
  <flow id="JF1360" begin="0" fromJunction="J5" toJunction="J0" end="5000" vehsPerHour="54.96000000000001"/>
  <flow id="JF1361" begin="0" fromJunction="J5" toJunction="J3" end="5000" vehsPerHour="54.96000000000001"/>
  <flow id="JF1362" begin="0" fromJunction="J5" toJunction="J4" end="5000" vehsPerHour="54.96000000000001"/>
  <flow id="JF1363" begin="0" fromJunction="J5" toJunction="J6" end="5000" vehsPerHour="54.96000000000001"/>
  <flow id="JF1364" begin="0" fromJunction="J5" toJunction="J7" end="5000" vehsPerHour="54.96000000000001"/>
  <flow id="JF1365" begin="0" fromJunction="J6" toJunction="J0" end="5000" vehsPerHour="54.96000000000001"/>
  <flow id="JF1366" begin="0" fromJunction="J6" toJunction="J3" end="5000" vehsPerHour="54.96000000000001"/>
  <flow id="JF1367" begin="0" fromJunction="J6" toJunction="J4" end="5000" vehsPerHour="54.96000000000001"/>
  <flow id="JF1368" begin="0" fromJunction="J6" toJunction="J5" end="5000" vehsPerHour="54.96000000000001"/>
  <flow id="JF1369" begin="0" fromJunction="J6" toJunction="J7" end="5000" vehsPerHour="54.96000000000001"/>
  <flow id="JF1370" begin="0" fromJunction="J7" toJunction="J0" end="5000" vehsPerHour="54.96000000000001"/>
  <flow id="JF1371" begin="0" fromJunction="J7" toJunction="J3" end="5000" vehsPerHour="54.96000000000001"/>
  <flow id="JF1372" begin="0" fromJunction="J7" toJunction="J4" end="5000" vehsPerHour="54.96000000000001"/>
  <flow id="JF1373" begin="0" fromJunction="J7" toJunction="J5" end="5000" vehsPerHour="54.96000000000001"/>
  <flow id="JF1374" begin="0" fromJunction="J7" toJunction="J6" end="5000" vehsPerHour="54.96000000000001"/>
  <flow id="JF1375" begin="0" fromJunction="J0" toJunction="J3" end="5000" vehsPerHour="109.92000000000002"/>
  <flow id="JF1376" begin="0" fromJunction="J0" toJunction="J4" end="5000" vehsPerHour="109.92000000000002"/>
  <flow id="JF1377" begin="0" fromJunction="J0" toJunction="J5" end="5000" vehsPerHour="109.92000000000002"/>
  <flow id="JF1378" begin="0" fromJunction="J0" toJunction="J6" end="5000" vehsPerHour="109.92000000000002"/>
  <flow id="JF1379" begin="0" fromJunction="J0" toJunction="J7" end="5000" vehsPerHour="109.92000000000002"/>
  <flow id="JF1380" begin="10000" fromJunction="J3" toJunction="J4" end="15000" vehsPerHour="1374.0"/>
  <flow id="JF1381" begin="10000" fromJunction="J3" toJunction="J0" end="15000" vehsPerHour="343.5"/>
  <flow id="JF1382" begin="10000" fromJunction="J3" toJunction="J5" end="15000" vehsPerHour="343.5"/>
  <flow id="JF1383" begin="10000" fromJunction="J3" toJunction="J6" end="15000" vehsPerHour="343.5"/>
  <flow id="JF1384" begin="10000" fromJunction="J3" toJunction="J7" end="15000" vehsPerHour="343.5"/>
  <flow id="JF1385" begin="10000" fromJunction="J4" toJunction="J6" end="15000" vehsPerHour="687.0"/>
  <flow id="JF1386" begin="10000" fromJunction="J4" toJunction="J0" end="15000" vehsPerHour="171.75"/>
  <flow id="JF1387" begin="10000" fromJunction="J4" toJunction="J3" end="15000" vehsPerHour="171.75"/>
  <flow id="JF1388" begin="10000" fromJunction="J4" toJunction="J5" end="15000" vehsPerHour="171.75"/>
  <flow id="JF1389" begin="10000" fromJunction="J4" toJunction="J7" end="15000" vehsPerHour="171.75"/>
  <flow id="JF1390" begin="10000" fromJunction="J5" toJunction="J0" end="15000" vehsPerHour="54.96000000000001"/>
  <flow id="JF1391" begin="10000" fromJunction="J5" toJunction="J3" end="15000" vehsPerHour="54.96000000000001"/>
  <flow id="JF1392" begin="10000" fromJunction="J5" toJunction="J4" end="15000" vehsPerHour="54.96000000000001"/>
  <flow id="JF1393" begin="10000" fromJunction="J5" toJunction="J6" end="15000" vehsPerHour="54.96000000000001"/>
  <flow id="JF1394" begin="10000" fromJunction="J5" toJunction="J7" end="15000" vehsPerHour="54.96000000000001"/>
  <flow id="JF1395" begin="10000" fromJunction="J6" toJunction="J0" end="15000" vehsPerHour="54.96000000000001"/>
  <flow id="JF1396" begin="10000" fromJunction="J6" toJunction="J3" end="15000" vehsPerHour="54.96000000000001"/>
  <flow id="JF1397" begin="10000" fromJunction="J6" toJunction="J4" end="15000" vehsPerHour="54.96000000000001"/>
  <flow id="JF1398" begin="10000" fromJunction="J6" toJunction="J5" end="15000" vehsPerHour="54.96000000000001"/>
  <flow id="JF1399" begin="10000" fromJunction="J6" toJunction="J7" end="15000" vehsPerHour="54.96000000000001"/>
  <flow id="JF1400" begin="10000" fromJunction="J7" toJunction="J0" end="15000" vehsPerHour="54.96000000000001"/>
  <flow id="JF1401" begin="10000" fromJunction="J7" toJunction="J3" end="15000" vehsPerHour="54.96000000000001"/>
  <flow id="JF1402" begin="10000" fromJunction="J7" toJunction="J4" end="15000" vehsPerHour="54.96000000000001"/>
  <flow id="JF1403" begin="10000" fromJunction="J7" toJunction="J5" end="15000" vehsPerHour="54.96000000000001"/>
  <flow id="JF1404" begin="10000" fromJunction="J7" toJunction="J6" end="15000" vehsPerHour="54.96000000000001"/>
  <flow id="JF1405" begin="10000" fromJunction="J0" toJunction="J7" end="15000" vehsPerHour="1374.0"/>
  <flow id="JF1406" begin="10000" fromJunction="J0" toJunction="J3" end="15000" vehsPerHour="343.5"/>
  <flow id="JF1407" begin="10000" fromJunction="J0" toJunction="J4" end="15000" vehsPerHour="343.5"/>
  <flow id="JF1408" begin="10000" fromJunction="J0" toJunction="J5" end="15000" vehsPerHour="343.5"/>
  <flow id="JF1409" begin="10000" fromJunction="J0" toJunction="J6" end="15000" vehsPerHour="343.5"/>
  <flow id="JF1410" begin="20000" fromJunction="J3" toJunction="J0" end="25000" vehsPerHour="109.92000000000002"/>
  <flow id="JF1411" begin="20000" fromJunction="J3" toJunction="J4" end="25000" vehsPerHour="109.92000000000002"/>
  <flow id="JF1412" begin="20000" fromJunction="J3" toJunction="J5" end="25000" vehsPerHour="109.92000000000002"/>
  <flow id="JF1413" begin="20000" fromJunction="J3" toJunction="J6" end="25000" vehsPerHour="109.92000000000002"/>
  <flow id="JF1414" begin="20000" fromJunction="J3" toJunction="J7" end="25000" vehsPerHour="109.92000000000002"/>
  <flow id="JF1415" begin="20000" fromJunction="J4" toJunction="J7" end="25000" vehsPerHour="499.6363636363636"/>
  <flow id="JF1416" begin="20000" fromJunction="J4" toJunction="J5" end="25000" vehsPerHour="499.6363636363636"/>
  <flow id="JF1417" begin="20000" fromJunction="J4" toJunction="J0" end="25000" vehsPerHour="124.9090909090909"/>
  <flow id="JF1418" begin="20000" fromJunction="J4" toJunction="J3" end="25000" vehsPerHour="124.9090909090909"/>
  <flow id="JF1419" begin="20000" fromJunction="J4" toJunction="J6" end="25000" vehsPerHour="124.9090909090909"/>
  <flow id="JF1420" begin="20000" fromJunction="J5" toJunction="J0" end="25000" vehsPerHour="54.96000000000001"/>
  <flow id="JF1421" begin="20000" fromJunction="J5" toJunction="J3" end="25000" vehsPerHour="54.96000000000001"/>
  <flow id="JF1422" begin="20000" fromJunction="J5" toJunction="J4" end="25000" vehsPerHour="54.96000000000001"/>
  <flow id="JF1423" begin="20000" fromJunction="J5" toJunction="J6" end="25000" vehsPerHour="54.96000000000001"/>
  <flow id="JF1424" begin="20000" fromJunction="J5" toJunction="J7" end="25000" vehsPerHour="54.96000000000001"/>
  <flow id="JF1425" begin="20000" fromJunction="J6" toJunction="J0" end="25000" vehsPerHour="54.96000000000001"/>
  <flow id="JF1426" begin="20000" fromJunction="J6" toJunction="J3" end="25000" vehsPerHour="54.96000000000001"/>
  <flow id="JF1427" begin="20000" fromJunction="J6" toJunction="J4" end="25000" vehsPerHour="54.96000000000001"/>
  <flow id="JF1428" begin="20000" fromJunction="J6" toJunction="J5" end="25000" vehsPerHour="54.96000000000001"/>
  <flow id="JF1429" begin="20000" fromJunction="J6" toJunction="J7" end="25000" vehsPerHour="54.96000000000001"/>
  <flow id="JF1430" begin="20000" fromJunction="J7" toJunction="J0" end="25000" vehsPerHour="54.96000000000001"/>
  <flow id="JF1431" begin="20000" fromJunction="J7" toJunction="J3" end="25000" vehsPerHour="54.96000000000001"/>
  <flow id="JF1432" begin="20000" fromJunction="J7" toJunction="J4" end="25000" vehsPerHour="54.96000000000001"/>
  <flow id="JF1433" begin="20000" fromJunction="J7" toJunction="J5" end="25000" vehsPerHour="54.96000000000001"/>
  <flow id="JF1434" begin="20000" fromJunction="J7" toJunction="J6" end="25000" vehsPerHour="54.96000000000001"/>
  <flow id="JF1435" begin="20000" fromJunction="J0" toJunction="J4" end="25000" vehsPerHour="1374.0"/>
  <flow id="JF1436" begin="20000" fromJunction="J0" toJunction="J3" end="25000" vehsPerHour="343.5"/>
  <flow id="JF1437" begin="20000" fromJunction="J0" toJunction="J5" end="25000" vehsPerHour="343.5"/>
  <flow id="JF1438" begin="20000" fromJunction="J0" toJunction="J6" end="25000" vehsPerHour="343.5"/>
  <flow id="JF1439" begin="20000" fromJunction="J0" toJunction="J7" end="25000" vehsPerHour="343.5"/>
  <flow id="JF1440" begin="30000" fromJunction="J3" toJunction="J4" end="35000" vehsPerHour="1374.0"/>
  <flow id="JF1441" begin="30000" fromJunction="J3" toJunction="J0" end="35000" vehsPerHour="343.5"/>
  <flow id="JF1442" begin="30000" fromJunction="J3" toJunction="J5" end="35000" vehsPerHour="343.5"/>
  <flow id="JF1443" begin="30000" fromJunction="J3" toJunction="J6" end="35000" vehsPerHour="343.5"/>
  <flow id="JF1444" begin="30000" fromJunction="J3" toJunction="J7" end="35000" vehsPerHour="343.5"/>
  <flow id="JF1445" begin="30000" fromJunction="J4" toJunction="J0" end="35000" vehsPerHour="54.96000000000001"/>
  <flow id="JF1446" begin="30000" fromJunction="J4" toJunction="J3" end="35000" vehsPerHour="54.96000000000001"/>
  <flow id="JF1447" begin="30000" fromJunction="J4" toJunction="J5" end="35000" vehsPerHour="54.96000000000001"/>
  <flow id="JF1448" begin="30000" fromJunction="J4" toJunction="J6" end="35000" vehsPerHour="54.96000000000001"/>
  <flow id="JF1449" begin="30000" fromJunction="J4" toJunction="J7" end="35000" vehsPerHour="54.96000000000001"/>
  <flow id="JF1450" begin="30000" fromJunction="J5" toJunction="J0" end="35000" vehsPerHour="54.96000000000001"/>
  <flow id="JF1451" begin="30000" fromJunction="J5" toJunction="J3" end="35000" vehsPerHour="54.96000000000001"/>
  <flow id="JF1452" begin="30000" fromJunction="J5" toJunction="J4" end="35000" vehsPerHour="54.96000000000001"/>
  <flow id="JF1453" begin="30000" fromJunction="J5" toJunction="J6" end="35000" vehsPerHour="54.96000000000001"/>
  <flow id="JF1454" begin="30000" fromJunction="J5" toJunction="J7" end="35000" vehsPerHour="54.96000000000001"/>
  <flow id="JF1455" begin="30000" fromJunction="J6" toJunction="J4" end="35000" vehsPerHour="687.0"/>
  <flow id="JF1456" begin="30000" fromJunction="J6" toJunction="J0" end="35000" vehsPerHour="171.75"/>
  <flow id="JF1457" begin="30000" fromJunction="J6" toJunction="J3" end="35000" vehsPerHour="171.75"/>
  <flow id="JF1458" begin="30000" fromJunction="J6" toJunction="J5" end="35000" vehsPerHour="171.75"/>
  <flow id="JF1459" begin="30000" fromJunction="J6" toJunction="J7" end="35000" vehsPerHour="171.75"/>
  <flow id="JF1460" begin="30000" fromJunction="J7" toJunction="J0" end="35000" vehsPerHour="54.96000000000001"/>
  <flow id="JF1461" begin="30000" fromJunction="J7" toJunction="J3" end="35000" vehsPerHour="54.96000000000001"/>
  <flow id="JF1462" begin="30000" fromJunction="J7" toJunction="J4" end="35000" vehsPerHour="54.96000000000001"/>
  <flow id="JF1463" begin="30000" fromJunction="J7" toJunction="J5" end="35000" vehsPerHour="54.96000000000001"/>
  <flow id="JF1464" begin="30000" fromJunction="J7" toJunction="J6" end="35000" vehsPerHour="54.96000000000001"/>
  <flow id="JF1465" begin="30000" fromJunction="J0" toJunction="J5" end="35000" vehsPerHour="1374.0"/>
  <flow id="JF1466" begin="30000" fromJunction="J0" toJunction="J3" end="35000" vehsPerHour="343.5"/>
  <flow id="JF1467" begin="30000" fromJunction="J0" toJunction="J4" end="35000" vehsPerHour="343.5"/>
  <flow id="JF1468" begin="30000" fromJunction="J0" toJunction="J6" end="35000" vehsPerHour="343.5"/>
  <flow id="JF1469" begin="30000" fromJunction="J0" toJunction="J7" end="35000" vehsPerHour="343.5"/>
  <flow id="JF1470" begin="40000" fromJunction="J3" toJunction="J0" end="45000" vehsPerHour="109.92000000000002"/>
  <flow id="JF1471" begin="40000" fromJunction="J3" toJunction="J4" end="45000" vehsPerHour="109.92000000000002"/>
  <flow id="JF1472" begin="40000" fromJunction="J3" toJunction="J5" end="45000" vehsPerHour="109.92000000000002"/>
  <flow id="JF1473" begin="40000" fromJunction="J3" toJunction="J6" end="45000" vehsPerHour="109.92000000000002"/>
  <flow id="JF1474" begin="40000" fromJunction="J3" toJunction="J7" end="45000" vehsPerHour="109.92000000000002"/>
  <flow id="JF1475" begin="40000" fromJunction="J4" toJunction="J3" end="45000" vehsPerHour="687.0"/>
  <flow id="JF1476" begin="40000" fromJunction="J4" toJunction="J0" end="45000" vehsPerHour="171.75"/>
  <flow id="JF1477" begin="40000" fromJunction="J4" toJunction="J5" end="45000" vehsPerHour="171.75"/>
  <flow id="JF1478" begin="40000" fromJunction="J4" toJunction="J6" end="45000" vehsPerHour="171.75"/>
  <flow id="JF1479" begin="40000" fromJunction="J4" toJunction="J7" end="45000" vehsPerHour="171.75"/>
  <flow id="JF1480" begin="40000" fromJunction="J5" toJunction="J7" end="45000" vehsPerHour="687.0"/>
  <flow id="JF1481" begin="40000" fromJunction="J5" toJunction="J0" end="45000" vehsPerHour="171.75"/>
  <flow id="JF1482" begin="40000" fromJunction="J5" toJunction="J3" end="45000" vehsPerHour="171.75"/>
  <flow id="JF1483" begin="40000" fromJunction="J5" toJunction="J4" end="45000" vehsPerHour="171.75"/>
  <flow id="JF1484" begin="40000" fromJunction="J5" toJunction="J6" end="45000" vehsPerHour="171.75"/>
  <flow id="JF1485" begin="40000" fromJunction="J6" toJunction="J0" end="45000" vehsPerHour="687.0"/>
  <flow id="JF1486" begin="40000" fromJunction="J6" toJunction="J3" end="45000" vehsPerHour="171.75"/>
  <flow id="JF1487" begin="40000" fromJunction="J6" toJunction="J4" end="45000" vehsPerHour="171.75"/>
  <flow id="JF1488" begin="40000" fromJunction="J6" toJunction="J5" end="45000" vehsPerHour="171.75"/>
  <flow id="JF1489" begin="40000" fromJunction="J6" toJunction="J7" end="45000" vehsPerHour="171.75"/>
  <flow id="JF1490" begin="40000" fromJunction="J7" toJunction="J0" end="45000" vehsPerHour="54.96000000000001"/>
  <flow id="JF1491" begin="40000" fromJunction="J7" toJunction="J3" end="45000" vehsPerHour="54.96000000000001"/>
  <flow id="JF1492" begin="40000" fromJunction="J7" toJunction="J4" end="45000" vehsPerHour="54.96000000000001"/>
  <flow id="JF1493" begin="40000" fromJunction="J7" toJunction="J5" end="45000" vehsPerHour="54.96000000000001"/>
  <flow id="JF1494" begin="40000" fromJunction="J7" toJunction="J6" end="45000" vehsPerHour="54.96000000000001"/>
  <flow id="JF1495" begin="40000" fromJunction="J0" toJunction="J3" end="45000" vehsPerHour="109.92000000000002"/>
  <flow id="JF1496" begin="40000" fromJunction="J0" toJunction="J4" end="45000" vehsPerHour="109.92000000000002"/>
  <flow id="JF1497" begin="40000" fromJunction="J0" toJunction="J5" end="45000" vehsPerHour="109.92000000000002"/>
  <flow id="JF1498" begin="40000" fromJunction="J0" toJunction="J6" end="45000" vehsPerHour="109.92000000000002"/>
  <flow id="JF1499" begin="40000" fromJunction="J0" toJunction="J7" end="45000" vehsPerHour="109.92000000000002"/>
</routes>