<?xml version="1.0" encoding="UTF-8"?>
<routes xmlns:xsi="http://www.w3.org/2001/XMLSchema-instance" xsi:noNamespaceSchemaLocation="http://sumo.dlr.de/xsd/routes_file.xsd">
  <flow id="JF450" begin="0" fromJunction="J3" toJunction="J0" end="5000" vehsPerHour="109.92000000000002"/>
  <flow id="JF451" begin="0" fromJunction="J3" toJunction="J4" end="5000" vehsPerHour="109.92000000000002"/>
  <flow id="JF452" begin="0" fromJunction="J3" toJunction="J5" end="5000" vehsPerHour="109.92000000000002"/>
  <flow id="JF453" begin="0" fromJunction="J3" toJunction="J6" end="5000" vehsPerHour="109.92000000000002"/>
  <flow id="JF454" begin="0" fromJunction="J3" toJunction="J7" end="5000" vehsPerHour="109.92000000000002"/>
  <flow id="JF455" begin="0" fromJunction="J4" toJunction="J0" end="5000" vehsPerHour="54.96000000000001"/>
  <flow id="JF456" begin="0" fromJunction="J4" toJunction="J3" end="5000" vehsPerHour="54.96000000000001"/>
  <flow id="JF457" begin="0" fromJunction="J4" toJunction="J5" end="5000" vehsPerHour="54.96000000000001"/>
  <flow id="JF458" begin="0" fromJunction="J4" toJunction="J6" end="5000" vehsPerHour="54.96000000000001"/>
  <flow id="JF459" begin="0" fromJunction="J4" toJunction="J7" end="5000" vehsPerHour="54.96000000000001"/>
  <flow id="JF460" begin="0" fromJunction="J5" toJunction="J3" end="5000" vehsPerHour="687.0"/>
  <flow id="JF461" begin="0" fromJunction="J5" toJunction="J0" end="5000" vehsPerHour="171.75"/>
  <flow id="JF462" begin="0" fromJunction="J5" toJunction="J4" end="5000" vehsPerHour="171.75"/>
  <flow id="JF463" begin="0" fromJunction="J5" toJunction="J6" end="5000" vehsPerHour="171.75"/>
  <flow id="JF464" begin="0" fromJunction="J5" toJunction="J7" end="5000" vehsPerHour="171.75"/>
  <flow id="JF465" begin="0" fromJunction="J6" toJunction="J0" end="5000" vehsPerHour="54.96000000000001"/>
  <flow id="JF466" begin="0" fromJunction="J6" toJunction="J3" end="5000" vehsPerHour="54.96000000000001"/>
  <flow id="JF467" begin="0" fromJunction="J6" toJunction="J4" end="5000" vehsPerHour="54.96000000000001"/>
  <flow id="JF468" begin="0" fromJunction="J6" toJunction="J5" end="5000" vehsPerHour="54.96000000000001"/>
  <flow id="JF469" begin="0" fromJunction="J6" toJunction="J7" end="5000" vehsPerHour="54.96000000000001"/>
  <flow id="JF470" begin="0" fromJunction="J7" toJunction="J6" end="5000" vehsPerHour="687.0"/>
  <flow id="JF471" begin="0" fromJunction="J7" toJunction="J0" end="5000" vehsPerHour="171.75"/>
  <flow id="JF472" begin="0" fromJunction="J7" toJunction="J3" end="5000" vehsPerHour="171.75"/>
  <flow id="JF473" begin="0" fromJunction="J7" toJunction="J4" end="5000" vehsPerHour="171.75"/>
  <flow id="JF474" begin="0" fromJunction="J7" toJunction="J5" end="5000" vehsPerHour="171.75"/>
  <flow id="JF475" begin="0" fromJunction="J0" toJunction="J5" end="5000" vehsPerHour="1374.0"/>
  <flow id="JF476" begin="0" fromJunction="J0" toJunction="J3" end="5000" vehsPerHour="343.5"/>
  <flow id="JF477" begin="0" fromJunction="J0" toJunction="J4" end="5000" vehsPerHour="343.5"/>
  <flow id="JF478" begin="0" fromJunction="J0" toJunction="J6" end="5000" vehsPerHour="343.5"/>
  <flow id="JF479" begin="0" fromJunction="J0" toJunction="J7" end="5000" vehsPerHour="343.5"/>
  <flow id="JF480" begin="10000" fromJunction="J3" toJunction="J0" end="15000" vehsPerHour="109.92000000000002"/>
  <flow id="JF481" begin="10000" fromJunction="J3" toJunction="J4" end="15000" vehsPerHour="109.92000000000002"/>
  <flow id="JF482" begin="10000" fromJunction="J3" toJunction="J5" end="15000" vehsPerHour="109.92000000000002"/>
  <flow id="JF483" begin="10000" fromJunction="J3" toJunction="J6" end="15000" vehsPerHour="109.92000000000002"/>
  <flow id="JF484" begin="10000" fromJunction="J3" toJunction="J7" end="15000" vehsPerHour="109.92000000000002"/>
  <flow id="JF485" begin="10000" fromJunction="J4" toJunction="J6" end="15000" vehsPerHour="687.0"/>
  <flow id="JF486" begin="10000" fromJunction="J4" toJunction="J0" end="15000" vehsPerHour="171.75"/>
  <flow id="JF487" begin="10000" fromJunction="J4" toJunction="J3" end="15000" vehsPerHour="171.75"/>
  <flow id="JF488" begin="10000" fromJunction="J4" toJunction="J5" end="15000" vehsPerHour="171.75"/>
  <flow id="JF489" begin="10000" fromJunction="J4" toJunction="J7" end="15000" vehsPerHour="171.75"/>
  <flow id="JF490" begin="10000" fromJunction="J5" toJunction="J6" end="15000" vehsPerHour="687.0"/>
  <flow id="JF491" begin="10000" fromJunction="J5" toJunction="J0" end="15000" vehsPerHour="171.75"/>
  <flow id="JF492" begin="10000" fromJunction="J5" toJunction="J3" end="15000" vehsPerHour="171.75"/>
  <flow id="JF493" begin="10000" fromJunction="J5" toJunction="J4" end="15000" vehsPerHour="171.75"/>
  <flow id="JF494" begin="10000" fromJunction="J5" toJunction="J7" end="15000" vehsPerHour="171.75"/>
  <flow id="JF495" begin="10000" fromJunction="J6" toJunction="J0" end="15000" vehsPerHour="54.96000000000001"/>
  <flow id="JF496" begin="10000" fromJunction="J6" toJunction="J3" end="15000" vehsPerHour="54.96000000000001"/>
  <flow id="JF497" begin="10000" fromJunction="J6" toJunction="J4" end="15000" vehsPerHour="54.96000000000001"/>
  <flow id="JF498" begin="10000" fromJunction="J6" toJunction="J5" end="15000" vehsPerHour="54.96000000000001"/>
  <flow id="JF499" begin="10000" fromJunction="J6" toJunction="J7" end="15000" vehsPerHour="54.96000000000001"/>
  <flow id="JF500" begin="10000" fromJunction="J7" toJunction="J4" end="15000" vehsPerHour="687.0"/>
  <flow id="JF501" begin="10000" fromJunction="J7" toJunction="J0" end="15000" vehsPerHour="171.75"/>
  <flow id="JF502" begin="10000" fromJunction="J7" toJunction="J3" end="15000" vehsPerHour="171.75"/>
  <flow id="JF503" begin="10000" fromJunction="J7" toJunction="J5" end="15000" vehsPerHour="171.75"/>
  <flow id="JF504" begin="10000" fromJunction="J7" toJunction="J6" end="15000" vehsPerHour="171.75"/>
  <flow id="JF505" begin="10000" fromJunction="J0" toJunction="J3" end="15000" vehsPerHour="109.92000000000002"/>
  <flow id="JF506" begin="10000" fromJunction="J0" toJunction="J4" end="15000" vehsPerHour="109.92000000000002"/>
  <flow id="JF507" begin="10000" fromJunction="J0" toJunction="J5" end="15000" vehsPerHour="109.92000000000002"/>
  <flow id="JF508" begin="10000" fromJunction="J0" toJunction="J6" end="15000" vehsPerHour="109.92000000000002"/>
  <flow id="JF509" begin="10000" fromJunction="J0" toJunction="J7" end="15000" vehsPerHour="109.92000000000002"/>
  <flow id="JF510" begin="20000" fromJunction="J3" toJunction="J0" end="25000" vehsPerHour="109.92000000000002"/>
  <flow id="JF511" begin="20000" fromJunction="J3" toJunction="J4" end="25000" vehsPerHour="109.92000000000002"/>
  <flow id="JF512" begin="20000" fromJunction="J3" toJunction="J5" end="25000" vehsPerHour="109.92000000000002"/>
  <flow id="JF513" begin="20000" fromJunction="J3" toJunction="J6" end="25000" vehsPerHour="109.92000000000002"/>
  <flow id="JF514" begin="20000" fromJunction="J3" toJunction="J7" end="25000" vehsPerHour="109.92000000000002"/>
  <flow id="JF515" begin="20000" fromJunction="J4" toJunction="J0" end="25000" vehsPerHour="54.96000000000001"/>
  <flow id="JF516" begin="20000" fromJunction="J4" toJunction="J3" end="25000" vehsPerHour="54.96000000000001"/>
  <flow id="JF517" begin="20000" fromJunction="J4" toJunction="J5" end="25000" vehsPerHour="54.96000000000001"/>
  <flow id="JF518" begin="20000" fromJunction="J4" toJunction="J6" end="25000" vehsPerHour="54.96000000000001"/>
  <flow id="JF519" begin="20000" fromJunction="J4" toJunction="J7" end="25000" vehsPerHour="54.96000000000001"/>
  <flow id="JF520" begin="20000" fromJunction="J5" toJunction="J7" end="25000" vehsPerHour="687.0"/>
  <flow id="JF521" begin="20000" fromJunction="J5" toJunction="J0" end="25000" vehsPerHour="171.75"/>
  <flow id="JF522" begin="20000" fromJunction="J5" toJunction="J3" end="25000" vehsPerHour="171.75"/>
  <flow id="JF523" begin="20000" fromJunction="J5" toJunction="J4" end="25000" vehsPerHour="171.75"/>
  <flow id="JF524" begin="20000" fromJunction="J5" toJunction="J6" end="25000" vehsPerHour="171.75"/>
  <flow id="JF525" begin="20000" fromJunction="J6" toJunction="J5" end="25000" vehsPerHour="499.6363636363636"/>
  <flow id="JF526" begin="20000" fromJunction="J6" toJunction="J7" end="25000" vehsPerHour="499.6363636363636"/>
  <flow id="JF527" begin="20000" fromJunction="J6" toJunction="J0" end="25000" vehsPerHour="124.9090909090909"/>
  <flow id="JF528" begin="20000" fromJunction="J6" toJunction="J3" end="25000" vehsPerHour="124.9090909090909"/>
  <flow id="JF529" begin="20000" fromJunction="J6" toJunction="J4" end="25000" vehsPerHour="124.9090909090909"/>
  <flow id="JF530" begin="20000" fromJunction="J7" toJunction="J0" end="25000" vehsPerHour="54.96000000000001"/>
  <flow id="JF531" begin="20000" fromJunction="J7" toJunction="J3" end="25000" vehsPerHour="54.96000000000001"/>
  <flow id="JF532" begin="20000" fromJunction="J7" toJunction="J4" end="25000" vehsPerHour="54.96000000000001"/>
  <flow id="JF533" begin="20000" fromJunction="J7" toJunction="J5" end="25000" vehsPerHour="54.96000000000001"/>
  <flow id="JF534" begin="20000" fromJunction="J7" toJunction="J6" end="25000" vehsPerHour="54.96000000000001"/>
  <flow id="JF535" begin="20000" fromJunction="J0" toJunction="J3" end="25000" vehsPerHour="109.92000000000002"/>
  <flow id="JF536" begin="20000" fromJunction="J0" toJunction="J4" end="25000" vehsPerHour="109.92000000000002"/>
  <flow id="JF537" begin="20000" fromJunction="J0" toJunction="J5" end="25000" vehsPerHour="109.92000000000002"/>
  <flow id="JF538" begin="20000" fromJunction="J0" toJunction="J6" end="25000" vehsPerHour="109.92000000000002"/>
  <flow id="JF539" begin="20000" fromJunction="J0" toJunction="J7" end="25000" vehsPerHour="109.92000000000002"/>
  <flow id="JF540" begin="30000" fromJunction="J3" toJunction="J0" end="35000" vehsPerHour="109.92000000000002"/>
  <flow id="JF541" begin="30000" fromJunction="J3" toJunction="J4" end="35000" vehsPerHour="109.92000000000002"/>
  <flow id="JF542" begin="30000" fromJunction="J3" toJunction="J5" end="35000" vehsPerHour="109.92000000000002"/>
  <flow id="JF543" begin="30000" fromJunction="J3" toJunction="J6" end="35000" vehsPerHour="109.92000000000002"/>
  <flow id="JF544" begin="30000" fromJunction="J3" toJunction="J7" end="35000" vehsPerHour="109.92000000000002"/>
  <flow id="JF545" begin="30000" fromJunction="J4" toJunction="J0" end="35000" vehsPerHour="687.0"/>
  <flow id="JF546" begin="30000" fromJunction="J4" toJunction="J3" end="35000" vehsPerHour="171.75"/>
  <flow id="JF547" begin="30000" fromJunction="J4" toJunction="J5" end="35000" vehsPerHour="171.75"/>
  <flow id="JF548" begin="30000" fromJunction="J4" toJunction="J6" end="35000" vehsPerHour="171.75"/>
  <flow id="JF549" begin="30000" fromJunction="J4" toJunction="J7" end="35000" vehsPerHour="171.75"/>
  <flow id="JF550" begin="30000" fromJunction="J5" toJunction="J0" end="35000" vehsPerHour="54.96000000000001"/>
  <flow id="JF551" begin="30000" fromJunction="J5" toJunction="J3" end="35000" vehsPerHour="54.96000000000001"/>
  <flow id="JF552" begin="30000" fromJunction="J5" toJunction="J4" end="35000" vehsPerHour="54.96000000000001"/>
  <flow id="JF553" begin="30000" fromJunction="J5" toJunction="J6" end="35000" vehsPerHour="54.96000000000001"/>
  <flow id="JF554" begin="30000" fromJunction="J5" toJunction="J7" end="35000" vehsPerHour="54.96000000000001"/>
  <flow id="JF555" begin="30000" fromJunction="J6" toJunction="J0" end="35000" vehsPerHour="687.0"/>
  <flow id="JF556" begin="30000" fromJunction="J6" toJunction="J3" end="35000" vehsPerHour="171.75"/>
  <flow id="JF557" begin="30000" fromJunction="J6" toJunction="J4" end="35000" vehsPerHour="171.75"/>
  <flow id="JF558" begin="30000" fromJunction="J6" toJunction="J5" end="35000" vehsPerHour="171.75"/>
  <flow id="JF559" begin="30000" fromJunction="J6" toJunction="J7" end="35000" vehsPerHour="171.75"/>
  <flow id="JF560" begin="30000" fromJunction="J7" toJunction="J0" end="35000" vehsPerHour="687.0"/>
  <flow id="JF561" begin="30000" fromJunction="J7" toJunction="J3" end="35000" vehsPerHour="171.75"/>
  <flow id="JF562" begin="30000" fromJunction="J7" toJunction="J4" end="35000" vehsPerHour="171.75"/>
  <flow id="JF563" begin="30000" fromJunction="J7" toJunction="J5" end="35000" vehsPerHour="171.75"/>
  <flow id="JF564" begin="30000" fromJunction="J7" toJunction="J6" end="35000" vehsPerHour="171.75"/>
  <flow id="JF565" begin="30000" fromJunction="J0" toJunction="J3" end="35000" vehsPerHour="109.92000000000002"/>
  <flow id="JF566" begin="30000" fromJunction="J0" toJunction="J4" end="35000" vehsPerHour="109.92000000000002"/>
  <flow id="JF567" begin="30000" fromJunction="J0" toJunction="J5" end="35000" vehsPerHour="109.92000000000002"/>
  <flow id="JF568" begin="30000" fromJunction="J0" toJunction="J6" end="35000" vehsPerHour="109.92000000000002"/>
  <flow id="JF569" begin="30000" fromJunction="J0" toJunction="J7" end="35000" vehsPerHour="109.92000000000002"/>
  <flow id="JF570" begin="40000" fromJunction="J3" toJunction="J0" end="45000" vehsPerHour="1374.0"/>
  <flow id="JF571" begin="40000" fromJunction="J3" toJunction="J4" end="45000" vehsPerHour="343.5"/>
  <flow id="JF572" begin="40000" fromJunction="J3" toJunction="J5" end="45000" vehsPerHour="343.5"/>
  <flow id="JF573" begin="40000" fromJunction="J3" toJunction="J6" end="45000" vehsPerHour="343.5"/>
  <flow id="JF574" begin="40000" fromJunction="J3" toJunction="J7" end="45000" vehsPerHour="343.5"/>
  <flow id="JF575" begin="40000" fromJunction="J4" toJunction="J0" end="45000" vehsPerHour="54.96000000000001"/>
  <flow id="JF576" begin="40000" fromJunction="J4" toJunction="J3" end="45000" vehsPerHour="54.96000000000001"/>
  <flow id="JF577" begin="40000" fromJunction="J4" toJunction="J5" end="45000" vehsPerHour="54.96000000000001"/>
  <flow id="JF578" begin="40000" fromJunction="J4" toJunction="J6" end="45000" vehsPerHour="54.96000000000001"/>
  <flow id="JF579" begin="40000" fromJunction="J4" toJunction="J7" end="45000" vehsPerHour="54.96000000000001"/>
  <flow id="JF580" begin="40000" fromJunction="J5" toJunction="J0" end="45000" vehsPerHour="54.96000000000001"/>
  <flow id="JF581" begin="40000" fromJunction="J5" toJunction="J3" end="45000" vehsPerHour="54.96000000000001"/>
  <flow id="JF582" begin="40000" fromJunction="J5" toJunction="J4" end="45000" vehsPerHour="54.96000000000001"/>
  <flow id="JF583" begin="40000" fromJunction="J5" toJunction="J6" end="45000" vehsPerHour="54.96000000000001"/>
  <flow id="JF584" begin="40000" fromJunction="J5" toJunction="J7" end="45000" vehsPerHour="54.96000000000001"/>
  <flow id="JF585" begin="40000" fromJunction="J6" toJunction="J0" end="45000" vehsPerHour="54.96000000000001"/>
  <flow id="JF586" begin="40000" fromJunction="J6" toJunction="J3" end="45000" vehsPerHour="54.96000000000001"/>
  <flow id="JF587" begin="40000" fromJunction="J6" toJunction="J4" end="45000" vehsPerHour="54.96000000000001"/>
  <flow id="JF588" begin="40000" fromJunction="J6" toJunction="J5" end="45000" vehsPerHour="54.96000000000001"/>
  <flow id="JF589" begin="40000" fromJunction="J6" toJunction="J7" end="45000" vehsPerHour="54.96000000000001"/>
  <flow id="JF590" begin="40000" fromJunction="J7" toJunction="J4" end="45000" vehsPerHour="687.0"/>
  <flow id="JF591" begin="40000" fromJunction="J7" toJunction="J0" end="45000" vehsPerHour="171.75"/>
  <flow id="JF592" begin="40000" fromJunction="J7" toJunction="J3" end="45000" vehsPerHour="171.75"/>
  <flow id="JF593" begin="40000" fromJunction="J7" toJunction="J5" end="45000" vehsPerHour="171.75"/>
  <flow id="JF594" begin="40000" fromJunction="J7" toJunction="J6" end="45000" vehsPerHour="171.75"/>
  <flow id="JF595" begin="40000" fromJunction="J0" toJunction="J7" end="45000" vehsPerHour="1374.0"/>
  <flow id="JF596" begin="40000" fromJunction="J0" toJunction="J3" end="45000" vehsPerHour="343.5"/>
  <flow id="JF597" begin="40000" fromJunction="J0" toJunction="J4" end="45000" vehsPerHour="343.5"/>
  <flow id="JF598" begin="40000" fromJunction="J0" toJunction="J5" end="45000" vehsPerHour="343.5"/>
  <flow id="JF599" begin="40000" fromJunction="J0" toJunction="J6" end="45000" vehsPerHour="343.5"/>
</routes>