<?xml version="1.0" encoding="UTF-8"?>
<routes xmlns:xsi="http://www.w3.org/2001/XMLSchema-instance" xsi:noNamespaceSchemaLocation="http://sumo.dlr.de/xsd/routes_file.xsd">
  <flow id="JF600" begin="0" fromJunction="J3" toJunction="J0" end="1000" vehsPerHour="109.92000000000002"/>
  <flow id="JF601" begin="0" fromJunction="J3" toJunction="J4" end="1000" vehsPerHour="109.92000000000002"/>
  <flow id="JF602" begin="0" fromJunction="J3" toJunction="J5" end="1000" vehsPerHour="109.92000000000002"/>
  <flow id="JF603" begin="0" fromJunction="J3" toJunction="J6" end="1000" vehsPerHour="109.92000000000002"/>
  <flow id="JF604" begin="0" fromJunction="J3" toJunction="J7" end="1000" vehsPerHour="109.92000000000002"/>
  <flow id="JF605" begin="0" fromJunction="J4" toJunction="J0" end="1000" vehsPerHour="499.6363636363636"/>
  <flow id="JF606" begin="0" fromJunction="J4" toJunction="J3" end="1000" vehsPerHour="499.6363636363636"/>
  <flow id="JF607" begin="0" fromJunction="J4" toJunction="J5" end="1000" vehsPerHour="124.9090909090909"/>
  <flow id="JF608" begin="0" fromJunction="J4" toJunction="J6" end="1000" vehsPerHour="124.9090909090909"/>
  <flow id="JF609" begin="0" fromJunction="J4" toJunction="J7" end="1000" vehsPerHour="124.9090909090909"/>
  <flow id="JF610" begin="0" fromJunction="J5" toJunction="J0" end="1000" vehsPerHour="54.96000000000001"/>
  <flow id="JF611" begin="0" fromJunction="J5" toJunction="J3" end="1000" vehsPerHour="54.96000000000001"/>
  <flow id="JF612" begin="0" fromJunction="J5" toJunction="J4" end="1000" vehsPerHour="54.96000000000001"/>
  <flow id="JF613" begin="0" fromJunction="J5" toJunction="J6" end="1000" vehsPerHour="54.96000000000001"/>
  <flow id="JF614" begin="0" fromJunction="J5" toJunction="J7" end="1000" vehsPerHour="54.96000000000001"/>
  <flow id="JF615" begin="0" fromJunction="J6" toJunction="J3" end="1000" vehsPerHour="687.0"/>
  <flow id="JF616" begin="0" fromJunction="J6" toJunction="J0" end="1000" vehsPerHour="171.75"/>
  <flow id="JF617" begin="0" fromJunction="J6" toJunction="J4" end="1000" vehsPerHour="171.75"/>
  <flow id="JF618" begin="0" fromJunction="J6" toJunction="J5" end="1000" vehsPerHour="171.75"/>
  <flow id="JF619" begin="0" fromJunction="J6" toJunction="J7" end="1000" vehsPerHour="171.75"/>
  <flow id="JF620" begin="0" fromJunction="J7" toJunction="J0" end="1000" vehsPerHour="54.96000000000001"/>
  <flow id="JF621" begin="0" fromJunction="J7" toJunction="J3" end="1000" vehsPerHour="54.96000000000001"/>
  <flow id="JF622" begin="0" fromJunction="J7" toJunction="J4" end="1000" vehsPerHour="54.96000000000001"/>
  <flow id="JF623" begin="0" fromJunction="J7" toJunction="J5" end="1000" vehsPerHour="54.96000000000001"/>
  <flow id="JF624" begin="0" fromJunction="J7" toJunction="J6" end="1000" vehsPerHour="54.96000000000001"/>
  <flow id="JF625" begin="0" fromJunction="J0" toJunction="J3" end="1000" vehsPerHour="109.92000000000002"/>
  <flow id="JF626" begin="0" fromJunction="J0" toJunction="J4" end="1000" vehsPerHour="109.92000000000002"/>
  <flow id="JF627" begin="0" fromJunction="J0" toJunction="J5" end="1000" vehsPerHour="109.92000000000002"/>
  <flow id="JF628" begin="0" fromJunction="J0" toJunction="J6" end="1000" vehsPerHour="109.92000000000002"/>
  <flow id="JF629" begin="0" fromJunction="J0" toJunction="J7" end="1000" vehsPerHour="109.92000000000002"/>
  <flow id="JF630" begin="1000" fromJunction="J3" toJunction="J0" end="2000" vehsPerHour="109.92000000000002"/>
  <flow id="JF631" begin="1000" fromJunction="J3" toJunction="J4" end="2000" vehsPerHour="109.92000000000002"/>
  <flow id="JF632" begin="1000" fromJunction="J3" toJunction="J5" end="2000" vehsPerHour="109.92000000000002"/>
  <flow id="JF633" begin="1000" fromJunction="J3" toJunction="J6" end="2000" vehsPerHour="109.92000000000002"/>
  <flow id="JF634" begin="1000" fromJunction="J3" toJunction="J7" end="2000" vehsPerHour="109.92000000000002"/>
  <flow id="JF635" begin="1000" fromJunction="J4" toJunction="J6" end="2000" vehsPerHour="687.0"/>
  <flow id="JF636" begin="1000" fromJunction="J4" toJunction="J0" end="2000" vehsPerHour="171.75"/>
  <flow id="JF637" begin="1000" fromJunction="J4" toJunction="J3" end="2000" vehsPerHour="171.75"/>
  <flow id="JF638" begin="1000" fromJunction="J4" toJunction="J5" end="2000" vehsPerHour="171.75"/>
  <flow id="JF639" begin="1000" fromJunction="J4" toJunction="J7" end="2000" vehsPerHour="171.75"/>
  <flow id="JF640" begin="1000" fromJunction="J5" toJunction="J0" end="2000" vehsPerHour="54.96000000000001"/>
  <flow id="JF641" begin="1000" fromJunction="J5" toJunction="J3" end="2000" vehsPerHour="54.96000000000001"/>
  <flow id="JF642" begin="1000" fromJunction="J5" toJunction="J4" end="2000" vehsPerHour="54.96000000000001"/>
  <flow id="JF643" begin="1000" fromJunction="J5" toJunction="J6" end="2000" vehsPerHour="54.96000000000001"/>
  <flow id="JF644" begin="1000" fromJunction="J5" toJunction="J7" end="2000" vehsPerHour="54.96000000000001"/>
  <flow id="JF645" begin="1000" fromJunction="J6" toJunction="J5" end="2000" vehsPerHour="687.0"/>
  <flow id="JF646" begin="1000" fromJunction="J6" toJunction="J0" end="2000" vehsPerHour="171.75"/>
  <flow id="JF647" begin="1000" fromJunction="J6" toJunction="J3" end="2000" vehsPerHour="171.75"/>
  <flow id="JF648" begin="1000" fromJunction="J6" toJunction="J4" end="2000" vehsPerHour="171.75"/>
  <flow id="JF649" begin="1000" fromJunction="J6" toJunction="J7" end="2000" vehsPerHour="171.75"/>
  <flow id="JF650" begin="1000" fromJunction="J7" toJunction="J0" end="2000" vehsPerHour="54.96000000000001"/>
  <flow id="JF651" begin="1000" fromJunction="J7" toJunction="J3" end="2000" vehsPerHour="54.96000000000001"/>
  <flow id="JF652" begin="1000" fromJunction="J7" toJunction="J4" end="2000" vehsPerHour="54.96000000000001"/>
  <flow id="JF653" begin="1000" fromJunction="J7" toJunction="J5" end="2000" vehsPerHour="54.96000000000001"/>
  <flow id="JF654" begin="1000" fromJunction="J7" toJunction="J6" end="2000" vehsPerHour="54.96000000000001"/>
  <flow id="JF655" begin="1000" fromJunction="J0" toJunction="J3" end="2000" vehsPerHour="1374.0"/>
  <flow id="JF656" begin="1000" fromJunction="J0" toJunction="J4" end="2000" vehsPerHour="343.5"/>
  <flow id="JF657" begin="1000" fromJunction="J0" toJunction="J5" end="2000" vehsPerHour="343.5"/>
  <flow id="JF658" begin="1000" fromJunction="J0" toJunction="J6" end="2000" vehsPerHour="343.5"/>
  <flow id="JF659" begin="1000" fromJunction="J0" toJunction="J7" end="2000" vehsPerHour="343.5"/>
  <flow id="JF660" begin="2000" fromJunction="J3" toJunction="J0" end="3000" vehsPerHour="109.92000000000002"/>
  <flow id="JF661" begin="2000" fromJunction="J3" toJunction="J4" end="3000" vehsPerHour="109.92000000000002"/>
  <flow id="JF662" begin="2000" fromJunction="J3" toJunction="J5" end="3000" vehsPerHour="109.92000000000002"/>
  <flow id="JF663" begin="2000" fromJunction="J3" toJunction="J6" end="3000" vehsPerHour="109.92000000000002"/>
  <flow id="JF664" begin="2000" fromJunction="J3" toJunction="J7" end="3000" vehsPerHour="109.92000000000002"/>
  <flow id="JF665" begin="2000" fromJunction="J4" toJunction="J3" end="3000" vehsPerHour="499.6363636363636"/>
  <flow id="JF666" begin="2000" fromJunction="J4" toJunction="J0" end="3000" vehsPerHour="499.6363636363636"/>
  <flow id="JF667" begin="2000" fromJunction="J4" toJunction="J5" end="3000" vehsPerHour="124.9090909090909"/>
  <flow id="JF668" begin="2000" fromJunction="J4" toJunction="J6" end="3000" vehsPerHour="124.9090909090909"/>
  <flow id="JF669" begin="2000" fromJunction="J4" toJunction="J7" end="3000" vehsPerHour="124.9090909090909"/>
  <flow id="JF670" begin="2000" fromJunction="J5" toJunction="J0" end="3000" vehsPerHour="54.96000000000001"/>
  <flow id="JF671" begin="2000" fromJunction="J5" toJunction="J3" end="3000" vehsPerHour="54.96000000000001"/>
  <flow id="JF672" begin="2000" fromJunction="J5" toJunction="J4" end="3000" vehsPerHour="54.96000000000001"/>
  <flow id="JF673" begin="2000" fromJunction="J5" toJunction="J6" end="3000" vehsPerHour="54.96000000000001"/>
  <flow id="JF674" begin="2000" fromJunction="J5" toJunction="J7" end="3000" vehsPerHour="54.96000000000001"/>
  <flow id="JF675" begin="2000" fromJunction="J6" toJunction="J0" end="3000" vehsPerHour="54.96000000000001"/>
  <flow id="JF676" begin="2000" fromJunction="J6" toJunction="J3" end="3000" vehsPerHour="54.96000000000001"/>
  <flow id="JF677" begin="2000" fromJunction="J6" toJunction="J4" end="3000" vehsPerHour="54.96000000000001"/>
  <flow id="JF678" begin="2000" fromJunction="J6" toJunction="J5" end="3000" vehsPerHour="54.96000000000001"/>
  <flow id="JF679" begin="2000" fromJunction="J6" toJunction="J7" end="3000" vehsPerHour="54.96000000000001"/>
  <flow id="JF680" begin="2000" fromJunction="J7" toJunction="J6" end="3000" vehsPerHour="687.0"/>
  <flow id="JF681" begin="2000" fromJunction="J7" toJunction="J0" end="3000" vehsPerHour="171.75"/>
  <flow id="JF682" begin="2000" fromJunction="J7" toJunction="J3" end="3000" vehsPerHour="171.75"/>
  <flow id="JF683" begin="2000" fromJunction="J7" toJunction="J4" end="3000" vehsPerHour="171.75"/>
  <flow id="JF684" begin="2000" fromJunction="J7" toJunction="J5" end="3000" vehsPerHour="171.75"/>
  <flow id="JF685" begin="2000" fromJunction="J0" toJunction="J3" end="3000" vehsPerHour="109.92000000000002"/>
  <flow id="JF686" begin="2000" fromJunction="J0" toJunction="J4" end="3000" vehsPerHour="109.92000000000002"/>
  <flow id="JF687" begin="2000" fromJunction="J0" toJunction="J5" end="3000" vehsPerHour="109.92000000000002"/>
  <flow id="JF688" begin="2000" fromJunction="J0" toJunction="J6" end="3000" vehsPerHour="109.92000000000002"/>
  <flow id="JF689" begin="2000" fromJunction="J0" toJunction="J7" end="3000" vehsPerHour="109.92000000000002"/>
  <flow id="JF690" begin="3000" fromJunction="J3" toJunction="J0" end="4000" vehsPerHour="1374.0"/>
  <flow id="JF691" begin="3000" fromJunction="J3" toJunction="J4" end="4000" vehsPerHour="343.5"/>
  <flow id="JF692" begin="3000" fromJunction="J3" toJunction="J5" end="4000" vehsPerHour="343.5"/>
  <flow id="JF693" begin="3000" fromJunction="J3" toJunction="J6" end="4000" vehsPerHour="343.5"/>
  <flow id="JF694" begin="3000" fromJunction="J3" toJunction="J7" end="4000" vehsPerHour="343.5"/>
  <flow id="JF695" begin="3000" fromJunction="J4" toJunction="J5" end="4000" vehsPerHour="687.0"/>
  <flow id="JF696" begin="3000" fromJunction="J4" toJunction="J0" end="4000" vehsPerHour="171.75"/>
  <flow id="JF697" begin="3000" fromJunction="J4" toJunction="J3" end="4000" vehsPerHour="171.75"/>
  <flow id="JF698" begin="3000" fromJunction="J4" toJunction="J6" end="4000" vehsPerHour="171.75"/>
  <flow id="JF699" begin="3000" fromJunction="J4" toJunction="J7" end="4000" vehsPerHour="171.75"/>
  <flow id="JF700" begin="3000" fromJunction="J5" toJunction="J4" end="4000" vehsPerHour="687.0"/>
  <flow id="JF701" begin="3000" fromJunction="J5" toJunction="J0" end="4000" vehsPerHour="171.75"/>
  <flow id="JF702" begin="3000" fromJunction="J5" toJunction="J3" end="4000" vehsPerHour="171.75"/>
  <flow id="JF703" begin="3000" fromJunction="J5" toJunction="J6" end="4000" vehsPerHour="171.75"/>
  <flow id="JF704" begin="3000" fromJunction="J5" toJunction="J7" end="4000" vehsPerHour="171.75"/>
  <flow id="JF705" begin="3000" fromJunction="J6" toJunction="J0" end="4000" vehsPerHour="54.96000000000001"/>
  <flow id="JF706" begin="3000" fromJunction="J6" toJunction="J3" end="4000" vehsPerHour="54.96000000000001"/>
  <flow id="JF707" begin="3000" fromJunction="J6" toJunction="J4" end="4000" vehsPerHour="54.96000000000001"/>
  <flow id="JF708" begin="3000" fromJunction="J6" toJunction="J5" end="4000" vehsPerHour="54.96000000000001"/>
  <flow id="JF709" begin="3000" fromJunction="J6" toJunction="J7" end="4000" vehsPerHour="54.96000000000001"/>
  <flow id="JF710" begin="3000" fromJunction="J7" toJunction="J0" end="4000" vehsPerHour="54.96000000000001"/>
  <flow id="JF711" begin="3000" fromJunction="J7" toJunction="J3" end="4000" vehsPerHour="54.96000000000001"/>
  <flow id="JF712" begin="3000" fromJunction="J7" toJunction="J4" end="4000" vehsPerHour="54.96000000000001"/>
  <flow id="JF713" begin="3000" fromJunction="J7" toJunction="J5" end="4000" vehsPerHour="54.96000000000001"/>
  <flow id="JF714" begin="3000" fromJunction="J7" toJunction="J6" end="4000" vehsPerHour="54.96000000000001"/>
  <flow id="JF715" begin="3000" fromJunction="J0" toJunction="J3" end="4000" vehsPerHour="109.92000000000002"/>
  <flow id="JF716" begin="3000" fromJunction="J0" toJunction="J4" end="4000" vehsPerHour="109.92000000000002"/>
  <flow id="JF717" begin="3000" fromJunction="J0" toJunction="J5" end="4000" vehsPerHour="109.92000000000002"/>
  <flow id="JF718" begin="3000" fromJunction="J0" toJunction="J6" end="4000" vehsPerHour="109.92000000000002"/>
  <flow id="JF719" begin="3000" fromJunction="J0" toJunction="J7" end="4000" vehsPerHour="109.92000000000002"/>
  <flow id="JF720" begin="4000" fromJunction="J3" toJunction="J0" end="5000" vehsPerHour="109.92000000000002"/>
  <flow id="JF721" begin="4000" fromJunction="J3" toJunction="J4" end="5000" vehsPerHour="109.92000000000002"/>
  <flow id="JF722" begin="4000" fromJunction="J3" toJunction="J5" end="5000" vehsPerHour="109.92000000000002"/>
  <flow id="JF723" begin="4000" fromJunction="J3" toJunction="J6" end="5000" vehsPerHour="109.92000000000002"/>
  <flow id="JF724" begin="4000" fromJunction="J3" toJunction="J7" end="5000" vehsPerHour="109.92000000000002"/>
  <flow id="JF725" begin="4000" fromJunction="J4" toJunction="J7" end="5000" vehsPerHour="687.0"/>
  <flow id="JF726" begin="4000" fromJunction="J4" toJunction="J0" end="5000" vehsPerHour="171.75"/>
  <flow id="JF727" begin="4000" fromJunction="J4" toJunction="J3" end="5000" vehsPerHour="171.75"/>
  <flow id="JF728" begin="4000" fromJunction="J4" toJunction="J5" end="5000" vehsPerHour="171.75"/>
  <flow id="JF729" begin="4000" fromJunction="J4" toJunction="J6" end="5000" vehsPerHour="171.75"/>
  <flow id="JF730" begin="4000" fromJunction="J5" toJunction="J6" end="5000" vehsPerHour="687.0"/>
  <flow id="JF731" begin="4000" fromJunction="J5" toJunction="J0" end="5000" vehsPerHour="171.75"/>
  <flow id="JF732" begin="4000" fromJunction="J5" toJunction="J3" end="5000" vehsPerHour="171.75"/>
  <flow id="JF733" begin="4000" fromJunction="J5" toJunction="J4" end="5000" vehsPerHour="171.75"/>
  <flow id="JF734" begin="4000" fromJunction="J5" toJunction="J7" end="5000" vehsPerHour="171.75"/>
  <flow id="JF735" begin="4000" fromJunction="J6" toJunction="J4" end="5000" vehsPerHour="687.0"/>
  <flow id="JF736" begin="4000" fromJunction="J6" toJunction="J0" end="5000" vehsPerHour="171.75"/>
  <flow id="JF737" begin="4000" fromJunction="J6" toJunction="J3" end="5000" vehsPerHour="171.75"/>
  <flow id="JF738" begin="4000" fromJunction="J6" toJunction="J5" end="5000" vehsPerHour="171.75"/>
  <flow id="JF739" begin="4000" fromJunction="J6" toJunction="J7" end="5000" vehsPerHour="171.75"/>
  <flow id="JF740" begin="4000" fromJunction="J7" toJunction="J0" end="5000" vehsPerHour="54.96000000000001"/>
  <flow id="JF741" begin="4000" fromJunction="J7" toJunction="J3" end="5000" vehsPerHour="54.96000000000001"/>
  <flow id="JF742" begin="4000" fromJunction="J7" toJunction="J4" end="5000" vehsPerHour="54.96000000000001"/>
  <flow id="JF743" begin="4000" fromJunction="J7" toJunction="J5" end="5000" vehsPerHour="54.96000000000001"/>
  <flow id="JF744" begin="4000" fromJunction="J7" toJunction="J6" end="5000" vehsPerHour="54.96000000000001"/>
  <flow id="JF745" begin="4000" fromJunction="J0" toJunction="J3" end="5000" vehsPerHour="109.92000000000002"/>
  <flow id="JF746" begin="4000" fromJunction="J0" toJunction="J4" end="5000" vehsPerHour="109.92000000000002"/>
  <flow id="JF747" begin="4000" fromJunction="J0" toJunction="J5" end="5000" vehsPerHour="109.92000000000002"/>
  <flow id="JF748" begin="4000" fromJunction="J0" toJunction="J6" end="5000" vehsPerHour="109.92000000000002"/>
  <flow id="JF749" begin="4000" fromJunction="J0" toJunction="J7" end="5000" vehsPerHour="109.92000000000002"/>
  <flow id="JF750" begin="5000" fromJunction="J3" toJunction="J0" end="6000" vehsPerHour="1374.0"/>
  <flow id="JF751" begin="5000" fromJunction="J3" toJunction="J4" end="6000" vehsPerHour="343.5"/>
  <flow id="JF752" begin="5000" fromJunction="J3" toJunction="J5" end="6000" vehsPerHour="343.5"/>
  <flow id="JF753" begin="5000" fromJunction="J3" toJunction="J6" end="6000" vehsPerHour="343.5"/>
  <flow id="JF754" begin="5000" fromJunction="J3" toJunction="J7" end="6000" vehsPerHour="343.5"/>
  <flow id="JF755" begin="5000" fromJunction="J4" toJunction="J0" end="6000" vehsPerHour="54.96000000000001"/>
  <flow id="JF756" begin="5000" fromJunction="J4" toJunction="J3" end="6000" vehsPerHour="54.96000000000001"/>
  <flow id="JF757" begin="5000" fromJunction="J4" toJunction="J5" end="6000" vehsPerHour="54.96000000000001"/>
  <flow id="JF758" begin="5000" fromJunction="J4" toJunction="J6" end="6000" vehsPerHour="54.96000000000001"/>
  <flow id="JF759" begin="5000" fromJunction="J4" toJunction="J7" end="6000" vehsPerHour="54.96000000000001"/>
  <flow id="JF760" begin="5000" fromJunction="J5" toJunction="J0" end="6000" vehsPerHour="54.96000000000001"/>
  <flow id="JF761" begin="5000" fromJunction="J5" toJunction="J3" end="6000" vehsPerHour="54.96000000000001"/>
  <flow id="JF762" begin="5000" fromJunction="J5" toJunction="J4" end="6000" vehsPerHour="54.96000000000001"/>
  <flow id="JF763" begin="5000" fromJunction="J5" toJunction="J6" end="6000" vehsPerHour="54.96000000000001"/>
  <flow id="JF764" begin="5000" fromJunction="J5" toJunction="J7" end="6000" vehsPerHour="54.96000000000001"/>
  <flow id="JF765" begin="5000" fromJunction="J6" toJunction="J0" end="6000" vehsPerHour="54.96000000000001"/>
  <flow id="JF766" begin="5000" fromJunction="J6" toJunction="J3" end="6000" vehsPerHour="54.96000000000001"/>
  <flow id="JF767" begin="5000" fromJunction="J6" toJunction="J4" end="6000" vehsPerHour="54.96000000000001"/>
  <flow id="JF768" begin="5000" fromJunction="J6" toJunction="J5" end="6000" vehsPerHour="54.96000000000001"/>
  <flow id="JF769" begin="5000" fromJunction="J6" toJunction="J7" end="6000" vehsPerHour="54.96000000000001"/>
  <flow id="JF770" begin="5000" fromJunction="J7" toJunction="J0" end="6000" vehsPerHour="54.96000000000001"/>
  <flow id="JF771" begin="5000" fromJunction="J7" toJunction="J3" end="6000" vehsPerHour="54.96000000000001"/>
  <flow id="JF772" begin="5000" fromJunction="J7" toJunction="J4" end="6000" vehsPerHour="54.96000000000001"/>
  <flow id="JF773" begin="5000" fromJunction="J7" toJunction="J5" end="6000" vehsPerHour="54.96000000000001"/>
  <flow id="JF774" begin="5000" fromJunction="J7" toJunction="J6" end="6000" vehsPerHour="54.96000000000001"/>
  <flow id="JF775" begin="5000" fromJunction="J0" toJunction="J4" end="6000" vehsPerHour="999.2727272727273"/>
  <flow id="JF776" begin="5000" fromJunction="J0" toJunction="J3" end="6000" vehsPerHour="999.2727272727273"/>
  <flow id="JF777" begin="5000" fromJunction="J0" toJunction="J5" end="6000" vehsPerHour="249.8181818181818"/>
  <flow id="JF778" begin="5000" fromJunction="J0" toJunction="J6" end="6000" vehsPerHour="249.8181818181818"/>
  <flow id="JF779" begin="5000" fromJunction="J0" toJunction="J7" end="6000" vehsPerHour="249.8181818181818"/>
  <flow id="JF780" begin="6000" fromJunction="J3" toJunction="J0" end="7000" vehsPerHour="109.92000000000002"/>
  <flow id="JF781" begin="6000" fromJunction="J3" toJunction="J4" end="7000" vehsPerHour="109.92000000000002"/>
  <flow id="JF782" begin="6000" fromJunction="J3" toJunction="J5" end="7000" vehsPerHour="109.92000000000002"/>
  <flow id="JF783" begin="6000" fromJunction="J3" toJunction="J6" end="7000" vehsPerHour="109.92000000000002"/>
  <flow id="JF784" begin="6000" fromJunction="J3" toJunction="J7" end="7000" vehsPerHour="109.92000000000002"/>
  <flow id="JF785" begin="6000" fromJunction="J4" toJunction="J0" end="7000" vehsPerHour="54.96000000000001"/>
  <flow id="JF786" begin="6000" fromJunction="J4" toJunction="J3" end="7000" vehsPerHour="54.96000000000001"/>
  <flow id="JF787" begin="6000" fromJunction="J4" toJunction="J5" end="7000" vehsPerHour="54.96000000000001"/>
  <flow id="JF788" begin="6000" fromJunction="J4" toJunction="J6" end="7000" vehsPerHour="54.96000000000001"/>
  <flow id="JF789" begin="6000" fromJunction="J4" toJunction="J7" end="7000" vehsPerHour="54.96000000000001"/>
  <flow id="JF790" begin="6000" fromJunction="J5" toJunction="J0" end="7000" vehsPerHour="687.0"/>
  <flow id="JF791" begin="6000" fromJunction="J5" toJunction="J3" end="7000" vehsPerHour="171.75"/>
  <flow id="JF792" begin="6000" fromJunction="J5" toJunction="J4" end="7000" vehsPerHour="171.75"/>
  <flow id="JF793" begin="6000" fromJunction="J5" toJunction="J6" end="7000" vehsPerHour="171.75"/>
  <flow id="JF794" begin="6000" fromJunction="J5" toJunction="J7" end="7000" vehsPerHour="171.75"/>
  <flow id="JF795" begin="6000" fromJunction="J6" toJunction="J3" end="7000" vehsPerHour="687.0"/>
  <flow id="JF796" begin="6000" fromJunction="J6" toJunction="J0" end="7000" vehsPerHour="171.75"/>
  <flow id="JF797" begin="6000" fromJunction="J6" toJunction="J4" end="7000" vehsPerHour="171.75"/>
  <flow id="JF798" begin="6000" fromJunction="J6" toJunction="J5" end="7000" vehsPerHour="171.75"/>
  <flow id="JF799" begin="6000" fromJunction="J6" toJunction="J7" end="7000" vehsPerHour="171.75"/>
  <flow id="JF800" begin="6000" fromJunction="J7" toJunction="J0" end="7000" vehsPerHour="54.96000000000001"/>
  <flow id="JF801" begin="6000" fromJunction="J7" toJunction="J3" end="7000" vehsPerHour="54.96000000000001"/>
  <flow id="JF802" begin="6000" fromJunction="J7" toJunction="J4" end="7000" vehsPerHour="54.96000000000001"/>
  <flow id="JF803" begin="6000" fromJunction="J7" toJunction="J5" end="7000" vehsPerHour="54.96000000000001"/>
  <flow id="JF804" begin="6000" fromJunction="J7" toJunction="J6" end="7000" vehsPerHour="54.96000000000001"/>
  <flow id="JF805" begin="6000" fromJunction="J0" toJunction="J3" end="7000" vehsPerHour="1374.0"/>
  <flow id="JF806" begin="6000" fromJunction="J0" toJunction="J4" end="7000" vehsPerHour="343.5"/>
  <flow id="JF807" begin="6000" fromJunction="J0" toJunction="J5" end="7000" vehsPerHour="343.5"/>
  <flow id="JF808" begin="6000" fromJunction="J0" toJunction="J6" end="7000" vehsPerHour="343.5"/>
  <flow id="JF809" begin="6000" fromJunction="J0" toJunction="J7" end="7000" vehsPerHour="343.5"/>
  <flow id="JF810" begin="7000" fromJunction="J3" toJunction="J4" end="8000" vehsPerHour="1374.0"/>
  <flow id="JF811" begin="7000" fromJunction="J3" toJunction="J0" end="8000" vehsPerHour="343.5"/>
  <flow id="JF812" begin="7000" fromJunction="J3" toJunction="J5" end="8000" vehsPerHour="343.5"/>
  <flow id="JF813" begin="7000" fromJunction="J3" toJunction="J6" end="8000" vehsPerHour="343.5"/>
  <flow id="JF814" begin="7000" fromJunction="J3" toJunction="J7" end="8000" vehsPerHour="343.5"/>
  <flow id="JF815" begin="7000" fromJunction="J4" toJunction="J0" end="8000" vehsPerHour="54.96000000000001"/>
  <flow id="JF816" begin="7000" fromJunction="J4" toJunction="J3" end="8000" vehsPerHour="54.96000000000001"/>
  <flow id="JF817" begin="7000" fromJunction="J4" toJunction="J5" end="8000" vehsPerHour="54.96000000000001"/>
  <flow id="JF818" begin="7000" fromJunction="J4" toJunction="J6" end="8000" vehsPerHour="54.96000000000001"/>
  <flow id="JF819" begin="7000" fromJunction="J4" toJunction="J7" end="8000" vehsPerHour="54.96000000000001"/>
  <flow id="JF820" begin="7000" fromJunction="J5" toJunction="J0" end="8000" vehsPerHour="54.96000000000001"/>
  <flow id="JF821" begin="7000" fromJunction="J5" toJunction="J3" end="8000" vehsPerHour="54.96000000000001"/>
  <flow id="JF822" begin="7000" fromJunction="J5" toJunction="J4" end="8000" vehsPerHour="54.96000000000001"/>
  <flow id="JF823" begin="7000" fromJunction="J5" toJunction="J6" end="8000" vehsPerHour="54.96000000000001"/>
  <flow id="JF824" begin="7000" fromJunction="J5" toJunction="J7" end="8000" vehsPerHour="54.96000000000001"/>
  <flow id="JF825" begin="7000" fromJunction="J6" toJunction="J0" end="8000" vehsPerHour="54.96000000000001"/>
  <flow id="JF826" begin="7000" fromJunction="J6" toJunction="J3" end="8000" vehsPerHour="54.96000000000001"/>
  <flow id="JF827" begin="7000" fromJunction="J6" toJunction="J4" end="8000" vehsPerHour="54.96000000000001"/>
  <flow id="JF828" begin="7000" fromJunction="J6" toJunction="J5" end="8000" vehsPerHour="54.96000000000001"/>
  <flow id="JF829" begin="7000" fromJunction="J6" toJunction="J7" end="8000" vehsPerHour="54.96000000000001"/>
  <flow id="JF830" begin="7000" fromJunction="J7" toJunction="J6" end="8000" vehsPerHour="687.0"/>
  <flow id="JF831" begin="7000" fromJunction="J7" toJunction="J0" end="8000" vehsPerHour="171.75"/>
  <flow id="JF832" begin="7000" fromJunction="J7" toJunction="J3" end="8000" vehsPerHour="171.75"/>
  <flow id="JF833" begin="7000" fromJunction="J7" toJunction="J4" end="8000" vehsPerHour="171.75"/>
  <flow id="JF834" begin="7000" fromJunction="J7" toJunction="J5" end="8000" vehsPerHour="171.75"/>
  <flow id="JF835" begin="7000" fromJunction="J0" toJunction="J7" end="8000" vehsPerHour="1374.0"/>
  <flow id="JF836" begin="7000" fromJunction="J0" toJunction="J3" end="8000" vehsPerHour="343.5"/>
  <flow id="JF837" begin="7000" fromJunction="J0" toJunction="J4" end="8000" vehsPerHour="343.5"/>
  <flow id="JF838" begin="7000" fromJunction="J0" toJunction="J5" end="8000" vehsPerHour="343.5"/>
  <flow id="JF839" begin="7000" fromJunction="J0" toJunction="J6" end="8000" vehsPerHour="343.5"/>
  <flow id="JF840" begin="8000" fromJunction="J3" toJunction="J0" end="9000" vehsPerHour="109.92000000000002"/>
  <flow id="JF841" begin="8000" fromJunction="J3" toJunction="J4" end="9000" vehsPerHour="109.92000000000002"/>
  <flow id="JF842" begin="8000" fromJunction="J3" toJunction="J5" end="9000" vehsPerHour="109.92000000000002"/>
  <flow id="JF843" begin="8000" fromJunction="J3" toJunction="J6" end="9000" vehsPerHour="109.92000000000002"/>
  <flow id="JF844" begin="8000" fromJunction="J3" toJunction="J7" end="9000" vehsPerHour="109.92000000000002"/>
  <flow id="JF845" begin="8000" fromJunction="J4" toJunction="J3" end="9000" vehsPerHour="687.0"/>
  <flow id="JF846" begin="8000" fromJunction="J4" toJunction="J0" end="9000" vehsPerHour="171.75"/>
  <flow id="JF847" begin="8000" fromJunction="J4" toJunction="J5" end="9000" vehsPerHour="171.75"/>
  <flow id="JF848" begin="8000" fromJunction="J4" toJunction="J6" end="9000" vehsPerHour="171.75"/>
  <flow id="JF849" begin="8000" fromJunction="J4" toJunction="J7" end="9000" vehsPerHour="171.75"/>
  <flow id="JF850" begin="8000" fromJunction="J5" toJunction="J0" end="9000" vehsPerHour="54.96000000000001"/>
  <flow id="JF851" begin="8000" fromJunction="J5" toJunction="J3" end="9000" vehsPerHour="54.96000000000001"/>
  <flow id="JF852" begin="8000" fromJunction="J5" toJunction="J4" end="9000" vehsPerHour="54.96000000000001"/>
  <flow id="JF853" begin="8000" fromJunction="J5" toJunction="J6" end="9000" vehsPerHour="54.96000000000001"/>
  <flow id="JF854" begin="8000" fromJunction="J5" toJunction="J7" end="9000" vehsPerHour="54.96000000000001"/>
  <flow id="JF855" begin="8000" fromJunction="J6" toJunction="J3" end="9000" vehsPerHour="687.0"/>
  <flow id="JF856" begin="8000" fromJunction="J6" toJunction="J0" end="9000" vehsPerHour="171.75"/>
  <flow id="JF857" begin="8000" fromJunction="J6" toJunction="J4" end="9000" vehsPerHour="171.75"/>
  <flow id="JF858" begin="8000" fromJunction="J6" toJunction="J5" end="9000" vehsPerHour="171.75"/>
  <flow id="JF859" begin="8000" fromJunction="J6" toJunction="J7" end="9000" vehsPerHour="171.75"/>
  <flow id="JF860" begin="8000" fromJunction="J7" toJunction="J0" end="9000" vehsPerHour="54.96000000000001"/>
  <flow id="JF861" begin="8000" fromJunction="J7" toJunction="J3" end="9000" vehsPerHour="54.96000000000001"/>
  <flow id="JF862" begin="8000" fromJunction="J7" toJunction="J4" end="9000" vehsPerHour="54.96000000000001"/>
  <flow id="JF863" begin="8000" fromJunction="J7" toJunction="J5" end="9000" vehsPerHour="54.96000000000001"/>
  <flow id="JF864" begin="8000" fromJunction="J7" toJunction="J6" end="9000" vehsPerHour="54.96000000000001"/>
  <flow id="JF865" begin="8000" fromJunction="J0" toJunction="J5" end="9000" vehsPerHour="1374.0"/>
  <flow id="JF866" begin="8000" fromJunction="J0" toJunction="J3" end="9000" vehsPerHour="343.5"/>
  <flow id="JF867" begin="8000" fromJunction="J0" toJunction="J4" end="9000" vehsPerHour="343.5"/>
  <flow id="JF868" begin="8000" fromJunction="J0" toJunction="J6" end="9000" vehsPerHour="343.5"/>
  <flow id="JF869" begin="8000" fromJunction="J0" toJunction="J7" end="9000" vehsPerHour="343.5"/>
  <flow id="JF870" begin="9000" fromJunction="J3" toJunction="J5" end="10000" vehsPerHour="999.2727272727273"/>
  <flow id="JF871" begin="9000" fromJunction="J3" toJunction="J0" end="10000" vehsPerHour="999.2727272727273"/>
  <flow id="JF872" begin="9000" fromJunction="J3" toJunction="J4" end="10000" vehsPerHour="249.8181818181818"/>
  <flow id="JF873" begin="9000" fromJunction="J3" toJunction="J6" end="10000" vehsPerHour="249.8181818181818"/>
  <flow id="JF874" begin="9000" fromJunction="J3" toJunction="J7" end="10000" vehsPerHour="249.8181818181818"/>
  <flow id="JF875" begin="9000" fromJunction="J4" toJunction="J0" end="10000" vehsPerHour="54.96000000000001"/>
  <flow id="JF876" begin="9000" fromJunction="J4" toJunction="J3" end="10000" vehsPerHour="54.96000000000001"/>
  <flow id="JF877" begin="9000" fromJunction="J4" toJunction="J5" end="10000" vehsPerHour="54.96000000000001"/>
  <flow id="JF878" begin="9000" fromJunction="J4" toJunction="J6" end="10000" vehsPerHour="54.96000000000001"/>