<?xml version="1.0" encoding="UTF-8"?>
<routes xmlns:xsi="http://www.w3.org/2001/XMLSchema-instance" xsi:noNamespaceSchemaLocation="http://sumo.dlr.de/xsd/routes_file.xsd">
  <flow id="JF2100" begin="0" fromJunction="J3" toJunction="J0" end="1000" vehsPerHour="109.92000000000002"/>
  <flow id="JF2101" begin="0" fromJunction="J3" toJunction="J4" end="1000" vehsPerHour="109.92000000000002"/>
  <flow id="JF2102" begin="0" fromJunction="J3" toJunction="J5" end="1000" vehsPerHour="109.92000000000002"/>
  <flow id="JF2103" begin="0" fromJunction="J3" toJunction="J6" end="1000" vehsPerHour="109.92000000000002"/>
  <flow id="JF2104" begin="0" fromJunction="J3" toJunction="J7" end="1000" vehsPerHour="109.92000000000002"/>
  <flow id="JF2105" begin="0" fromJunction="J4" toJunction="J0" end="1000" vehsPerHour="687.0"/>
  <flow id="JF2106" begin="0" fromJunction="J4" toJunction="J3" end="1000" vehsPerHour="171.75"/>
  <flow id="JF2107" begin="0" fromJunction="J4" toJunction="J5" end="1000" vehsPerHour="171.75"/>
  <flow id="JF2108" begin="0" fromJunction="J4" toJunction="J6" end="1000" vehsPerHour="171.75"/>
  <flow id="JF2109" begin="0" fromJunction="J4" toJunction="J7" end="1000" vehsPerHour="171.75"/>
  <flow id="JF2110" begin="0" fromJunction="J5" toJunction="J0" end="1000" vehsPerHour="54.96000000000001"/>
  <flow id="JF2111" begin="0" fromJunction="J5" toJunction="J3" end="1000" vehsPerHour="54.96000000000001"/>
  <flow id="JF2112" begin="0" fromJunction="J5" toJunction="J4" end="1000" vehsPerHour="54.96000000000001"/>
  <flow id="JF2113" begin="0" fromJunction="J5" toJunction="J6" end="1000" vehsPerHour="54.96000000000001"/>
  <flow id="JF2114" begin="0" fromJunction="J5" toJunction="J7" end="1000" vehsPerHour="54.96000000000001"/>
  <flow id="JF2115" begin="0" fromJunction="J6" toJunction="J0" end="1000" vehsPerHour="54.96000000000001"/>
  <flow id="JF2116" begin="0" fromJunction="J6" toJunction="J3" end="1000" vehsPerHour="54.96000000000001"/>
  <flow id="JF2117" begin="0" fromJunction="J6" toJunction="J4" end="1000" vehsPerHour="54.96000000000001"/>
  <flow id="JF2118" begin="0" fromJunction="J6" toJunction="J5" end="1000" vehsPerHour="54.96000000000001"/>
  <flow id="JF2119" begin="0" fromJunction="J6" toJunction="J7" end="1000" vehsPerHour="54.96000000000001"/>
  <flow id="JF2120" begin="0" fromJunction="J7" toJunction="J3" end="1000" vehsPerHour="687.0"/>
  <flow id="JF2121" begin="0" fromJunction="J7" toJunction="J0" end="1000" vehsPerHour="171.75"/>
  <flow id="JF2122" begin="0" fromJunction="J7" toJunction="J4" end="1000" vehsPerHour="171.75"/>
  <flow id="JF2123" begin="0" fromJunction="J7" toJunction="J5" end="1000" vehsPerHour="171.75"/>
  <flow id="JF2124" begin="0" fromJunction="J7" toJunction="J6" end="1000" vehsPerHour="171.75"/>
  <flow id="JF2125" begin="0" fromJunction="J0" toJunction="J7" end="1000" vehsPerHour="1374.0"/>
  <flow id="JF2126" begin="0" fromJunction="J0" toJunction="J3" end="1000" vehsPerHour="343.5"/>
  <flow id="JF2127" begin="0" fromJunction="J0" toJunction="J4" end="1000" vehsPerHour="343.5"/>
  <flow id="JF2128" begin="0" fromJunction="J0" toJunction="J5" end="1000" vehsPerHour="343.5"/>
  <flow id="JF2129" begin="0" fromJunction="J0" toJunction="J6" end="1000" vehsPerHour="343.5"/>
  <flow id="JF2130" begin="1000" fromJunction="J3" toJunction="J4" end="2000" vehsPerHour="999.2727272727273"/>
  <flow id="JF2131" begin="1000" fromJunction="J3" toJunction="J0" end="2000" vehsPerHour="999.2727272727273"/>
  <flow id="JF2132" begin="1000" fromJunction="J3" toJunction="J5" end="2000" vehsPerHour="249.8181818181818"/>
  <flow id="JF2133" begin="1000" fromJunction="J3" toJunction="J6" end="2000" vehsPerHour="249.8181818181818"/>
  <flow id="JF2134" begin="1000" fromJunction="J3" toJunction="J7" end="2000" vehsPerHour="249.8181818181818"/>
  <flow id="JF2135" begin="1000" fromJunction="J4" toJunction="J0" end="2000" vehsPerHour="54.96000000000001"/>
  <flow id="JF2136" begin="1000" fromJunction="J4" toJunction="J3" end="2000" vehsPerHour="54.96000000000001"/>
  <flow id="JF2137" begin="1000" fromJunction="J4" toJunction="J5" end="2000" vehsPerHour="54.96000000000001"/>
  <flow id="JF2138" begin="1000" fromJunction="J4" toJunction="J6" end="2000" vehsPerHour="54.96000000000001"/>
  <flow id="JF2139" begin="1000" fromJunction="J4" toJunction="J7" end="2000" vehsPerHour="54.96000000000001"/>
  <flow id="JF2140" begin="1000" fromJunction="J5" toJunction="J0" end="2000" vehsPerHour="54.96000000000001"/>
  <flow id="JF2141" begin="1000" fromJunction="J5" toJunction="J3" end="2000" vehsPerHour="54.96000000000001"/>
  <flow id="JF2142" begin="1000" fromJunction="J5" toJunction="J4" end="2000" vehsPerHour="54.96000000000001"/>
  <flow id="JF2143" begin="1000" fromJunction="J5" toJunction="J6" end="2000" vehsPerHour="54.96000000000001"/>
  <flow id="JF2144" begin="1000" fromJunction="J5" toJunction="J7" end="2000" vehsPerHour="54.96000000000001"/>
  <flow id="JF2145" begin="1000" fromJunction="J6" toJunction="J5" end="2000" vehsPerHour="687.0"/>
  <flow id="JF2146" begin="1000" fromJunction="J6" toJunction="J0" end="2000" vehsPerHour="171.75"/>
  <flow id="JF2147" begin="1000" fromJunction="J6" toJunction="J3" end="2000" vehsPerHour="171.75"/>
  <flow id="JF2148" begin="1000" fromJunction="J6" toJunction="J4" end="2000" vehsPerHour="171.75"/>
  <flow id="JF2149" begin="1000" fromJunction="J6" toJunction="J7" end="2000" vehsPerHour="171.75"/>
  <flow id="JF2150" begin="1000" fromJunction="J7" toJunction="J0" end="2000" vehsPerHour="54.96000000000001"/>
  <flow id="JF2151" begin="1000" fromJunction="J7" toJunction="J3" end="2000" vehsPerHour="54.96000000000001"/>
  <flow id="JF2152" begin="1000" fromJunction="J7" toJunction="J4" end="2000" vehsPerHour="54.96000000000001"/>
  <flow id="JF2153" begin="1000" fromJunction="J7" toJunction="J5" end="2000" vehsPerHour="54.96000000000001"/>
  <flow id="JF2154" begin="1000" fromJunction="J7" toJunction="J6" end="2000" vehsPerHour="54.96000000000001"/>
  <flow id="JF2155" begin="1000" fromJunction="J0" toJunction="J3" end="2000" vehsPerHour="109.92000000000002"/>
  <flow id="JF2156" begin="1000" fromJunction="J0" toJunction="J4" end="2000" vehsPerHour="109.92000000000002"/>
  <flow id="JF2157" begin="1000" fromJunction="J0" toJunction="J5" end="2000" vehsPerHour="109.92000000000002"/>
  <flow id="JF2158" begin="1000" fromJunction="J0" toJunction="J6" end="2000" vehsPerHour="109.92000000000002"/>
  <flow id="JF2159" begin="1000" fromJunction="J0" toJunction="J7" end="2000" vehsPerHour="109.92000000000002"/>
  <flow id="JF2160" begin="2000" fromJunction="J3" toJunction="J0" end="3000" vehsPerHour="109.92000000000002"/>
  <flow id="JF2161" begin="2000" fromJunction="J3" toJunction="J4" end="3000" vehsPerHour="109.92000000000002"/>
  <flow id="JF2162" begin="2000" fromJunction="J3" toJunction="J5" end="3000" vehsPerHour="109.92000000000002"/>
  <flow id="JF2163" begin="2000" fromJunction="J3" toJunction="J6" end="3000" vehsPerHour="109.92000000000002"/>
  <flow id="JF2164" begin="2000" fromJunction="J3" toJunction="J7" end="3000" vehsPerHour="109.92000000000002"/>
  <flow id="JF2165" begin="2000" fromJunction="J4" toJunction="J0" end="3000" vehsPerHour="54.96000000000001"/>
  <flow id="JF2166" begin="2000" fromJunction="J4" toJunction="J3" end="3000" vehsPerHour="54.96000000000001"/>
  <flow id="JF2167" begin="2000" fromJunction="J4" toJunction="J5" end="3000" vehsPerHour="54.96000000000001"/>
  <flow id="JF2168" begin="2000" fromJunction="J4" toJunction="J6" end="3000" vehsPerHour="54.96000000000001"/>
  <flow id="JF2169" begin="2000" fromJunction="J4" toJunction="J7" end="3000" vehsPerHour="54.96000000000001"/>
  <flow id="JF2170" begin="2000" fromJunction="J5" toJunction="J0" end="3000" vehsPerHour="54.96000000000001"/>
  <flow id="JF2171" begin="2000" fromJunction="J5" toJunction="J3" end="3000" vehsPerHour="54.96000000000001"/>
  <flow id="JF2172" begin="2000" fromJunction="J5" toJunction="J4" end="3000" vehsPerHour="54.96000000000001"/>
  <flow id="JF2173" begin="2000" fromJunction="J5" toJunction="J6" end="3000" vehsPerHour="54.96000000000001"/>
  <flow id="JF2174" begin="2000" fromJunction="J5" toJunction="J7" end="3000" vehsPerHour="54.96000000000001"/>
  <flow id="JF2175" begin="2000" fromJunction="J6" toJunction="J0" end="3000" vehsPerHour="687.0"/>
  <flow id="JF2176" begin="2000" fromJunction="J6" toJunction="J3" end="3000" vehsPerHour="171.75"/>
  <flow id="JF2177" begin="2000" fromJunction="J6" toJunction="J4" end="3000" vehsPerHour="171.75"/>
  <flow id="JF2178" begin="2000" fromJunction="J6" toJunction="J5" end="3000" vehsPerHour="171.75"/>
  <flow id="JF2179" begin="2000" fromJunction="J6" toJunction="J7" end="3000" vehsPerHour="171.75"/>
  <flow id="JF2180" begin="2000" fromJunction="J7" toJunction="J0" end="3000" vehsPerHour="54.96000000000001"/>
  <flow id="JF2181" begin="2000" fromJunction="J7" toJunction="J3" end="3000" vehsPerHour="54.96000000000001"/>
  <flow id="JF2182" begin="2000" fromJunction="J7" toJunction="J4" end="3000" vehsPerHour="54.96000000000001"/>
  <flow id="JF2183" begin="2000" fromJunction="J7" toJunction="J5" end="3000" vehsPerHour="54.96000000000001"/>
  <flow id="JF2184" begin="2000" fromJunction="J7" toJunction="J6" end="3000" vehsPerHour="54.96000000000001"/>
  <flow id="JF2185" begin="2000" fromJunction="J0" toJunction="J7" end="3000" vehsPerHour="999.2727272727273"/>
  <flow id="JF2186" begin="2000" fromJunction="J0" toJunction="J5" end="3000" vehsPerHour="999.2727272727273"/>
  <flow id="JF2187" begin="2000" fromJunction="J0" toJunction="J3" end="3000" vehsPerHour="249.8181818181818"/>
  <flow id="JF2188" begin="2000" fromJunction="J0" toJunction="J4" end="3000" vehsPerHour="249.8181818181818"/>
  <flow id="JF2189" begin="2000" fromJunction="J0" toJunction="J6" end="3000" vehsPerHour="249.8181818181818"/>
  <flow id="JF2190" begin="3000" fromJunction="J3" toJunction="J0" end="4000" vehsPerHour="109.92000000000002"/>
  <flow id="JF2191" begin="3000" fromJunction="J3" toJunction="J4" end="4000" vehsPerHour="109.92000000000002"/>
  <flow id="JF2192" begin="3000" fromJunction="J3" toJunction="J5" end="4000" vehsPerHour="109.92000000000002"/>
  <flow id="JF2193" begin="3000" fromJunction="J3" toJunction="J6" end="4000" vehsPerHour="109.92000000000002"/>
  <flow id="JF2194" begin="3000" fromJunction="J3" toJunction="J7" end="4000" vehsPerHour="109.92000000000002"/>
  <flow id="JF2195" begin="3000" fromJunction="J4" toJunction="J0" end="4000" vehsPerHour="54.96000000000001"/>
  <flow id="JF2196" begin="3000" fromJunction="J4" toJunction="J3" end="4000" vehsPerHour="54.96000000000001"/>
  <flow id="JF2197" begin="3000" fromJunction="J4" toJunction="J5" end="4000" vehsPerHour="54.96000000000001"/>
  <flow id="JF2198" begin="3000" fromJunction="J4" toJunction="J6" end="4000" vehsPerHour="54.96000000000001"/>
  <flow id="JF2199" begin="3000" fromJunction="J4" toJunction="J7" end="4000" vehsPerHour="54.96000000000001"/>
  <flow id="JF2200" begin="3000" fromJunction="J5" toJunction="J0" end="4000" vehsPerHour="54.96000000000001"/>
  <flow id="JF2201" begin="3000" fromJunction="J5" toJunction="J3" end="4000" vehsPerHour="54.96000000000001"/>
  <flow id="JF2202" begin="3000" fromJunction="J5" toJunction="J4" end="4000" vehsPerHour="54.96000000000001"/>
  <flow id="JF2203" begin="3000" fromJunction="J5" toJunction="J6" end="4000" vehsPerHour="54.96000000000001"/>
  <flow id="JF2204" begin="3000" fromJunction="J5" toJunction="J7" end="4000" vehsPerHour="54.96000000000001"/>
  <flow id="JF2205" begin="3000" fromJunction="J6" toJunction="J4" end="4000" vehsPerHour="499.6363636363636"/>
  <flow id="JF2206" begin="3000" fromJunction="J6" toJunction="J7" end="4000" vehsPerHour="499.6363636363636"/>
  <flow id="JF2207" begin="3000" fromJunction="J6" toJunction="J0" end="4000" vehsPerHour="124.9090909090909"/>
  <flow id="JF2208" begin="3000" fromJunction="J6" toJunction="J3" end="4000" vehsPerHour="124.9090909090909"/>
  <flow id="JF2209" begin="3000" fromJunction="J6" toJunction="J5" end="4000" vehsPerHour="124.9090909090909"/>
  <flow id="JF2210" begin="3000" fromJunction="J7" toJunction="J0" end="4000" vehsPerHour="54.96000000000001"/>
  <flow id="JF2211" begin="3000" fromJunction="J7" toJunction="J3" end="4000" vehsPerHour="54.96000000000001"/>
  <flow id="JF2212" begin="3000" fromJunction="J7" toJunction="J4" end="4000" vehsPerHour="54.96000000000001"/>
  <flow id="JF2213" begin="3000" fromJunction="J7" toJunction="J5" end="4000" vehsPerHour="54.96000000000001"/>
  <flow id="JF2214" begin="3000" fromJunction="J7" toJunction="J6" end="4000" vehsPerHour="54.96000000000001"/>
  <flow id="JF2215" begin="3000" fromJunction="J0" toJunction="J5" end="4000" vehsPerHour="1374.0"/>
  <flow id="JF2216" begin="3000" fromJunction="J0" toJunction="J3" end="4000" vehsPerHour="343.5"/>
  <flow id="JF2217" begin="3000" fromJunction="J0" toJunction="J4" end="4000" vehsPerHour="343.5"/>
  <flow id="JF2218" begin="3000" fromJunction="J0" toJunction="J6" end="4000" vehsPerHour="343.5"/>
  <flow id="JF2219" begin="3000" fromJunction="J0" toJunction="J7" end="4000" vehsPerHour="343.5"/>
  <flow id="JF2220" begin="4000" fromJunction="J3" toJunction="J4" end="5000" vehsPerHour="1374.0"/>
  <flow id="JF2221" begin="4000" fromJunction="J3" toJunction="J0" end="5000" vehsPerHour="343.5"/>
  <flow id="JF2222" begin="4000" fromJunction="J3" toJunction="J5" end="5000" vehsPerHour="343.5"/>
  <flow id="JF2223" begin="4000" fromJunction="J3" toJunction="J6" end="5000" vehsPerHour="343.5"/>
  <flow id="JF2224" begin="4000" fromJunction="J3" toJunction="J7" end="5000" vehsPerHour="343.5"/>
  <flow id="JF2225" begin="4000" fromJunction="J4" toJunction="J0" end="5000" vehsPerHour="687.0"/>
  <flow id="JF2226" begin="4000" fromJunction="J4" toJunction="J3" end="5000" vehsPerHour="171.75"/>
  <flow id="JF2227" begin="4000" fromJunction="J4" toJunction="J5" end="5000" vehsPerHour="171.75"/>
  <flow id="JF2228" begin="4000" fromJunction="J4" toJunction="J6" end="5000" vehsPerHour="171.75"/>
  <flow id="JF2229" begin="4000" fromJunction="J4" toJunction="J7" end="5000" vehsPerHour="171.75"/>
  <flow id="JF2230" begin="4000" fromJunction="J5" toJunction="J6" end="5000" vehsPerHour="687.0"/>
  <flow id="JF2231" begin="4000" fromJunction="J5" toJunction="J0" end="5000" vehsPerHour="171.75"/>
  <flow id="JF2232" begin="4000" fromJunction="J5" toJunction="J3" end="5000" vehsPerHour="171.75"/>
  <flow id="JF2233" begin="4000" fromJunction="J5" toJunction="J4" end="5000" vehsPerHour="171.75"/>
  <flow id="JF2234" begin="4000" fromJunction="J5" toJunction="J7" end="5000" vehsPerHour="171.75"/>
  <flow id="JF2235" begin="4000" fromJunction="J6" toJunction="J0" end="5000" vehsPerHour="54.96000000000001"/>
  <flow id="JF2236" begin="4000" fromJunction="J6" toJunction="J3" end="5000" vehsPerHour="54.96000000000001"/>
  <flow id="JF2237" begin="4000" fromJunction="J6" toJunction="J4" end="5000" vehsPerHour="54.96000000000001"/>
  <flow id="JF2238" begin="4000" fromJunction="J6" toJunction="J5" end="5000" vehsPerHour="54.96000000000001"/>
  <flow id="JF2239" begin="4000" fromJunction="J6" toJunction="J7" end="5000" vehsPerHour="54.96000000000001"/>
  <flow id="JF2240" begin="4000" fromJunction="J7" toJunction="J0" end="5000" vehsPerHour="54.96000000000001"/>
  <flow id="JF2241" begin="4000" fromJunction="J7" toJunction="J3" end="5000" vehsPerHour="54.96000000000001"/>
  <flow id="JF2242" begin="4000" fromJunction="J7" toJunction="J4" end="5000" vehsPerHour="54.96000000000001"/>
  <flow id="JF2243" begin="4000" fromJunction="J7" toJunction="J5" end="5000" vehsPerHour="54.96000000000001"/>
  <flow id="JF2244" begin="4000" fromJunction="J7" toJunction="J6" end="5000" vehsPerHour="54.96000000000001"/>
  <flow id="JF2245" begin="4000" fromJunction="J0" toJunction="J3" end="5000" vehsPerHour="109.92000000000002"/>
  <flow id="JF2246" begin="4000" fromJunction="J0" toJunction="J4" end="5000" vehsPerHour="109.92000000000002"/>
  <flow id="JF2247" begin="4000" fromJunction="J0" toJunction="J5" end="5000" vehsPerHour="109.92000000000002"/>
  <flow id="JF2248" begin="4000" fromJunction="J0" toJunction="J6" end="5000" vehsPerHour="109.92000000000002"/>
  <flow id="JF2249" begin="4000" fromJunction="J0" toJunction="J7" end="5000" vehsPerHour="109.92000000000002"/>
  <flow id="JF2250" begin="5000" fromJunction="J3" toJunction="J0" end="6000" vehsPerHour="109.92000000000002"/>
  <flow id="JF2251" begin="5000" fromJunction="J3" toJunction="J4" end="6000" vehsPerHour="109.92000000000002"/>
  <flow id="JF2252" begin="5000" fromJunction="J3" toJunction="J5" end="6000" vehsPerHour="109.92000000000002"/>
  <flow id="JF2253" begin="5000" fromJunction="J3" toJunction="J6" end="6000" vehsPerHour="109.92000000000002"/>
  <flow id="JF2254" begin="5000" fromJunction="J3" toJunction="J7" end="6000" vehsPerHour="109.92000000000002"/>
  <flow id="JF2255" begin="5000" fromJunction="J4" toJunction="J3" end="6000" vehsPerHour="687.0"/>
  <flow id="JF2256" begin="5000" fromJunction="J4" toJunction="J0" end="6000" vehsPerHour="171.75"/>
  <flow id="JF2257" begin="5000" fromJunction="J4" toJunction="J5" end="6000" vehsPerHour="171.75"/>
  <flow id="JF2258" begin="5000" fromJunction="J4" toJunction="J6" end="6000" vehsPerHour="171.75"/>
  <flow id="JF2259" begin="5000" fromJunction="J4" toJunction="J7" end="6000" vehsPerHour="171.75"/>
  <flow id="JF2260" begin="5000" fromJunction="J5" toJunction="J3" end="6000" vehsPerHour="687.0"/>
  <flow id="JF2261" begin="5000" fromJunction="J5" toJunction="J0" end="6000" vehsPerHour="171.75"/>
  <flow id="JF2262" begin="5000" fromJunction="J5" toJunction="J4" end="6000" vehsPerHour="171.75"/>
  <flow id="JF2263" begin="5000" fromJunction="J5" toJunction="J6" end="6000" vehsPerHour="171.75"/>
  <flow id="JF2264" begin="5000" fromJunction="J5" toJunction="J7" end="6000" vehsPerHour="171.75"/>
  <flow id="JF2265" begin="5000" fromJunction="J6" toJunction="J7" end="6000" vehsPerHour="687.0"/>
  <flow id="JF2266" begin="5000" fromJunction="J6" toJunction="J0" end="6000" vehsPerHour="171.75"/>
  <flow id="JF2267" begin="5000" fromJunction="J6" toJunction="J3" end="6000" vehsPerHour="171.75"/>
  <flow id="JF2268" begin="5000" fromJunction="J6" toJunction="J4" end="6000" vehsPerHour="171.75"/>
  <flow id="JF2269" begin="5000" fromJunction="J6" toJunction="J5" end="6000" vehsPerHour="171.75"/>
  <flow id="JF2270" begin="5000" fromJunction="J7" toJunction="J0" end="6000" vehsPerHour="54.96000000000001"/>
  <flow id="JF2271" begin="5000" fromJunction="J7" toJunction="J3" end="6000" vehsPerHour="54.96000000000001"/>
  <flow id="JF2272" begin="5000" fromJunction="J7" toJunction="J4" end="6000" vehsPerHour="54.96000000000001"/>
  <flow id="JF2273" begin="5000" fromJunction="J7" toJunction="J5" end="6000" vehsPerHour="54.96000000000001"/>
  <flow id="JF2274" begin="5000" fromJunction="J7" toJunction="J6" end="6000" vehsPerHour="54.96000000000001"/>
  <flow id="JF2275" begin="5000" fromJunction="J0" toJunction="J3" end="6000" vehsPerHour="109.92000000000002"/>
  <flow id="JF2276" begin="5000" fromJunction="J0" toJunction="J4" end="6000" vehsPerHour="109.92000000000002"/>
  <flow id="JF2277" begin="5000" fromJunction="J0" toJunction="J5" end="6000" vehsPerHour="109.92000000000002"/>
  <flow id="JF2278" begin="5000" fromJunction="J0" toJunction="J6" end="6000" vehsPerHour="109.92000000000002"/>
  <flow id="JF2279" begin="5000" fromJunction="J0" toJunction="J7" end="6000" vehsPerHour="109.92000000000002"/>
  <flow id="JF2280" begin="6000" fromJunction="J3" toJunction="J7" end="7000" vehsPerHour="1374.0"/>
  <flow id="JF2281" begin="6000" fromJunction="J3" toJunction="J0" end="7000" vehsPerHour="343.5"/>
  <flow id="JF2282" begin="6000" fromJunction="J3" toJunction="J4" end="7000" vehsPerHour="343.5"/>
  <flow id="JF2283" begin="6000" fromJunction="J3" toJunction="J5" end="7000" vehsPerHour="343.5"/>
  <flow id="JF2284" begin="6000" fromJunction="J3" toJunction="J6" end="7000" vehsPerHour="343.5"/>
  <flow id="JF2285" begin="6000" fromJunction="J4" toJunction="J0" end="7000" vehsPerHour="54.96000000000001"/>
  <flow id="JF2286" begin="6000" fromJunction="J4" toJunction="J3" end="7000" vehsPerHour="54.96000000000001"/>
  <flow id="JF2287" begin="6000" fromJunction="J4" toJunction="J5" end="7000" vehsPerHour="54.96000000000001"/>
  <flow id="JF2288" begin="6000" fromJunction="J4" toJunction="J6" end="7000" vehsPerHour="54.96000000000001"/>
  <flow id="JF2289" begin="6000" fromJunction="J4" toJunction="J7" end="7000" vehsPerHour="54.96000000000001"/>
  <flow id="JF2290" begin="6000" fromJunction="J5" toJunction="J4" end="7000" vehsPerHour="687.0"/>
  <flow id="JF2291" begin="6000" fromJunction="J5" toJunction="J0" end="7000" vehsPerHour="171.75"/>
  <flow id="JF2292" begin="6000" fromJunction="J5" toJunction="J3" end="7000" vehsPerHour="171.75"/>
  <flow id="JF2293" begin="6000" fromJunction="J5" toJunction="J6" end="7000" vehsPerHour="171.75"/>
  <flow id="JF2294" begin="6000" fromJunction="J5" toJunction="J7" end="7000" vehsPerHour="171.75"/>
  <flow id="JF2295" begin="6000" fromJunction="J6" toJunction="J0" end="7000" vehsPerHour="687.0"/>
  <flow id="JF2296" begin="6000" fromJunction="J6" toJunction="J3" end="7000" vehsPerHour="171.75"/>
  <flow id="JF2297" begin="6000" fromJunction="J6" toJunction="J4" end="7000" vehsPerHour="171.75"/>
  <flow id="JF2298" begin="6000" fromJunction="J6" toJunction="J5" end="7000" vehsPerHour="171.75"/>
  <flow id="JF2299" begin="6000" fromJunction="J6" toJunction="J7" end="7000" vehsPerHour="171.75"/>
  <flow id="JF2300" begin="6000" fromJunction="J7" toJunction="J0" end="7000" vehsPerHour="54.96000000000001"/>
  <flow id="JF2301" begin="6000" fromJunction="J7" toJunction="J3" end="7000" vehsPerHour="54.96000000000001"/>
  <flow id="JF2302" begin="6000" fromJunction="J7" toJunction="J4" end="7000" vehsPerHour="54.96000000000001"/>
  <flow id="JF2303" begin="6000" fromJunction="J7" toJunction="J5" end="7000" vehsPerHour="54.96000000000001"/>
  <flow id="JF2304" begin="6000" fromJunction="J7" toJunction="J6" end="7000" vehsPerHour="54.96000000000001"/>
  <flow id="JF2305" begin="6000" fromJunction="J0" toJunction="J3" end="7000" vehsPerHour="109.92000000000002"/>
  <flow id="JF2306" begin="6000" fromJunction="J0" toJunction="J4" end="7000" vehsPerHour="109.92000000000002"/>
  <flow id="JF2307" begin="6000" fromJunction="J0" toJunction="J5" end="7000" vehsPerHour="109.92000000000002"/>
  <flow id="JF2308" begin="6000" fromJunction="J0" toJunction="J6" end="7000" vehsPerHour="109.92000000000002"/>
  <flow id="JF2309" begin="6000" fromJunction="J0" toJunction="J7" end="7000" vehsPerHour="109.92000000000002"/>
  <flow id="JF2310" begin="7000" fromJunction="J3" toJunction="J0" end="8000" vehsPerHour="109.92000000000002"/>
  <flow id="JF2311" begin="7000" fromJunction="J3" toJunction="J4" end="8000" vehsPerHour="109.92000000000002"/>
  <flow id="JF2312" begin="7000" fromJunction="J3" toJunction="J5" end="8000" vehsPerHour="109.92000000000002"/>
  <flow id="JF2313" begin="7000" fromJunction="J3" toJunction="J6" end="8000" vehsPerHour="109.92000000000002"/>
  <flow id="JF2314" begin="7000" fromJunction="J3" toJunction="J7" end="8000" vehsPerHour="109.92000000000002"/>
  <flow id="JF2315" begin="7000" fromJunction="J4" toJunction="J0" end="8000" vehsPerHour="687.0"/>
  <flow id="JF2316" begin="7000" fromJunction="J4" toJunction="J3" end="8000" vehsPerHour="171.75"/>
  <flow id="JF2317" begin="7000" fromJunction="J4" toJunction="J5" end="8000" vehsPerHour="171.75"/>
  <flow id="JF2318" begin="7000" fromJunction="J4" toJunction="J6" end="8000" vehsPerHour="171.75"/>
  <flow id="JF2319" begin="7000" fromJunction="J4" toJunction="J7" end="8000" vehsPerHour="171.75"/>
  <flow id="JF2320" begin="7000" fromJunction="J5" toJunction="J0" end="8000" vehsPerHour="54.96000000000001"/>
  <flow id="JF2321" begin="7000" fromJunction="J5" toJunction="J3" end="8000" vehsPerHour="54.96000000000001"/>
  <flow id="JF2322" begin="7000" fromJunction="J5" toJunction="J4" end="8000" vehsPerHour="54.96000000000001"/>
  <flow id="JF2323" begin="7000" fromJunction="J5" toJunction="J6" end="8000" vehsPerHour="54.96000000000001"/>
  <flow id="JF2324" begin="7000" fromJunction="J5" toJunction="J7" end="8000" vehsPerHour="54.96000000000001"/>
  <flow id="JF2325" begin="7000" fromJunction="J6" toJunction="J0" end="8000" vehsPerHour="499.6363636363636"/>
  <flow id="JF2326" begin="7000" fromJunction="J6" toJunction="J5" end="8000" vehsPerHour="499.6363636363636"/>
  <flow id="JF2327" begin="7000" fromJunction="J6" toJunction="J3" end="8000" vehsPerHour="124.9090909090909"/>
  <flow id="JF2328" begin="7000" fromJunction="J6" toJunction="J4" end="8000" vehsPerHour="124.9090909090909"/>
  <flow id="JF2329" begin="7000" fromJunction="J6" toJunction="J7" end="8000" vehsPerHour="124.9090909090909"/>
  <flow id="JF2330" begin="7000" fromJunction="J7" toJunction="J0" end="8000" vehsPerHour="54.96000000000001"/>
  <flow id="JF2331" begin="7000" fromJunction="J7" toJunction="J3" end="8000" vehsPerHour="54.96000000000001"/>
  <flow id="JF2332" begin="7000" fromJunction="J7" toJunction="J4" end="8000" vehsPerHour="54.96000000000001"/>
  <flow id="JF2333" begin="7000" fromJunction="J7" toJunction="J5" end="8000" vehsPerHour="54.96000000000001"/>
  <flow id="JF2334" begin="7000" fromJunction="J7" toJunction="J6" end="8000" vehsPerHour="54.96000000000001"/>
  <flow id="JF2335" begin="7000" fromJunction="J0" toJunction="J3" end="8000" vehsPerHour="109.92000000000002"/>
  <flow id="JF2336" begin="7000" fromJunction="J0" toJunction="J4" end="8000" vehsPerHour="109.92000000000002"/>
  <flow id="JF2337" begin="7000" fromJunction="J0" toJunction="J5" end="8000" vehsPerHour="109.92000000000002"/>
  <flow id="JF2338" begin="7000" fromJunction="J0" toJunction="J6" end="8000" vehsPerHour="109.92000000000002"/>
  <flow id="JF2339" begin="7000" fromJunction="J0" toJunction="J7" end="8000" vehsPerHour="109.92000000000002"/>
  <flow id="JF2340" begin="8000" fromJunction="J3" toJunction="J0" end="9000" vehsPerHour="1374.0"/>
  <flow id="JF2341" begin="8000" fromJunction="J3" toJunction="J4" end="9000" vehsPerHour="343.5"/>
  <flow id="JF2342" begin="8000" fromJunction="J3" toJunction="J5" end="9000" vehsPerHour="343.5"/>
  <flow id="JF2343" begin="8000" fromJunction="J3" toJunction="J6" end="9000" vehsPerHour="343.5"/>
  <flow id="JF2344" begin="8000" fromJunction="J3" toJunction="J7" end="9000" vehsPerHour="343.5"/>
  <flow id="JF2345" begin="8000" fromJunction="J4" toJunction="J6" end="9000" vehsPerHour="687.0"/>
  <flow id="JF2346" begin="8000" fromJunction="J4" toJunction="J0" end="9000" vehsPerHour="171.75"/>
  <flow id="JF2347" begin="8000" fromJunction="J4" toJunction="J3" end="9000" vehsPerHour="171.75"/>
  <flow id="JF2348" begin="8000" fromJunction="J4" toJunction="J5" end="9000" vehsPerHour="171.75"/>
  <flow id="JF2349" begin="8000" fromJunction="J4" toJunction="J7" end="9000" vehsPerHour="171.75"/>
  <flow id="JF2350" begin="8000" fromJunction="J5" toJunction="J0" end="9000" vehsPerHour="54.96000000000001"/>
  <flow id="JF2351" begin="8000" fromJunction="J5" toJunction="J3" end="9000" vehsPerHour="54.96000000000001"/>
  <flow id="JF2352" begin="8000" fromJunction="J5" toJunction="J4" end="9000" vehsPerHour="54.96000000000001"/>
  <flow id="JF2353" begin="8000" fromJunction="J5" toJunction="J6" end="9000" vehsPerHour="54.96000000000001"/>
  <flow id="JF2354" begin="8000" fromJunction="J5" toJunction="J7" end="9000" vehsPerHour="54.96000000000001"/>
  <flow id="JF2355" begin="8000" fromJunction="J6" toJunction="J0" end="9000" vehsPerHour="54.96000000000001"/>
  <flow id="JF2356" begin="8000" fromJunction="J6" toJunction="J3" end="9000" vehsPerHour="54.96000000000001"/>
  <flow id="JF2357" begin="8000" fromJunction="J6" toJunction="J4" end="9000" vehsPerHour="54.96000000000001"/>
  <flow id="JF2358" begin="8000" fromJunction="J6" toJunction="J5" end="9000" vehsPerHour="54.96000000000001"/>
  <flow id="JF2359" begin="8000" fromJunction="J6" toJunction="J7" end="9000" vehsPerHour="54.96000000000001"/>
  <flow id="JF2360" begin="8000" fromJunction="J7" toJunction="J0" end="9000" vehsPerHour="54.96000000000001"/>
  <flow id="JF2361" begin="8000" fromJunction="J7" toJunction="J3" end="9000" vehsPerHour="54.96000000000001"/>
  <flow id="JF2362" begin="8000" fromJunction="J7" toJunction="J4" end="9000" vehsPerHour="54.96000000000001"/>
  <flow id="JF2363" begin="8000" fromJunction="J7" toJunction="J5" end="9000" vehsPerHour="54.96000000000001"/>
  <flow id="JF2364" begin="8000" fromJunction="J7" toJunction="J6" end="9000" vehsPerHour="54.96000000000001"/>
  <flow id="JF2365" begin="8000" fromJunction="J0" toJunction="J6" end="9000" vehsPerHour="1374.0"/>
  <flow id="JF2366" begin="8000" fromJunction="J0" toJunction="J3" end="9000" vehsPerHour="343.5"/>
  <flow id="JF2367" begin="8000" fromJunction="J0" toJunction="J4" end="9000" vehsPerHour="343.5"/>
  <flow id="JF2368" begin="8000" fromJunction="J0" toJunction="J5" end="9000" vehsPerHour="343.5"/>
  <flow id="JF2369" begin="8000" fromJunction="J0" toJunction="J7" end="9000" vehsPerHour="343.5"/>
  <flow id="JF2370" begin="9000" fromJunction="J3" toJunction="J7" end="10000" vehsPerHour="1374.0"/>
  <flow id="JF2371" begin="9000" fromJunction="J3" toJunction="J0" end="10000" vehsPerHour="343.5"/>
  <flow id="JF2372" begin="9000" fromJunction="J3" toJunction="J4" end="10000" vehsPerHour="343.5"/>
  <flow id="JF2373" begin="9000" fromJunction="J3" toJunction="J5" end="10000" vehsPerHour="343.5"/>
  <flow id="JF2374" begin="9000" fromJunction="J3" toJunction="J6" end="10000" vehsPerHour="343.5"/>
  <flow id="JF2375" begin="9000" fromJunction="J4" toJunction="J0" end="10000" vehsPerHour="54.96000000000001"/>