<?xml version="1.0" encoding="UTF-8"?>
<routes xmlns:xsi="http://www.w3.org/2001/XMLSchema-instance" xsi:noNamespaceSchemaLocation="http://sumo.dlr.de/xsd/routes_file.xsd">
  <flow id="JF150" begin="0" fromJunction="J3" toJunction="J0" end="5000" vehsPerHour="109.92000000000002"/>
  <flow id="JF151" begin="0" fromJunction="J3" toJunction="J4" end="5000" vehsPerHour="109.92000000000002"/>
  <flow id="JF152" begin="0" fromJunction="J3" toJunction="J5" end="5000" vehsPerHour="109.92000000000002"/>
  <flow id="JF153" begin="0" fromJunction="J3" toJunction="J6" end="5000" vehsPerHour="109.92000000000002"/>
  <flow id="JF154" begin="0" fromJunction="J3" toJunction="J7" end="5000" vehsPerHour="109.92000000000002"/>
  <flow id="JF155" begin="0" fromJunction="J4" toJunction="J5" end="5000" vehsPerHour="687.0"/>
  <flow id="JF156" begin="0" fromJunction="J4" toJunction="J0" end="5000" vehsPerHour="171.75"/>
  <flow id="JF157" begin="0" fromJunction="J4" toJunction="J3" end="5000" vehsPerHour="171.75"/>
  <flow id="JF158" begin="0" fromJunction="J4" toJunction="J6" end="5000" vehsPerHour="171.75"/>
  <flow id="JF159" begin="0" fromJunction="J4" toJunction="J7" end="5000" vehsPerHour="171.75"/>
  <flow id="JF160" begin="0" fromJunction="J5" toJunction="J0" end="5000" vehsPerHour="54.96000000000001"/>
  <flow id="JF161" begin="0" fromJunction="J5" toJunction="J3" end="5000" vehsPerHour="54.96000000000001"/>
  <flow id="JF162" begin="0" fromJunction="J5" toJunction="J4" end="5000" vehsPerHour="54.96000000000001"/>
  <flow id="JF163" begin="0" fromJunction="J5" toJunction="J6" end="5000" vehsPerHour="54.96000000000001"/>
  <flow id="JF164" begin="0" fromJunction="J5" toJunction="J7" end="5000" vehsPerHour="54.96000000000001"/>
  <flow id="JF165" begin="0" fromJunction="J6" toJunction="J0" end="5000" vehsPerHour="687.0"/>
  <flow id="JF166" begin="0" fromJunction="J6" toJunction="J3" end="5000" vehsPerHour="171.75"/>
  <flow id="JF167" begin="0" fromJunction="J6" toJunction="J4" end="5000" vehsPerHour="171.75"/>
  <flow id="JF168" begin="0" fromJunction="J6" toJunction="J5" end="5000" vehsPerHour="171.75"/>
  <flow id="JF169" begin="0" fromJunction="J6" toJunction="J7" end="5000" vehsPerHour="171.75"/>
  <flow id="JF170" begin="0" fromJunction="J7" toJunction="J0" end="5000" vehsPerHour="687.0"/>
  <flow id="JF171" begin="0" fromJunction="J7" toJunction="J3" end="5000" vehsPerHour="171.75"/>
  <flow id="JF172" begin="0" fromJunction="J7" toJunction="J4" end="5000" vehsPerHour="171.75"/>
  <flow id="JF173" begin="0" fromJunction="J7" toJunction="J5" end="5000" vehsPerHour="171.75"/>
  <flow id="JF174" begin="0" fromJunction="J7" toJunction="J6" end="5000" vehsPerHour="171.75"/>
  <flow id="JF175" begin="0" fromJunction="J0" toJunction="J3" end="5000" vehsPerHour="109.92000000000002"/>
  <flow id="JF176" begin="0" fromJunction="J0" toJunction="J4" end="5000" vehsPerHour="109.92000000000002"/>
  <flow id="JF177" begin="0" fromJunction="J0" toJunction="J5" end="5000" vehsPerHour="109.92000000000002"/>
  <flow id="JF178" begin="0" fromJunction="J0" toJunction="J6" end="5000" vehsPerHour="109.92000000000002"/>
  <flow id="JF179" begin="0" fromJunction="J0" toJunction="J7" end="5000" vehsPerHour="109.92000000000002"/>
  <flow id="JF180" begin="10000" fromJunction="J3" toJunction="J0" end="15000" vehsPerHour="109.92000000000002"/>
  <flow id="JF181" begin="10000" fromJunction="J3" toJunction="J4" end="15000" vehsPerHour="109.92000000000002"/>
  <flow id="JF182" begin="10000" fromJunction="J3" toJunction="J5" end="15000" vehsPerHour="109.92000000000002"/>
  <flow id="JF183" begin="10000" fromJunction="J3" toJunction="J6" end="15000" vehsPerHour="109.92000000000002"/>
  <flow id="JF184" begin="10000" fromJunction="J3" toJunction="J7" end="15000" vehsPerHour="109.92000000000002"/>
  <flow id="JF185" begin="10000" fromJunction="J4" toJunction="J3" end="15000" vehsPerHour="687.0"/>
  <flow id="JF186" begin="10000" fromJunction="J4" toJunction="J0" end="15000" vehsPerHour="171.75"/>
  <flow id="JF187" begin="10000" fromJunction="J4" toJunction="J5" end="15000" vehsPerHour="171.75"/>
  <flow id="JF188" begin="10000" fromJunction="J4" toJunction="J6" end="15000" vehsPerHour="171.75"/>
  <flow id="JF189" begin="10000" fromJunction="J4" toJunction="J7" end="15000" vehsPerHour="171.75"/>
  <flow id="JF190" begin="10000" fromJunction="J5" toJunction="J0" end="15000" vehsPerHour="54.96000000000001"/>
  <flow id="JF191" begin="10000" fromJunction="J5" toJunction="J3" end="15000" vehsPerHour="54.96000000000001"/>
  <flow id="JF192" begin="10000" fromJunction="J5" toJunction="J4" end="15000" vehsPerHour="54.96000000000001"/>
  <flow id="JF193" begin="10000" fromJunction="J5" toJunction="J6" end="15000" vehsPerHour="54.96000000000001"/>
  <flow id="JF194" begin="10000" fromJunction="J5" toJunction="J7" end="15000" vehsPerHour="54.96000000000001"/>
  <flow id="JF195" begin="10000" fromJunction="J6" toJunction="J5" end="15000" vehsPerHour="687.0"/>
  <flow id="JF196" begin="10000" fromJunction="J6" toJunction="J0" end="15000" vehsPerHour="171.75"/>
  <flow id="JF197" begin="10000" fromJunction="J6" toJunction="J3" end="15000" vehsPerHour="171.75"/>
  <flow id="JF198" begin="10000" fromJunction="J6" toJunction="J4" end="15000" vehsPerHour="171.75"/>
  <flow id="JF199" begin="10000" fromJunction="J6" toJunction="J7" end="15000" vehsPerHour="171.75"/>
  <flow id="JF200" begin="10000" fromJunction="J7" toJunction="J0" end="15000" vehsPerHour="687.0"/>
  <flow id="JF201" begin="10000" fromJunction="J7" toJunction="J3" end="15000" vehsPerHour="171.75"/>
  <flow id="JF202" begin="10000" fromJunction="J7" toJunction="J4" end="15000" vehsPerHour="171.75"/>
  <flow id="JF203" begin="10000" fromJunction="J7" toJunction="J5" end="15000" vehsPerHour="171.75"/>
  <flow id="JF204" begin="10000" fromJunction="J7" toJunction="J6" end="15000" vehsPerHour="171.75"/>
  <flow id="JF205" begin="10000" fromJunction="J0" toJunction="J3" end="15000" vehsPerHour="109.92000000000002"/>
  <flow id="JF206" begin="10000" fromJunction="J0" toJunction="J4" end="15000" vehsPerHour="109.92000000000002"/>
  <flow id="JF207" begin="10000" fromJunction="J0" toJunction="J5" end="15000" vehsPerHour="109.92000000000002"/>
  <flow id="JF208" begin="10000" fromJunction="J0" toJunction="J6" end="15000" vehsPerHour="109.92000000000002"/>
  <flow id="JF209" begin="10000" fromJunction="J0" toJunction="J7" end="15000" vehsPerHour="109.92000000000002"/>
  <flow id="JF210" begin="20000" fromJunction="J3" toJunction="J7" end="25000" vehsPerHour="1374.0"/>
  <flow id="JF211" begin="20000" fromJunction="J3" toJunction="J0" end="25000" vehsPerHour="343.5"/>
  <flow id="JF212" begin="20000" fromJunction="J3" toJunction="J4" end="25000" vehsPerHour="343.5"/>
  <flow id="JF213" begin="20000" fromJunction="J3" toJunction="J5" end="25000" vehsPerHour="343.5"/>
  <flow id="JF214" begin="20000" fromJunction="J3" toJunction="J6" end="25000" vehsPerHour="343.5"/>
  <flow id="JF215" begin="20000" fromJunction="J4" toJunction="J0" end="25000" vehsPerHour="54.96000000000001"/>
  <flow id="JF216" begin="20000" fromJunction="J4" toJunction="J3" end="25000" vehsPerHour="54.96000000000001"/>
  <flow id="JF217" begin="20000" fromJunction="J4" toJunction="J5" end="25000" vehsPerHour="54.96000000000001"/>
  <flow id="JF218" begin="20000" fromJunction="J4" toJunction="J6" end="25000" vehsPerHour="54.96000000000001"/>
  <flow id="JF219" begin="20000" fromJunction="J4" toJunction="J7" end="25000" vehsPerHour="54.96000000000001"/>
  <flow id="JF220" begin="20000" fromJunction="J5" toJunction="J0" end="25000" vehsPerHour="54.96000000000001"/>
  <flow id="JF221" begin="20000" fromJunction="J5" toJunction="J3" end="25000" vehsPerHour="54.96000000000001"/>
  <flow id="JF222" begin="20000" fromJunction="J5" toJunction="J4" end="25000" vehsPerHour="54.96000000000001"/>
  <flow id="JF223" begin="20000" fromJunction="J5" toJunction="J6" end="25000" vehsPerHour="54.96000000000001"/>
  <flow id="JF224" begin="20000" fromJunction="J5" toJunction="J7" end="25000" vehsPerHour="54.96000000000001"/>
  <flow id="JF225" begin="20000" fromJunction="J6" toJunction="J0" end="25000" vehsPerHour="687.0"/>
  <flow id="JF226" begin="20000" fromJunction="J6" toJunction="J3" end="25000" vehsPerHour="171.75"/>
  <flow id="JF227" begin="20000" fromJunction="J6" toJunction="J4" end="25000" vehsPerHour="171.75"/>
  <flow id="JF228" begin="20000" fromJunction="J6" toJunction="J5" end="25000" vehsPerHour="171.75"/>
  <flow id="JF229" begin="20000" fromJunction="J6" toJunction="J7" end="25000" vehsPerHour="171.75"/>
  <flow id="JF230" begin="20000" fromJunction="J7" toJunction="J6" end="25000" vehsPerHour="687.0"/>
  <flow id="JF231" begin="20000" fromJunction="J7" toJunction="J0" end="25000" vehsPerHour="171.75"/>
  <flow id="JF232" begin="20000" fromJunction="J7" toJunction="J3" end="25000" vehsPerHour="171.75"/>
  <flow id="JF233" begin="20000" fromJunction="J7" toJunction="J4" end="25000" vehsPerHour="171.75"/>
  <flow id="JF234" begin="20000" fromJunction="J7" toJunction="J5" end="25000" vehsPerHour="171.75"/>
  <flow id="JF235" begin="20000" fromJunction="J0" toJunction="J3" end="25000" vehsPerHour="109.92000000000002"/>
  <flow id="JF236" begin="20000" fromJunction="J0" toJunction="J4" end="25000" vehsPerHour="109.92000000000002"/>
  <flow id="JF237" begin="20000" fromJunction="J0" toJunction="J5" end="25000" vehsPerHour="109.92000000000002"/>
  <flow id="JF238" begin="20000" fromJunction="J0" toJunction="J6" end="25000" vehsPerHour="109.92000000000002"/>
  <flow id="JF239" begin="20000" fromJunction="J0" toJunction="J7" end="25000" vehsPerHour="109.92000000000002"/>
  <flow id="JF240" begin="30000" fromJunction="J3" toJunction="J0" end="35000" vehsPerHour="109.92000000000002"/>
  <flow id="JF241" begin="30000" fromJunction="J3" toJunction="J4" end="35000" vehsPerHour="109.92000000000002"/>
  <flow id="JF242" begin="30000" fromJunction="J3" toJunction="J5" end="35000" vehsPerHour="109.92000000000002"/>
  <flow id="JF243" begin="30000" fromJunction="J3" toJunction="J6" end="35000" vehsPerHour="109.92000000000002"/>
  <flow id="JF244" begin="30000" fromJunction="J3" toJunction="J7" end="35000" vehsPerHour="109.92000000000002"/>
  <flow id="JF245" begin="30000" fromJunction="J4" toJunction="J0" end="35000" vehsPerHour="687.0"/>
  <flow id="JF246" begin="30000" fromJunction="J4" toJunction="J3" end="35000" vehsPerHour="171.75"/>
  <flow id="JF247" begin="30000" fromJunction="J4" toJunction="J5" end="35000" vehsPerHour="171.75"/>
  <flow id="JF248" begin="30000" fromJunction="J4" toJunction="J6" end="35000" vehsPerHour="171.75"/>
  <flow id="JF249" begin="30000" fromJunction="J4" toJunction="J7" end="35000" vehsPerHour="171.75"/>
  <flow id="JF250" begin="30000" fromJunction="J5" toJunction="J3" end="35000" vehsPerHour="499.6363636363636"/>
  <flow id="JF251" begin="30000" fromJunction="J5" toJunction="J7" end="35000" vehsPerHour="499.6363636363636"/>
  <flow id="JF252" begin="30000" fromJunction="J5" toJunction="J0" end="35000" vehsPerHour="124.9090909090909"/>
  <flow id="JF253" begin="30000" fromJunction="J5" toJunction="J4" end="35000" vehsPerHour="124.9090909090909"/>
  <flow id="JF254" begin="30000" fromJunction="J5" toJunction="J6" end="35000" vehsPerHour="124.9090909090909"/>
  <flow id="JF255" begin="30000" fromJunction="J6" toJunction="J0" end="35000" vehsPerHour="54.96000000000001"/>
  <flow id="JF256" begin="30000" fromJunction="J6" toJunction="J3" end="35000" vehsPerHour="54.96000000000001"/>
  <flow id="JF257" begin="30000" fromJunction="J6" toJunction="J4" end="35000" vehsPerHour="54.96000000000001"/>
  <flow id="JF258" begin="30000" fromJunction="J6" toJunction="J5" end="35000" vehsPerHour="54.96000000000001"/>
  <flow id="JF259" begin="30000" fromJunction="J6" toJunction="J7" end="35000" vehsPerHour="54.96000000000001"/>
  <flow id="JF260" begin="30000" fromJunction="J7" toJunction="J0" end="35000" vehsPerHour="54.96000000000001"/>
  <flow id="JF261" begin="30000" fromJunction="J7" toJunction="J3" end="35000" vehsPerHour="54.96000000000001"/>
  <flow id="JF262" begin="30000" fromJunction="J7" toJunction="J4" end="35000" vehsPerHour="54.96000000000001"/>
  <flow id="JF263" begin="30000" fromJunction="J7" toJunction="J5" end="35000" vehsPerHour="54.96000000000001"/>
  <flow id="JF264" begin="30000" fromJunction="J7" toJunction="J6" end="35000" vehsPerHour="54.96000000000001"/>
  <flow id="JF265" begin="30000" fromJunction="J0" toJunction="J3" end="35000" vehsPerHour="109.92000000000002"/>
  <flow id="JF266" begin="30000" fromJunction="J0" toJunction="J4" end="35000" vehsPerHour="109.92000000000002"/>
  <flow id="JF267" begin="30000" fromJunction="J0" toJunction="J5" end="35000" vehsPerHour="109.92000000000002"/>
  <flow id="JF268" begin="30000" fromJunction="J0" toJunction="J6" end="35000" vehsPerHour="109.92000000000002"/>
  <flow id="JF269" begin="30000" fromJunction="J0" toJunction="J7" end="35000" vehsPerHour="109.92000000000002"/>
  <flow id="JF270" begin="40000" fromJunction="J3" toJunction="J0" end="45000" vehsPerHour="109.92000000000002"/>
  <flow id="JF271" begin="40000" fromJunction="J3" toJunction="J4" end="45000" vehsPerHour="109.92000000000002"/>
  <flow id="JF272" begin="40000" fromJunction="J3" toJunction="J5" end="45000" vehsPerHour="109.92000000000002"/>
  <flow id="JF273" begin="40000" fromJunction="J3" toJunction="J6" end="45000" vehsPerHour="109.92000000000002"/>
  <flow id="JF274" begin="40000" fromJunction="J3" toJunction="J7" end="45000" vehsPerHour="109.92000000000002"/>
  <flow id="JF275" begin="40000" fromJunction="J4" toJunction="J0" end="45000" vehsPerHour="54.96000000000001"/>
  <flow id="JF276" begin="40000" fromJunction="J4" toJunction="J3" end="45000" vehsPerHour="54.96000000000001"/>
  <flow id="JF277" begin="40000" fromJunction="J4" toJunction="J5" end="45000" vehsPerHour="54.96000000000001"/>
  <flow id="JF278" begin="40000" fromJunction="J4" toJunction="J6" end="45000" vehsPerHour="54.96000000000001"/>
  <flow id="JF279" begin="40000" fromJunction="J4" toJunction="J7" end="45000" vehsPerHour="54.96000000000001"/>
  <flow id="JF280" begin="40000" fromJunction="J5" toJunction="J0" end="45000" vehsPerHour="54.96000000000001"/>
  <flow id="JF281" begin="40000" fromJunction="J5" toJunction="J3" end="45000" vehsPerHour="54.96000000000001"/>
  <flow id="JF282" begin="40000" fromJunction="J5" toJunction="J4" end="45000" vehsPerHour="54.96000000000001"/>
  <flow id="JF283" begin="40000" fromJunction="J5" toJunction="J6" end="45000" vehsPerHour="54.96000000000001"/>
  <flow id="JF284" begin="40000" fromJunction="J5" toJunction="J7" end="45000" vehsPerHour="54.96000000000001"/>
  <flow id="JF285" begin="40000" fromJunction="J6" toJunction="J7" end="45000" vehsPerHour="687.0"/>
  <flow id="JF286" begin="40000" fromJunction="J6" toJunction="J0" end="45000" vehsPerHour="171.75"/>
  <flow id="JF287" begin="40000" fromJunction="J6" toJunction="J3" end="45000" vehsPerHour="171.75"/>
  <flow id="JF288" begin="40000" fromJunction="J6" toJunction="J4" end="45000" vehsPerHour="171.75"/>
  <flow id="JF289" begin="40000" fromJunction="J6" toJunction="J5" end="45000" vehsPerHour="171.75"/>
  <flow id="JF290" begin="40000" fromJunction="J7" toJunction="J0" end="45000" vehsPerHour="687.0"/>
  <flow id="JF291" begin="40000" fromJunction="J7" toJunction="J3" end="45000" vehsPerHour="171.75"/>
  <flow id="JF292" begin="40000" fromJunction="J7" toJunction="J4" end="45000" vehsPerHour="171.75"/>
  <flow id="JF293" begin="40000" fromJunction="J7" toJunction="J5" end="45000" vehsPerHour="171.75"/>
  <flow id="JF294" begin="40000" fromJunction="J7" toJunction="J6" end="45000" vehsPerHour="171.75"/>
  <flow id="JF295" begin="40000" fromJunction="J0" toJunction="J6" end="45000" vehsPerHour="1374.0"/>
  <flow id="JF296" begin="40000" fromJunction="J0" toJunction="J3" end="45000" vehsPerHour="343.5"/>
  <flow id="JF297" begin="40000" fromJunction="J0" toJunction="J4" end="45000" vehsPerHour="343.5"/>
  <flow id="JF298" begin="40000" fromJunction="J0" toJunction="J5" end="45000" vehsPerHour="343.5"/>
  <flow id="JF299" begin="40000" fromJunction="J0" toJunction="J7" end="45000" vehsPerHour="343.5"/>
</routes>