<?xml version="1.0" encoding="UTF-8"?>
<routes xmlns:xsi="http://www.w3.org/2001/XMLSchema-instance" xsi:noNamespaceSchemaLocation="http://sumo.dlr.de/xsd/routes_file.xsd">
  <flow id="JF1500" begin="0" fromJunction="J3" toJunction="J7" end="1000" vehsPerHour="999.2727272727273"/>
  <flow id="JF1501" begin="0" fromJunction="J3" toJunction="J5" end="1000" vehsPerHour="999.2727272727273"/>
  <flow id="JF1502" begin="0" fromJunction="J3" toJunction="J0" end="1000" vehsPerHour="249.8181818181818"/>
  <flow id="JF1503" begin="0" fromJunction="J3" toJunction="J4" end="1000" vehsPerHour="249.8181818181818"/>
  <flow id="JF1504" begin="0" fromJunction="J3" toJunction="J6" end="1000" vehsPerHour="249.8181818181818"/>
  <flow id="JF1505" begin="0" fromJunction="J4" toJunction="J0" end="1000" vehsPerHour="54.96000000000001"/>
  <flow id="JF1506" begin="0" fromJunction="J4" toJunction="J3" end="1000" vehsPerHour="54.96000000000001"/>
  <flow id="JF1507" begin="0" fromJunction="J4" toJunction="J5" end="1000" vehsPerHour="54.96000000000001"/>
  <flow id="JF1508" begin="0" fromJunction="J4" toJunction="J6" end="1000" vehsPerHour="54.96000000000001"/>
  <flow id="JF1509" begin="0" fromJunction="J4" toJunction="J7" end="1000" vehsPerHour="54.96000000000001"/>
  <flow id="JF1510" begin="0" fromJunction="J5" toJunction="J4" end="1000" vehsPerHour="687.0"/>
  <flow id="JF1511" begin="0" fromJunction="J5" toJunction="J0" end="1000" vehsPerHour="171.75"/>
  <flow id="JF1512" begin="0" fromJunction="J5" toJunction="J3" end="1000" vehsPerHour="171.75"/>
  <flow id="JF1513" begin="0" fromJunction="J5" toJunction="J6" end="1000" vehsPerHour="171.75"/>
  <flow id="JF1514" begin="0" fromJunction="J5" toJunction="J7" end="1000" vehsPerHour="171.75"/>
  <flow id="JF1515" begin="0" fromJunction="J6" toJunction="J0" end="1000" vehsPerHour="54.96000000000001"/>
  <flow id="JF1516" begin="0" fromJunction="J6" toJunction="J3" end="1000" vehsPerHour="54.96000000000001"/>
  <flow id="JF1517" begin="0" fromJunction="J6" toJunction="J4" end="1000" vehsPerHour="54.96000000000001"/>
  <flow id="JF1518" begin="0" fromJunction="J6" toJunction="J5" end="1000" vehsPerHour="54.96000000000001"/>
  <flow id="JF1519" begin="0" fromJunction="J6" toJunction="J7" end="1000" vehsPerHour="54.96000000000001"/>
  <flow id="JF1520" begin="0" fromJunction="J7" toJunction="J0" end="1000" vehsPerHour="54.96000000000001"/>
  <flow id="JF1521" begin="0" fromJunction="J7" toJunction="J3" end="1000" vehsPerHour="54.96000000000001"/>
  <flow id="JF1522" begin="0" fromJunction="J7" toJunction="J4" end="1000" vehsPerHour="54.96000000000001"/>
  <flow id="JF1523" begin="0" fromJunction="J7" toJunction="J5" end="1000" vehsPerHour="54.96000000000001"/>
  <flow id="JF1524" begin="0" fromJunction="J7" toJunction="J6" end="1000" vehsPerHour="54.96000000000001"/>
  <flow id="JF1525" begin="0" fromJunction="J0" toJunction="J3" end="1000" vehsPerHour="109.92000000000002"/>
  <flow id="JF1526" begin="0" fromJunction="J0" toJunction="J4" end="1000" vehsPerHour="109.92000000000002"/>
  <flow id="JF1527" begin="0" fromJunction="J0" toJunction="J5" end="1000" vehsPerHour="109.92000000000002"/>
  <flow id="JF1528" begin="0" fromJunction="J0" toJunction="J6" end="1000" vehsPerHour="109.92000000000002"/>
  <flow id="JF1529" begin="0" fromJunction="J0" toJunction="J7" end="1000" vehsPerHour="109.92000000000002"/>
  <flow id="JF1530" begin="1000" fromJunction="J3" toJunction="J5" end="2000" vehsPerHour="1374.0"/>
  <flow id="JF1531" begin="1000" fromJunction="J3" toJunction="J0" end="2000" vehsPerHour="343.5"/>
  <flow id="JF1532" begin="1000" fromJunction="J3" toJunction="J4" end="2000" vehsPerHour="343.5"/>
  <flow id="JF1533" begin="1000" fromJunction="J3" toJunction="J6" end="2000" vehsPerHour="343.5"/>
  <flow id="JF1534" begin="1000" fromJunction="J3" toJunction="J7" end="2000" vehsPerHour="343.5"/>
  <flow id="JF1535" begin="1000" fromJunction="J4" toJunction="J0" end="2000" vehsPerHour="54.96000000000001"/>
  <flow id="JF1536" begin="1000" fromJunction="J4" toJunction="J3" end="2000" vehsPerHour="54.96000000000001"/>
  <flow id="JF1537" begin="1000" fromJunction="J4" toJunction="J5" end="2000" vehsPerHour="54.96000000000001"/>
  <flow id="JF1538" begin="1000" fromJunction="J4" toJunction="J6" end="2000" vehsPerHour="54.96000000000001"/>
  <flow id="JF1539" begin="1000" fromJunction="J4" toJunction="J7" end="2000" vehsPerHour="54.96000000000001"/>
  <flow id="JF1540" begin="1000" fromJunction="J5" toJunction="J3" end="2000" vehsPerHour="687.0"/>
  <flow id="JF1541" begin="1000" fromJunction="J5" toJunction="J0" end="2000" vehsPerHour="171.75"/>
  <flow id="JF1542" begin="1000" fromJunction="J5" toJunction="J4" end="2000" vehsPerHour="171.75"/>
  <flow id="JF1543" begin="1000" fromJunction="J5" toJunction="J6" end="2000" vehsPerHour="171.75"/>
  <flow id="JF1544" begin="1000" fromJunction="J5" toJunction="J7" end="2000" vehsPerHour="171.75"/>
  <flow id="JF1545" begin="1000" fromJunction="J6" toJunction="J0" end="2000" vehsPerHour="54.96000000000001"/>
  <flow id="JF1546" begin="1000" fromJunction="J6" toJunction="J3" end="2000" vehsPerHour="54.96000000000001"/>
  <flow id="JF1547" begin="1000" fromJunction="J6" toJunction="J4" end="2000" vehsPerHour="54.96000000000001"/>
  <flow id="JF1548" begin="1000" fromJunction="J6" toJunction="J5" end="2000" vehsPerHour="54.96000000000001"/>
  <flow id="JF1549" begin="1000" fromJunction="J6" toJunction="J7" end="2000" vehsPerHour="54.96000000000001"/>
  <flow id="JF1550" begin="1000" fromJunction="J7" toJunction="J3" end="2000" vehsPerHour="687.0"/>
  <flow id="JF1551" begin="1000" fromJunction="J7" toJunction="J0" end="2000" vehsPerHour="171.75"/>
  <flow id="JF1552" begin="1000" fromJunction="J7" toJunction="J4" end="2000" vehsPerHour="171.75"/>
  <flow id="JF1553" begin="1000" fromJunction="J7" toJunction="J5" end="2000" vehsPerHour="171.75"/>
  <flow id="JF1554" begin="1000" fromJunction="J7" toJunction="J6" end="2000" vehsPerHour="171.75"/>
  <flow id="JF1555" begin="1000" fromJunction="J0" toJunction="J3" end="2000" vehsPerHour="109.92000000000002"/>
  <flow id="JF1556" begin="1000" fromJunction="J0" toJunction="J4" end="2000" vehsPerHour="109.92000000000002"/>
  <flow id="JF1557" begin="1000" fromJunction="J0" toJunction="J5" end="2000" vehsPerHour="109.92000000000002"/>
  <flow id="JF1558" begin="1000" fromJunction="J0" toJunction="J6" end="2000" vehsPerHour="109.92000000000002"/>
  <flow id="JF1559" begin="1000" fromJunction="J0" toJunction="J7" end="2000" vehsPerHour="109.92000000000002"/>
  <flow id="JF1560" begin="2000" fromJunction="J3" toJunction="J0" end="3000" vehsPerHour="109.92000000000002"/>
  <flow id="JF1561" begin="2000" fromJunction="J3" toJunction="J4" end="3000" vehsPerHour="109.92000000000002"/>
  <flow id="JF1562" begin="2000" fromJunction="J3" toJunction="J5" end="3000" vehsPerHour="109.92000000000002"/>
  <flow id="JF1563" begin="2000" fromJunction="J3" toJunction="J6" end="3000" vehsPerHour="109.92000000000002"/>
  <flow id="JF1564" begin="2000" fromJunction="J3" toJunction="J7" end="3000" vehsPerHour="109.92000000000002"/>
  <flow id="JF1565" begin="2000" fromJunction="J4" toJunction="J7" end="3000" vehsPerHour="687.0"/>
  <flow id="JF1566" begin="2000" fromJunction="J4" toJunction="J0" end="3000" vehsPerHour="171.75"/>
  <flow id="JF1567" begin="2000" fromJunction="J4" toJunction="J3" end="3000" vehsPerHour="171.75"/>
  <flow id="JF1568" begin="2000" fromJunction="J4" toJunction="J5" end="3000" vehsPerHour="171.75"/>
  <flow id="JF1569" begin="2000" fromJunction="J4" toJunction="J6" end="3000" vehsPerHour="171.75"/>
  <flow id="JF1570" begin="2000" fromJunction="J5" toJunction="J0" end="3000" vehsPerHour="54.96000000000001"/>
  <flow id="JF1571" begin="2000" fromJunction="J5" toJunction="J3" end="3000" vehsPerHour="54.96000000000001"/>
  <flow id="JF1572" begin="2000" fromJunction="J5" toJunction="J4" end="3000" vehsPerHour="54.96000000000001"/>
  <flow id="JF1573" begin="2000" fromJunction="J5" toJunction="J6" end="3000" vehsPerHour="54.96000000000001"/>
  <flow id="JF1574" begin="2000" fromJunction="J5" toJunction="J7" end="3000" vehsPerHour="54.96000000000001"/>
  <flow id="JF1575" begin="2000" fromJunction="J6" toJunction="J5" end="3000" vehsPerHour="687.0"/>
  <flow id="JF1576" begin="2000" fromJunction="J6" toJunction="J0" end="3000" vehsPerHour="171.75"/>
  <flow id="JF1577" begin="2000" fromJunction="J6" toJunction="J3" end="3000" vehsPerHour="171.75"/>
  <flow id="JF1578" begin="2000" fromJunction="J6" toJunction="J4" end="3000" vehsPerHour="171.75"/>
  <flow id="JF1579" begin="2000" fromJunction="J6" toJunction="J7" end="3000" vehsPerHour="171.75"/>
  <flow id="JF1580" begin="2000" fromJunction="J7" toJunction="J0" end="3000" vehsPerHour="54.96000000000001"/>
  <flow id="JF1581" begin="2000" fromJunction="J7" toJunction="J3" end="3000" vehsPerHour="54.96000000000001"/>
  <flow id="JF1582" begin="2000" fromJunction="J7" toJunction="J4" end="3000" vehsPerHour="54.96000000000001"/>
  <flow id="JF1583" begin="2000" fromJunction="J7" toJunction="J5" end="3000" vehsPerHour="54.96000000000001"/>
  <flow id="JF1584" begin="2000" fromJunction="J7" toJunction="J6" end="3000" vehsPerHour="54.96000000000001"/>
  <flow id="JF1585" begin="2000" fromJunction="J0" toJunction="J5" end="3000" vehsPerHour="1374.0"/>
  <flow id="JF1586" begin="2000" fromJunction="J0" toJunction="J3" end="3000" vehsPerHour="343.5"/>
  <flow id="JF1587" begin="2000" fromJunction="J0" toJunction="J4" end="3000" vehsPerHour="343.5"/>
  <flow id="JF1588" begin="2000" fromJunction="J0" toJunction="J6" end="3000" vehsPerHour="343.5"/>
  <flow id="JF1589" begin="2000" fromJunction="J0" toJunction="J7" end="3000" vehsPerHour="343.5"/>
  <flow id="JF1590" begin="3000" fromJunction="J3" toJunction="J7" end="4000" vehsPerHour="1374.0"/>
  <flow id="JF1591" begin="3000" fromJunction="J3" toJunction="J0" end="4000" vehsPerHour="343.5"/>
  <flow id="JF1592" begin="3000" fromJunction="J3" toJunction="J4" end="4000" vehsPerHour="343.5"/>
  <flow id="JF1593" begin="3000" fromJunction="J3" toJunction="J5" end="4000" vehsPerHour="343.5"/>
  <flow id="JF1594" begin="3000" fromJunction="J3" toJunction="J6" end="4000" vehsPerHour="343.5"/>
  <flow id="JF1595" begin="3000" fromJunction="J4" toJunction="J7" end="4000" vehsPerHour="687.0"/>
  <flow id="JF1596" begin="3000" fromJunction="J4" toJunction="J0" end="4000" vehsPerHour="171.75"/>
  <flow id="JF1597" begin="3000" fromJunction="J4" toJunction="J3" end="4000" vehsPerHour="171.75"/>
  <flow id="JF1598" begin="3000" fromJunction="J4" toJunction="J5" end="4000" vehsPerHour="171.75"/>
  <flow id="JF1599" begin="3000" fromJunction="J4" toJunction="J6" end="4000" vehsPerHour="171.75"/>
  <flow id="JF1600" begin="3000" fromJunction="J5" toJunction="J7" end="4000" vehsPerHour="687.0"/>
  <flow id="JF1601" begin="3000" fromJunction="J5" toJunction="J0" end="4000" vehsPerHour="171.75"/>
  <flow id="JF1602" begin="3000" fromJunction="J5" toJunction="J3" end="4000" vehsPerHour="171.75"/>
  <flow id="JF1603" begin="3000" fromJunction="J5" toJunction="J4" end="4000" vehsPerHour="171.75"/>
  <flow id="JF1604" begin="3000" fromJunction="J5" toJunction="J6" end="4000" vehsPerHour="171.75"/>
  <flow id="JF1605" begin="3000" fromJunction="J6" toJunction="J0" end="4000" vehsPerHour="54.96000000000001"/>
  <flow id="JF1606" begin="3000" fromJunction="J6" toJunction="J3" end="4000" vehsPerHour="54.96000000000001"/>
  <flow id="JF1607" begin="3000" fromJunction="J6" toJunction="J4" end="4000" vehsPerHour="54.96000000000001"/>
  <flow id="JF1608" begin="3000" fromJunction="J6" toJunction="J5" end="4000" vehsPerHour="54.96000000000001"/>
  <flow id="JF1609" begin="3000" fromJunction="J6" toJunction="J7" end="4000" vehsPerHour="54.96000000000001"/>
  <flow id="JF1610" begin="3000" fromJunction="J7" toJunction="J0" end="4000" vehsPerHour="54.96000000000001"/>
  <flow id="JF1611" begin="3000" fromJunction="J7" toJunction="J3" end="4000" vehsPerHour="54.96000000000001"/>
  <flow id="JF1612" begin="3000" fromJunction="J7" toJunction="J4" end="4000" vehsPerHour="54.96000000000001"/>
  <flow id="JF1613" begin="3000" fromJunction="J7" toJunction="J5" end="4000" vehsPerHour="54.96000000000001"/>
  <flow id="JF1614" begin="3000" fromJunction="J7" toJunction="J6" end="4000" vehsPerHour="54.96000000000001"/>
  <flow id="JF1615" begin="3000" fromJunction="J0" toJunction="J3" end="4000" vehsPerHour="109.92000000000002"/>
  <flow id="JF1616" begin="3000" fromJunction="J0" toJunction="J4" end="4000" vehsPerHour="109.92000000000002"/>
  <flow id="JF1617" begin="3000" fromJunction="J0" toJunction="J5" end="4000" vehsPerHour="109.92000000000002"/>
  <flow id="JF1618" begin="3000" fromJunction="J0" toJunction="J6" end="4000" vehsPerHour="109.92000000000002"/>
  <flow id="JF1619" begin="3000" fromJunction="J0" toJunction="J7" end="4000" vehsPerHour="109.92000000000002"/>
  <flow id="JF1620" begin="4000" fromJunction="J3" toJunction="J5" end="5000" vehsPerHour="1374.0"/>
  <flow id="JF1621" begin="4000" fromJunction="J3" toJunction="J0" end="5000" vehsPerHour="343.5"/>
  <flow id="JF1622" begin="4000" fromJunction="J3" toJunction="J4" end="5000" vehsPerHour="343.5"/>
  <flow id="JF1623" begin="4000" fromJunction="J3" toJunction="J6" end="5000" vehsPerHour="343.5"/>
  <flow id="JF1624" begin="4000" fromJunction="J3" toJunction="J7" end="5000" vehsPerHour="343.5"/>
  <flow id="JF1625" begin="4000" fromJunction="J4" toJunction="J0" end="5000" vehsPerHour="54.96000000000001"/>
  <flow id="JF1626" begin="4000" fromJunction="J4" toJunction="J3" end="5000" vehsPerHour="54.96000000000001"/>
  <flow id="JF1627" begin="4000" fromJunction="J4" toJunction="J5" end="5000" vehsPerHour="54.96000000000001"/>
  <flow id="JF1628" begin="4000" fromJunction="J4" toJunction="J6" end="5000" vehsPerHour="54.96000000000001"/>
  <flow id="JF1629" begin="4000" fromJunction="J4" toJunction="J7" end="5000" vehsPerHour="54.96000000000001"/>
  <flow id="JF1630" begin="4000" fromJunction="J5" toJunction="J0" end="5000" vehsPerHour="687.0"/>
  <flow id="JF1631" begin="4000" fromJunction="J5" toJunction="J3" end="5000" vehsPerHour="171.75"/>
  <flow id="JF1632" begin="4000" fromJunction="J5" toJunction="J4" end="5000" vehsPerHour="171.75"/>
  <flow id="JF1633" begin="4000" fromJunction="J5" toJunction="J6" end="5000" vehsPerHour="171.75"/>
  <flow id="JF1634" begin="4000" fromJunction="J5" toJunction="J7" end="5000" vehsPerHour="171.75"/>
  <flow id="JF1635" begin="4000" fromJunction="J6" toJunction="J0" end="5000" vehsPerHour="54.96000000000001"/>
  <flow id="JF1636" begin="4000" fromJunction="J6" toJunction="J3" end="5000" vehsPerHour="54.96000000000001"/>
  <flow id="JF1637" begin="4000" fromJunction="J6" toJunction="J4" end="5000" vehsPerHour="54.96000000000001"/>
  <flow id="JF1638" begin="4000" fromJunction="J6" toJunction="J5" end="5000" vehsPerHour="54.96000000000001"/>
  <flow id="JF1639" begin="4000" fromJunction="J6" toJunction="J7" end="5000" vehsPerHour="54.96000000000001"/>
  <flow id="JF1640" begin="4000" fromJunction="J7" toJunction="J0" end="5000" vehsPerHour="54.96000000000001"/>
  <flow id="JF1641" begin="4000" fromJunction="J7" toJunction="J3" end="5000" vehsPerHour="54.96000000000001"/>
  <flow id="JF1642" begin="4000" fromJunction="J7" toJunction="J4" end="5000" vehsPerHour="54.96000000000001"/>
  <flow id="JF1643" begin="4000" fromJunction="J7" toJunction="J5" end="5000" vehsPerHour="54.96000000000001"/>
  <flow id="JF1644" begin="4000" fromJunction="J7" toJunction="J6" end="5000" vehsPerHour="54.96000000000001"/>
  <flow id="JF1645" begin="4000" fromJunction="J0" toJunction="J6" end="5000" vehsPerHour="1374.0"/>
  <flow id="JF1646" begin="4000" fromJunction="J0" toJunction="J3" end="5000" vehsPerHour="343.5"/>
  <flow id="JF1647" begin="4000" fromJunction="J0" toJunction="J4" end="5000" vehsPerHour="343.5"/>
  <flow id="JF1648" begin="4000" fromJunction="J0" toJunction="J5" end="5000" vehsPerHour="343.5"/>
  <flow id="JF1649" begin="4000" fromJunction="J0" toJunction="J7" end="5000" vehsPerHour="343.5"/>
  <flow id="JF1650" begin="5000" fromJunction="J3" toJunction="J7" end="6000" vehsPerHour="1374.0"/>
  <flow id="JF1651" begin="5000" fromJunction="J3" toJunction="J0" end="6000" vehsPerHour="343.5"/>
  <flow id="JF1652" begin="5000" fromJunction="J3" toJunction="J4" end="6000" vehsPerHour="343.5"/>
  <flow id="JF1653" begin="5000" fromJunction="J3" toJunction="J5" end="6000" vehsPerHour="343.5"/>
  <flow id="JF1654" begin="5000" fromJunction="J3" toJunction="J6" end="6000" vehsPerHour="343.5"/>
  <flow id="JF1655" begin="5000" fromJunction="J4" toJunction="J7" end="6000" vehsPerHour="687.0"/>
  <flow id="JF1656" begin="5000" fromJunction="J4" toJunction="J0" end="6000" vehsPerHour="171.75"/>
  <flow id="JF1657" begin="5000" fromJunction="J4" toJunction="J3" end="6000" vehsPerHour="171.75"/>
  <flow id="JF1658" begin="5000" fromJunction="J4" toJunction="J5" end="6000" vehsPerHour="171.75"/>
  <flow id="JF1659" begin="5000" fromJunction="J4" toJunction="J6" end="6000" vehsPerHour="171.75"/>
  <flow id="JF1660" begin="5000" fromJunction="J5" toJunction="J0" end="6000" vehsPerHour="54.96000000000001"/>
  <flow id="JF1661" begin="5000" fromJunction="J5" toJunction="J3" end="6000" vehsPerHour="54.96000000000001"/>
  <flow id="JF1662" begin="5000" fromJunction="J5" toJunction="J4" end="6000" vehsPerHour="54.96000000000001"/>
  <flow id="JF1663" begin="5000" fromJunction="J5" toJunction="J6" end="6000" vehsPerHour="54.96000000000001"/>
  <flow id="JF1664" begin="5000" fromJunction="J5" toJunction="J7" end="6000" vehsPerHour="54.96000000000001"/>
  <flow id="JF1665" begin="5000" fromJunction="J6" toJunction="J0" end="6000" vehsPerHour="54.96000000000001"/>
  <flow id="JF1666" begin="5000" fromJunction="J6" toJunction="J3" end="6000" vehsPerHour="54.96000000000001"/>
  <flow id="JF1667" begin="5000" fromJunction="J6" toJunction="J4" end="6000" vehsPerHour="54.96000000000001"/>
  <flow id="JF1668" begin="5000" fromJunction="J6" toJunction="J5" end="6000" vehsPerHour="54.96000000000001"/>
  <flow id="JF1669" begin="5000" fromJunction="J6" toJunction="J7" end="6000" vehsPerHour="54.96000000000001"/>
  <flow id="JF1670" begin="5000" fromJunction="J7" toJunction="J0" end="6000" vehsPerHour="54.96000000000001"/>
  <flow id="JF1671" begin="5000" fromJunction="J7" toJunction="J3" end="6000" vehsPerHour="54.96000000000001"/>
  <flow id="JF1672" begin="5000" fromJunction="J7" toJunction="J4" end="6000" vehsPerHour="54.96000000000001"/>
  <flow id="JF1673" begin="5000" fromJunction="J7" toJunction="J5" end="6000" vehsPerHour="54.96000000000001"/>
  <flow id="JF1674" begin="5000" fromJunction="J7" toJunction="J6" end="6000" vehsPerHour="54.96000000000001"/>
  <flow id="JF1675" begin="5000" fromJunction="J0" toJunction="J3" end="6000" vehsPerHour="1374.0"/>
  <flow id="JF1676" begin="5000" fromJunction="J0" toJunction="J4" end="6000" vehsPerHour="343.5"/>
  <flow id="JF1677" begin="5000" fromJunction="J0" toJunction="J5" end="6000" vehsPerHour="343.5"/>
  <flow id="JF1678" begin="5000" fromJunction="J0" toJunction="J6" end="6000" vehsPerHour="343.5"/>
  <flow id="JF1679" begin="5000" fromJunction="J0" toJunction="J7" end="6000" vehsPerHour="343.5"/>
  <flow id="JF1680" begin="6000" fromJunction="J3" toJunction="J0" end="7000" vehsPerHour="109.92000000000002"/>
  <flow id="JF1681" begin="6000" fromJunction="J3" toJunction="J4" end="7000" vehsPerHour="109.92000000000002"/>
  <flow id="JF1682" begin="6000" fromJunction="J3" toJunction="J5" end="7000" vehsPerHour="109.92000000000002"/>
  <flow id="JF1683" begin="6000" fromJunction="J3" toJunction="J6" end="7000" vehsPerHour="109.92000000000002"/>
  <flow id="JF1684" begin="6000" fromJunction="J3" toJunction="J7" end="7000" vehsPerHour="109.92000000000002"/>
  <flow id="JF1685" begin="6000" fromJunction="J4" toJunction="J0" end="7000" vehsPerHour="54.96000000000001"/>
  <flow id="JF1686" begin="6000" fromJunction="J4" toJunction="J3" end="7000" vehsPerHour="54.96000000000001"/>
  <flow id="JF1687" begin="6000" fromJunction="J4" toJunction="J5" end="7000" vehsPerHour="54.96000000000001"/>
  <flow id="JF1688" begin="6000" fromJunction="J4" toJunction="J6" end="7000" vehsPerHour="54.96000000000001"/>
  <flow id="JF1689" begin="6000" fromJunction="J4" toJunction="J7" end="7000" vehsPerHour="54.96000000000001"/>
  <flow id="JF1690" begin="6000" fromJunction="J5" toJunction="J0" end="7000" vehsPerHour="54.96000000000001"/>
  <flow id="JF1691" begin="6000" fromJunction="J5" toJunction="J3" end="7000" vehsPerHour="54.96000000000001"/>
  <flow id="JF1692" begin="6000" fromJunction="J5" toJunction="J4" end="7000" vehsPerHour="54.96000000000001"/>
  <flow id="JF1693" begin="6000" fromJunction="J5" toJunction="J6" end="7000" vehsPerHour="54.96000000000001"/>
  <flow id="JF1694" begin="6000" fromJunction="J5" toJunction="J7" end="7000" vehsPerHour="54.96000000000001"/>
  <flow id="JF1695" begin="6000" fromJunction="J6" toJunction="J7" end="7000" vehsPerHour="687.0"/>
  <flow id="JF1696" begin="6000" fromJunction="J6" toJunction="J0" end="7000" vehsPerHour="171.75"/>
  <flow id="JF1697" begin="6000" fromJunction="J6" toJunction="J3" end="7000" vehsPerHour="171.75"/>
  <flow id="JF1698" begin="6000" fromJunction="J6" toJunction="J4" end="7000" vehsPerHour="171.75"/>
  <flow id="JF1699" begin="6000" fromJunction="J6" toJunction="J5" end="7000" vehsPerHour="171.75"/>
  <flow id="JF1700" begin="6000" fromJunction="J7" toJunction="J6" end="7000" vehsPerHour="687.0"/>
  <flow id="JF1701" begin="6000" fromJunction="J7" toJunction="J0" end="7000" vehsPerHour="171.75"/>
  <flow id="JF1702" begin="6000" fromJunction="J7" toJunction="J3" end="7000" vehsPerHour="171.75"/>
  <flow id="JF1703" begin="6000" fromJunction="J7" toJunction="J4" end="7000" vehsPerHour="171.75"/>
  <flow id="JF1704" begin="6000" fromJunction="J7" toJunction="J5" end="7000" vehsPerHour="171.75"/>
  <flow id="JF1705" begin="6000" fromJunction="J0" toJunction="J6" end="7000" vehsPerHour="1374.0"/>
  <flow id="JF1706" begin="6000" fromJunction="J0" toJunction="J3" end="7000" vehsPerHour="343.5"/>
  <flow id="JF1707" begin="6000" fromJunction="J0" toJunction="J4" end="7000" vehsPerHour="343.5"/>
  <flow id="JF1708" begin="6000" fromJunction="J0" toJunction="J5" end="7000" vehsPerHour="343.5"/>
  <flow id="JF1709" begin="6000" fromJunction="J0" toJunction="J7" end="7000" vehsPerHour="343.5"/>
  <flow id="JF1710" begin="7000" fromJunction="J3" toJunction="J0" end="8000" vehsPerHour="109.92000000000002"/>
  <flow id="JF1711" begin="7000" fromJunction="J3" toJunction="J4" end="8000" vehsPerHour="109.92000000000002"/>
  <flow id="JF1712" begin="7000" fromJunction="J3" toJunction="J5" end="8000" vehsPerHour="109.92000000000002"/>
  <flow id="JF1713" begin="7000" fromJunction="J3" toJunction="J6" end="8000" vehsPerHour="109.92000000000002"/>
  <flow id="JF1714" begin="7000" fromJunction="J3" toJunction="J7" end="8000" vehsPerHour="109.92000000000002"/>
  <flow id="JF1715" begin="7000" fromJunction="J4" toJunction="J0" end="8000" vehsPerHour="54.96000000000001"/>
  <flow id="JF1716" begin="7000" fromJunction="J4" toJunction="J3" end="8000" vehsPerHour="54.96000000000001"/>
  <flow id="JF1717" begin="7000" fromJunction="J4" toJunction="J5" end="8000" vehsPerHour="54.96000000000001"/>
  <flow id="JF1718" begin="7000" fromJunction="J4" toJunction="J6" end="8000" vehsPerHour="54.96000000000001"/>
  <flow id="JF1719" begin="7000" fromJunction="J4" toJunction="J7" end="8000" vehsPerHour="54.96000000000001"/>
  <flow id="JF1720" begin="7000" fromJunction="J5" toJunction="J4" end="8000" vehsPerHour="687.0"/>
  <flow id="JF1721" begin="7000" fromJunction="J5" toJunction="J0" end="8000" vehsPerHour="171.75"/>
  <flow id="JF1722" begin="7000" fromJunction="J5" toJunction="J3" end="8000" vehsPerHour="171.75"/>
  <flow id="JF1723" begin="7000" fromJunction="J5" toJunction="J6" end="8000" vehsPerHour="171.75"/>
  <flow id="JF1724" begin="7000" fromJunction="J5" toJunction="J7" end="8000" vehsPerHour="171.75"/>
  <flow id="JF1725" begin="7000" fromJunction="J6" toJunction="J7" end="8000" vehsPerHour="499.6363636363636"/>
  <flow id="JF1726" begin="7000" fromJunction="J6" toJunction="J0" end="8000" vehsPerHour="499.6363636363636"/>
  <flow id="JF1727" begin="7000" fromJunction="J6" toJunction="J3" end="8000" vehsPerHour="124.9090909090909"/>
  <flow id="JF1728" begin="7000" fromJunction="J6" toJunction="J4" end="8000" vehsPerHour="124.9090909090909"/>
  <flow id="JF1729" begin="7000" fromJunction="J6" toJunction="J5" end="8000" vehsPerHour="124.9090909090909"/>
  <flow id="JF1730" begin="7000" fromJunction="J7" toJunction="J0" end="8000" vehsPerHour="54.96000000000001"/>
  <flow id="JF1731" begin="7000" fromJunction="J7" toJunction="J3" end="8000" vehsPerHour="54.96000000000001"/>
  <flow id="JF1732" begin="7000" fromJunction="J7" toJunction="J4" end="8000" vehsPerHour="54.96000000000001"/>
  <flow id="JF1733" begin="7000" fromJunction="J7" toJunction="J5" end="8000" vehsPerHour="54.96000000000001"/>
  <flow id="JF1734" begin="7000" fromJunction="J7" toJunction="J6" end="8000" vehsPerHour="54.96000000000001"/>
  <flow id="JF1735" begin="7000" fromJunction="J0" toJunction="J3" end="8000" vehsPerHour="109.92000000000002"/>
  <flow id="JF1736" begin="7000" fromJunction="J0" toJunction="J4" end="8000" vehsPerHour="109.92000000000002"/>
  <flow id="JF1737" begin="7000" fromJunction="J0" toJunction="J5" end="8000" vehsPerHour="109.92000000000002"/>
  <flow id="JF1738" begin="7000" fromJunction="J0" toJunction="J6" end="8000" vehsPerHour="109.92000000000002"/>
  <flow id="JF1739" begin="7000" fromJunction="J0" toJunction="J7" end="8000" vehsPerHour="109.92000000000002"/>
  <flow id="JF1740" begin="8000" fromJunction="J3" toJunction="J4" end="9000" vehsPerHour="1374.0"/>
  <flow id="JF1741" begin="8000" fromJunction="J3" toJunction="J0" end="9000" vehsPerHour="343.5"/>
  <flow id="JF1742" begin="8000" fromJunction="J3" toJunction="J5" end="9000" vehsPerHour="343.5"/>
  <flow id="JF1743" begin="8000" fromJunction="J3" toJunction="J6" end="9000" vehsPerHour="343.5"/>
  <flow id="JF1744" begin="8000" fromJunction="J3" toJunction="J7" end="9000" vehsPerHour="343.5"/>
  <flow id="JF1745" begin="8000" fromJunction="J4" toJunction="J5" end="9000" vehsPerHour="687.0"/>
  <flow id="JF1746" begin="8000" fromJunction="J4" toJunction="J0" end="9000" vehsPerHour="171.75"/>
  <flow id="JF1747" begin="8000" fromJunction="J4" toJunction="J3" end="9000" vehsPerHour="171.75"/>
  <flow id="JF1748" begin="8000" fromJunction="J4" toJunction="J6" end="9000" vehsPerHour="171.75"/>
  <flow id="JF1749" begin="8000" fromJunction="J4" toJunction="J7" end="9000" vehsPerHour="171.75"/>
  <flow id="JF1750" begin="8000" fromJunction="J5" toJunction="J0" end="9000" vehsPerHour="54.96000000000001"/>
  <flow id="JF1751" begin="8000" fromJunction="J5" toJunction="J3" end="9000" vehsPerHour="54.96000000000001"/>
  <flow id="JF1752" begin="8000" fromJunction="J5" toJunction="J4" end="9000" vehsPerHour="54.96000000000001"/>
  <flow id="JF1753" begin="8000" fromJunction="J5" toJunction="J6" end="9000" vehsPerHour="54.96000000000001"/>
  <flow id="JF1754" begin="8000" fromJunction="J5" toJunction="J7" end="9000" vehsPerHour="54.96000000000001"/>
  <flow id="JF1755" begin="8000" fromJunction="J6" toJunction="J7" end="9000" vehsPerHour="687.0"/>
  <flow id="JF1756" begin="8000" fromJunction="J6" toJunction="J0" end="9000" vehsPerHour="171.75"/>
  <flow id="JF1757" begin="8000" fromJunction="J6" toJunction="J3" end="9000" vehsPerHour="171.75"/>
  <flow id="JF1758" begin="8000" fromJunction="J6" toJunction="J4" end="9000" vehsPerHour="171.75"/>
  <flow id="JF1759" begin="8000" fromJunction="J6" toJunction="J5" end="9000" vehsPerHour="171.75"/>
  <flow id="JF1760" begin="8000" fromJunction="J7" toJunction="J0" end="9000" vehsPerHour="54.96000000000001"/>
  <flow id="JF1761" begin="8000" fromJunction="J7" toJunction="J3" end="9000" vehsPerHour="54.96000000000001"/>
  <flow id="JF1762" begin="8000" fromJunction="J7" toJunction="J4" end="9000" vehsPerHour="54.96000000000001"/>
  <flow id="JF1763" begin="8000" fromJunction="J7" toJunction="J5" end="9000" vehsPerHour="54.96000000000001"/>
  <flow id="JF1764" begin="8000" fromJunction="J7" toJunction="J6" end="9000" vehsPerHour="54.96000000000001"/>
  <flow id="JF1765" begin="8000" fromJunction="J0" toJunction="J3" end="9000" vehsPerHour="109.92000000000002"/>
  <flow id="JF1766" begin="8000" fromJunction="J0" toJunction="J4" end="9000" vehsPerHour="109.92000000000002"/>
  <flow id="JF1767" begin="8000" fromJunction="J0" toJunction="J5" end="9000" vehsPerHour="109.92000000000002"/>
  <flow id="JF1768" begin="8000" fromJunction="J0" toJunction="J6" end="9000" vehsPerHour="109.92000000000002"/>
  <flow id="JF1769" begin="8000" fromJunction="J0" toJunction="J7" end="9000" vehsPerHour="109.92000000000002"/>
  <flow id="JF1770" begin="9000" fromJunction="J3" toJunction="J0" end="10000" vehsPerHour="109.92000000000002"/>
  <flow id="JF1771" begin="9000" fromJunction="J3" toJunction="J4" end="10000" vehsPerHour="109.92000000000002"/>
  <flow id="JF1772" begin="9000" fromJunction="J3" toJunction="J5" end="10000" vehsPerHour="109.92000000000002"/>
  <flow id="JF1773" begin="9000" fromJunction="J3" toJunction="J6" end="10000" vehsPerHour="109.92000000000002"/>
  <flow id="JF1774" begin="9000" fromJunction="J3" toJunction="J7" end="10000" vehsPerHour="109.92000000000002"/>
  <flow id="JF1775" begin="9000" fromJunction="J4" toJunction="J0" end="10000" vehsPerHour="54.96000000000001"/>
  <flow id="JF1776" begin="9000" fromJunction="J4" toJunction="J3" end="10000" vehsPerHour="54.96000000000001"/>
  <flow id="JF1777" begin="9000" fromJunction="J4" toJunction="J5" end="10000" vehsPerHour="54.96000000000001"/>