<?xml version="1.0" encoding="UTF-8"?>
<routes xmlns:xsi="http://www.w3.org/2001/XMLSchema-instance" xsi:noNamespaceSchemaLocation="http://sumo.dlr.de/xsd/routes_file.xsd">
  <flow id="JF1200" begin="0" fromJunction="J3" toJunction="J0" end="1000" vehsPerHour="109.92000000000002"/>
  <flow id="JF1201" begin="0" fromJunction="J3" toJunction="J4" end="1000" vehsPerHour="109.92000000000002"/>
  <flow id="JF1202" begin="0" fromJunction="J3" toJunction="J5" end="1000" vehsPerHour="109.92000000000002"/>
  <flow id="JF1203" begin="0" fromJunction="J3" toJunction="J6" end="1000" vehsPerHour="109.92000000000002"/>
  <flow id="JF1204" begin="0" fromJunction="J3" toJunction="J7" end="1000" vehsPerHour="109.92000000000002"/>
  <flow id="JF1205" begin="0" fromJunction="J4" toJunction="J6" end="1000" vehsPerHour="499.6363636363636"/>
  <flow id="JF1206" begin="0" fromJunction="J4" toJunction="J5" end="1000" vehsPerHour="499.6363636363636"/>
  <flow id="JF1207" begin="0" fromJunction="J4" toJunction="J0" end="1000" vehsPerHour="124.9090909090909"/>
  <flow id="JF1208" begin="0" fromJunction="J4" toJunction="J3" end="1000" vehsPerHour="124.9090909090909"/>
  <flow id="JF1209" begin="0" fromJunction="J4" toJunction="J7" end="1000" vehsPerHour="124.9090909090909"/>
  <flow id="JF1210" begin="0" fromJunction="J5" toJunction="J0" end="1000" vehsPerHour="54.96000000000001"/>
  <flow id="JF1211" begin="0" fromJunction="J5" toJunction="J3" end="1000" vehsPerHour="54.96000000000001"/>
  <flow id="JF1212" begin="0" fromJunction="J5" toJunction="J4" end="1000" vehsPerHour="54.96000000000001"/>
  <flow id="JF1213" begin="0" fromJunction="J5" toJunction="J6" end="1000" vehsPerHour="54.96000000000001"/>
  <flow id="JF1214" begin="0" fromJunction="J5" toJunction="J7" end="1000" vehsPerHour="54.96000000000001"/>
  <flow id="JF1215" begin="0" fromJunction="J6" toJunction="J3" end="1000" vehsPerHour="687.0"/>
  <flow id="JF1216" begin="0" fromJunction="J6" toJunction="J0" end="1000" vehsPerHour="171.75"/>
  <flow id="JF1217" begin="0" fromJunction="J6" toJunction="J4" end="1000" vehsPerHour="171.75"/>
  <flow id="JF1218" begin="0" fromJunction="J6" toJunction="J5" end="1000" vehsPerHour="171.75"/>
  <flow id="JF1219" begin="0" fromJunction="J6" toJunction="J7" end="1000" vehsPerHour="171.75"/>
  <flow id="JF1220" begin="0" fromJunction="J7" toJunction="J0" end="1000" vehsPerHour="54.96000000000001"/>
  <flow id="JF1221" begin="0" fromJunction="J7" toJunction="J3" end="1000" vehsPerHour="54.96000000000001"/>
  <flow id="JF1222" begin="0" fromJunction="J7" toJunction="J4" end="1000" vehsPerHour="54.96000000000001"/>
  <flow id="JF1223" begin="0" fromJunction="J7" toJunction="J5" end="1000" vehsPerHour="54.96000000000001"/>
  <flow id="JF1224" begin="0" fromJunction="J7" toJunction="J6" end="1000" vehsPerHour="54.96000000000001"/>
  <flow id="JF1225" begin="0" fromJunction="J0" toJunction="J3" end="1000" vehsPerHour="109.92000000000002"/>
  <flow id="JF1226" begin="0" fromJunction="J0" toJunction="J4" end="1000" vehsPerHour="109.92000000000002"/>
  <flow id="JF1227" begin="0" fromJunction="J0" toJunction="J5" end="1000" vehsPerHour="109.92000000000002"/>
  <flow id="JF1228" begin="0" fromJunction="J0" toJunction="J6" end="1000" vehsPerHour="109.92000000000002"/>
  <flow id="JF1229" begin="0" fromJunction="J0" toJunction="J7" end="1000" vehsPerHour="109.92000000000002"/>
  <flow id="JF1230" begin="1000" fromJunction="J3" toJunction="J0" end="2000" vehsPerHour="109.92000000000002"/>
  <flow id="JF1231" begin="1000" fromJunction="J3" toJunction="J4" end="2000" vehsPerHour="109.92000000000002"/>
  <flow id="JF1232" begin="1000" fromJunction="J3" toJunction="J5" end="2000" vehsPerHour="109.92000000000002"/>
  <flow id="JF1233" begin="1000" fromJunction="J3" toJunction="J6" end="2000" vehsPerHour="109.92000000000002"/>
  <flow id="JF1234" begin="1000" fromJunction="J3" toJunction="J7" end="2000" vehsPerHour="109.92000000000002"/>
  <flow id="JF1235" begin="1000" fromJunction="J4" toJunction="J0" end="2000" vehsPerHour="54.96000000000001"/>
  <flow id="JF1236" begin="1000" fromJunction="J4" toJunction="J3" end="2000" vehsPerHour="54.96000000000001"/>
  <flow id="JF1237" begin="1000" fromJunction="J4" toJunction="J5" end="2000" vehsPerHour="54.96000000000001"/>
  <flow id="JF1238" begin="1000" fromJunction="J4" toJunction="J6" end="2000" vehsPerHour="54.96000000000001"/>
  <flow id="JF1239" begin="1000" fromJunction="J4" toJunction="J7" end="2000" vehsPerHour="54.96000000000001"/>
  <flow id="JF1240" begin="1000" fromJunction="J5" toJunction="J6" end="2000" vehsPerHour="687.0"/>
  <flow id="JF1241" begin="1000" fromJunction="J5" toJunction="J0" end="2000" vehsPerHour="171.75"/>
  <flow id="JF1242" begin="1000" fromJunction="J5" toJunction="J3" end="2000" vehsPerHour="171.75"/>
  <flow id="JF1243" begin="1000" fromJunction="J5" toJunction="J4" end="2000" vehsPerHour="171.75"/>
  <flow id="JF1244" begin="1000" fromJunction="J5" toJunction="J7" end="2000" vehsPerHour="171.75"/>
  <flow id="JF1245" begin="1000" fromJunction="J6" toJunction="J5" end="2000" vehsPerHour="687.0"/>
  <flow id="JF1246" begin="1000" fromJunction="J6" toJunction="J0" end="2000" vehsPerHour="171.75"/>
  <flow id="JF1247" begin="1000" fromJunction="J6" toJunction="J3" end="2000" vehsPerHour="171.75"/>
  <flow id="JF1248" begin="1000" fromJunction="J6" toJunction="J4" end="2000" vehsPerHour="171.75"/>
  <flow id="JF1249" begin="1000" fromJunction="J6" toJunction="J7" end="2000" vehsPerHour="171.75"/>
  <flow id="JF1250" begin="1000" fromJunction="J7" toJunction="J6" end="2000" vehsPerHour="687.0"/>
  <flow id="JF1251" begin="1000" fromJunction="J7" toJunction="J0" end="2000" vehsPerHour="171.75"/>
  <flow id="JF1252" begin="1000" fromJunction="J7" toJunction="J3" end="2000" vehsPerHour="171.75"/>
  <flow id="JF1253" begin="1000" fromJunction="J7" toJunction="J4" end="2000" vehsPerHour="171.75"/>
  <flow id="JF1254" begin="1000" fromJunction="J7" toJunction="J5" end="2000" vehsPerHour="171.75"/>
  <flow id="JF1255" begin="1000" fromJunction="J0" toJunction="J3" end="2000" vehsPerHour="109.92000000000002"/>
  <flow id="JF1256" begin="1000" fromJunction="J0" toJunction="J4" end="2000" vehsPerHour="109.92000000000002"/>
  <flow id="JF1257" begin="1000" fromJunction="J0" toJunction="J5" end="2000" vehsPerHour="109.92000000000002"/>
  <flow id="JF1258" begin="1000" fromJunction="J0" toJunction="J6" end="2000" vehsPerHour="109.92000000000002"/>
  <flow id="JF1259" begin="1000" fromJunction="J0" toJunction="J7" end="2000" vehsPerHour="109.92000000000002"/>
  <flow id="JF1260" begin="2000" fromJunction="J3" toJunction="J0" end="3000" vehsPerHour="109.92000000000002"/>
  <flow id="JF1261" begin="2000" fromJunction="J3" toJunction="J4" end="3000" vehsPerHour="109.92000000000002"/>
  <flow id="JF1262" begin="2000" fromJunction="J3" toJunction="J5" end="3000" vehsPerHour="109.92000000000002"/>
  <flow id="JF1263" begin="2000" fromJunction="J3" toJunction="J6" end="3000" vehsPerHour="109.92000000000002"/>
  <flow id="JF1264" begin="2000" fromJunction="J3" toJunction="J7" end="3000" vehsPerHour="109.92000000000002"/>
  <flow id="JF1265" begin="2000" fromJunction="J4" toJunction="J0" end="3000" vehsPerHour="54.96000000000001"/>
  <flow id="JF1266" begin="2000" fromJunction="J4" toJunction="J3" end="3000" vehsPerHour="54.96000000000001"/>
  <flow id="JF1267" begin="2000" fromJunction="J4" toJunction="J5" end="3000" vehsPerHour="54.96000000000001"/>
  <flow id="JF1268" begin="2000" fromJunction="J4" toJunction="J6" end="3000" vehsPerHour="54.96000000000001"/>
  <flow id="JF1269" begin="2000" fromJunction="J4" toJunction="J7" end="3000" vehsPerHour="54.96000000000001"/>
  <flow id="JF1270" begin="2000" fromJunction="J5" toJunction="J6" end="3000" vehsPerHour="499.6363636363636"/>
  <flow id="JF1271" begin="2000" fromJunction="J5" toJunction="J0" end="3000" vehsPerHour="499.6363636363636"/>
  <flow id="JF1272" begin="2000" fromJunction="J5" toJunction="J3" end="3000" vehsPerHour="124.9090909090909"/>
  <flow id="JF1273" begin="2000" fromJunction="J5" toJunction="J4" end="3000" vehsPerHour="124.9090909090909"/>
  <flow id="JF1274" begin="2000" fromJunction="J5" toJunction="J7" end="3000" vehsPerHour="124.9090909090909"/>
  <flow id="JF1275" begin="2000" fromJunction="J6" toJunction="J0" end="3000" vehsPerHour="54.96000000000001"/>
  <flow id="JF1276" begin="2000" fromJunction="J6" toJunction="J3" end="3000" vehsPerHour="54.96000000000001"/>
  <flow id="JF1277" begin="2000" fromJunction="J6" toJunction="J4" end="3000" vehsPerHour="54.96000000000001"/>
  <flow id="JF1278" begin="2000" fromJunction="J6" toJunction="J5" end="3000" vehsPerHour="54.96000000000001"/>
  <flow id="JF1279" begin="2000" fromJunction="J6" toJunction="J7" end="3000" vehsPerHour="54.96000000000001"/>
  <flow id="JF1280" begin="2000" fromJunction="J7" toJunction="J0" end="3000" vehsPerHour="54.96000000000001"/>
  <flow id="JF1281" begin="2000" fromJunction="J7" toJunction="J3" end="3000" vehsPerHour="54.96000000000001"/>
  <flow id="JF1282" begin="2000" fromJunction="J7" toJunction="J4" end="3000" vehsPerHour="54.96000000000001"/>
  <flow id="JF1283" begin="2000" fromJunction="J7" toJunction="J5" end="3000" vehsPerHour="54.96000000000001"/>
  <flow id="JF1284" begin="2000" fromJunction="J7" toJunction="J6" end="3000" vehsPerHour="54.96000000000001"/>
  <flow id="JF1285" begin="2000" fromJunction="J0" toJunction="J7" end="3000" vehsPerHour="1374.0"/>
  <flow id="JF1286" begin="2000" fromJunction="J0" toJunction="J3" end="3000" vehsPerHour="343.5"/>
  <flow id="JF1287" begin="2000" fromJunction="J0" toJunction="J4" end="3000" vehsPerHour="343.5"/>
  <flow id="JF1288" begin="2000" fromJunction="J0" toJunction="J5" end="3000" vehsPerHour="343.5"/>
  <flow id="JF1289" begin="2000" fromJunction="J0" toJunction="J6" end="3000" vehsPerHour="343.5"/>
  <flow id="JF1290" begin="3000" fromJunction="J3" toJunction="J0" end="4000" vehsPerHour="109.92000000000002"/>
  <flow id="JF1291" begin="3000" fromJunction="J3" toJunction="J4" end="4000" vehsPerHour="109.92000000000002"/>
  <flow id="JF1292" begin="3000" fromJunction="J3" toJunction="J5" end="4000" vehsPerHour="109.92000000000002"/>
  <flow id="JF1293" begin="3000" fromJunction="J3" toJunction="J6" end="4000" vehsPerHour="109.92000000000002"/>
  <flow id="JF1294" begin="3000" fromJunction="J3" toJunction="J7" end="4000" vehsPerHour="109.92000000000002"/>
  <flow id="JF1295" begin="3000" fromJunction="J4" toJunction="J0" end="4000" vehsPerHour="54.96000000000001"/>
  <flow id="JF1296" begin="3000" fromJunction="J4" toJunction="J3" end="4000" vehsPerHour="54.96000000000001"/>
  <flow id="JF1297" begin="3000" fromJunction="J4" toJunction="J5" end="4000" vehsPerHour="54.96000000000001"/>
  <flow id="JF1298" begin="3000" fromJunction="J4" toJunction="J6" end="4000" vehsPerHour="54.96000000000001"/>
  <flow id="JF1299" begin="3000" fromJunction="J4" toJunction="J7" end="4000" vehsPerHour="54.96000000000001"/>
  <flow id="JF1300" begin="3000" fromJunction="J5" toJunction="J0" end="4000" vehsPerHour="54.96000000000001"/>
  <flow id="JF1301" begin="3000" fromJunction="J5" toJunction="J3" end="4000" vehsPerHour="54.96000000000001"/>
  <flow id="JF1302" begin="3000" fromJunction="J5" toJunction="J4" end="4000" vehsPerHour="54.96000000000001"/>
  <flow id="JF1303" begin="3000" fromJunction="J5" toJunction="J6" end="4000" vehsPerHour="54.96000000000001"/>
  <flow id="JF1304" begin="3000" fromJunction="J5" toJunction="J7" end="4000" vehsPerHour="54.96000000000001"/>
  <flow id="JF1305" begin="3000" fromJunction="J6" toJunction="J3" end="4000" vehsPerHour="687.0"/>
  <flow id="JF1306" begin="3000" fromJunction="J6" toJunction="J0" end="4000" vehsPerHour="171.75"/>
  <flow id="JF1307" begin="3000" fromJunction="J6" toJunction="J4" end="4000" vehsPerHour="171.75"/>
  <flow id="JF1308" begin="3000" fromJunction="J6" toJunction="J5" end="4000" vehsPerHour="171.75"/>
  <flow id="JF1309" begin="3000" fromJunction="J6" toJunction="J7" end="4000" vehsPerHour="171.75"/>
  <flow id="JF1310" begin="3000" fromJunction="J7" toJunction="J5" end="4000" vehsPerHour="687.0"/>
  <flow id="JF1311" begin="3000" fromJunction="J7" toJunction="J0" end="4000" vehsPerHour="171.75"/>
  <flow id="JF1312" begin="3000" fromJunction="J7" toJunction="J3" end="4000" vehsPerHour="171.75"/>
  <flow id="JF1313" begin="3000" fromJunction="J7" toJunction="J4" end="4000" vehsPerHour="171.75"/>
  <flow id="JF1314" begin="3000" fromJunction="J7" toJunction="J6" end="4000" vehsPerHour="171.75"/>
  <flow id="JF1315" begin="3000" fromJunction="J0" toJunction="J5" end="4000" vehsPerHour="1374.0"/>
  <flow id="JF1316" begin="3000" fromJunction="J0" toJunction="J3" end="4000" vehsPerHour="343.5"/>
  <flow id="JF1317" begin="3000" fromJunction="J0" toJunction="J4" end="4000" vehsPerHour="343.5"/>
  <flow id="JF1318" begin="3000" fromJunction="J0" toJunction="J6" end="4000" vehsPerHour="343.5"/>
  <flow id="JF1319" begin="3000" fromJunction="J0" toJunction="J7" end="4000" vehsPerHour="343.5"/>
  <flow id="JF1320" begin="4000" fromJunction="J3" toJunction="J7" end="5000" vehsPerHour="1374.0"/>
  <flow id="JF1321" begin="4000" fromJunction="J3" toJunction="J0" end="5000" vehsPerHour="343.5"/>
  <flow id="JF1322" begin="4000" fromJunction="J3" toJunction="J4" end="5000" vehsPerHour="343.5"/>
  <flow id="JF1323" begin="4000" fromJunction="J3" toJunction="J5" end="5000" vehsPerHour="343.5"/>
  <flow id="JF1324" begin="4000" fromJunction="J3" toJunction="J6" end="5000" vehsPerHour="343.5"/>
  <flow id="JF1325" begin="4000" fromJunction="J4" toJunction="J0" end="5000" vehsPerHour="54.96000000000001"/>
  <flow id="JF1326" begin="4000" fromJunction="J4" toJunction="J3" end="5000" vehsPerHour="54.96000000000001"/>
  <flow id="JF1327" begin="4000" fromJunction="J4" toJunction="J5" end="5000" vehsPerHour="54.96000000000001"/>
  <flow id="JF1328" begin="4000" fromJunction="J4" toJunction="J6" end="5000" vehsPerHour="54.96000000000001"/>
  <flow id="JF1329" begin="4000" fromJunction="J4" toJunction="J7" end="5000" vehsPerHour="54.96000000000001"/>
  <flow id="JF1330" begin="4000" fromJunction="J5" toJunction="J6" end="5000" vehsPerHour="687.0"/>
  <flow id="JF1331" begin="4000" fromJunction="J5" toJunction="J0" end="5000" vehsPerHour="171.75"/>
  <flow id="JF1332" begin="4000" fromJunction="J5" toJunction="J3" end="5000" vehsPerHour="171.75"/>
  <flow id="JF1333" begin="4000" fromJunction="J5" toJunction="J4" end="5000" vehsPerHour="171.75"/>
  <flow id="JF1334" begin="4000" fromJunction="J5" toJunction="J7" end="5000" vehsPerHour="171.75"/>
  <flow id="JF1335" begin="4000" fromJunction="J6" toJunction="J0" end="5000" vehsPerHour="687.0"/>
  <flow id="JF1336" begin="4000" fromJunction="J6" toJunction="J3" end="5000" vehsPerHour="171.75"/>
  <flow id="JF1337" begin="4000" fromJunction="J6" toJunction="J4" end="5000" vehsPerHour="171.75"/>
  <flow id="JF1338" begin="4000" fromJunction="J6" toJunction="J5" end="5000" vehsPerHour="171.75"/>
  <flow id="JF1339" begin="4000" fromJunction="J6" toJunction="J7" end="5000" vehsPerHour="171.75"/>
  <flow id="JF1340" begin="4000" fromJunction="J7" toJunction="J0" end="5000" vehsPerHour="54.96000000000001"/>
  <flow id="JF1341" begin="4000" fromJunction="J7" toJunction="J3" end="5000" vehsPerHour="54.96000000000001"/>
  <flow id="JF1342" begin="4000" fromJunction="J7" toJunction="J4" end="5000" vehsPerHour="54.96000000000001"/>
  <flow id="JF1343" begin="4000" fromJunction="J7" toJunction="J5" end="5000" vehsPerHour="54.96000000000001"/>
  <flow id="JF1344" begin="4000" fromJunction="J7" toJunction="J6" end="5000" vehsPerHour="54.96000000000001"/>
  <flow id="JF1345" begin="4000" fromJunction="J0" toJunction="J3" end="5000" vehsPerHour="109.92000000000002"/>
  <flow id="JF1346" begin="4000" fromJunction="J0" toJunction="J4" end="5000" vehsPerHour="109.92000000000002"/>
  <flow id="JF1347" begin="4000" fromJunction="J0" toJunction="J5" end="5000" vehsPerHour="109.92000000000002"/>
  <flow id="JF1348" begin="4000" fromJunction="J0" toJunction="J6" end="5000" vehsPerHour="109.92000000000002"/>
  <flow id="JF1349" begin="4000" fromJunction="J0" toJunction="J7" end="5000" vehsPerHour="109.92000000000002"/>
  <flow id="JF1350" begin="5000" fromJunction="J3" toJunction="J7" end="6000" vehsPerHour="999.2727272727273"/>
  <flow id="JF1351" begin="5000" fromJunction="J3" toJunction="J6" end="6000" vehsPerHour="999.2727272727273"/>
  <flow id="JF1352" begin="5000" fromJunction="J3" toJunction="J0" end="6000" vehsPerHour="249.8181818181818"/>
  <flow id="JF1353" begin="5000" fromJunction="J3" toJunction="J4" end="6000" vehsPerHour="249.8181818181818"/>
  <flow id="JF1354" begin="5000" fromJunction="J3" toJunction="J5" end="6000" vehsPerHour="249.8181818181818"/>
  <flow id="JF1355" begin="5000" fromJunction="J4" toJunction="J0" end="6000" vehsPerHour="687.0"/>
  <flow id="JF1356" begin="5000" fromJunction="J4" toJunction="J3" end="6000" vehsPerHour="171.75"/>
  <flow id="JF1357" begin="5000" fromJunction="J4" toJunction="J5" end="6000" vehsPerHour="171.75"/>
  <flow id="JF1358" begin="5000" fromJunction="J4" toJunction="J6" end="6000" vehsPerHour="171.75"/>
  <flow id="JF1359" begin="5000" fromJunction="J4" toJunction="J7" end="6000" vehsPerHour="171.75"/>
  <flow id="JF1360" begin="5000" fromJunction="J5" toJunction="J0" end="6000" vehsPerHour="54.96000000000001"/>
  <flow id="JF1361" begin="5000" fromJunction="J5" toJunction="J3" end="6000" vehsPerHour="54.96000000000001"/>
  <flow id="JF1362" begin="5000" fromJunction="J5" toJunction="J4" end="6000" vehsPerHour="54.96000000000001"/>
  <flow id="JF1363" begin="5000" fromJunction="J5" toJunction="J6" end="6000" vehsPerHour="54.96000000000001"/>
  <flow id="JF1364" begin="5000" fromJunction="J5" toJunction="J7" end="6000" vehsPerHour="54.96000000000001"/>
  <flow id="JF1365" begin="5000" fromJunction="J6" toJunction="J0" end="6000" vehsPerHour="54.96000000000001"/>
  <flow id="JF1366" begin="5000" fromJunction="J6" toJunction="J3" end="6000" vehsPerHour="54.96000000000001"/>
  <flow id="JF1367" begin="5000" fromJunction="J6" toJunction="J4" end="6000" vehsPerHour="54.96000000000001"/>
  <flow id="JF1368" begin="5000" fromJunction="J6" toJunction="J5" end="6000" vehsPerHour="54.96000000000001"/>
  <flow id="JF1369" begin="5000" fromJunction="J6" toJunction="J7" end="6000" vehsPerHour="54.96000000000001"/>
  <flow id="JF1370" begin="5000" fromJunction="J7" toJunction="J0" end="6000" vehsPerHour="54.96000000000001"/>
  <flow id="JF1371" begin="5000" fromJunction="J7" toJunction="J3" end="6000" vehsPerHour="54.96000000000001"/>
  <flow id="JF1372" begin="5000" fromJunction="J7" toJunction="J4" end="6000" vehsPerHour="54.96000000000001"/>
  <flow id="JF1373" begin="5000" fromJunction="J7" toJunction="J5" end="6000" vehsPerHour="54.96000000000001"/>
  <flow id="JF1374" begin="5000" fromJunction="J7" toJunction="J6" end="6000" vehsPerHour="54.96000000000001"/>
  <flow id="JF1375" begin="5000" fromJunction="J0" toJunction="J3" end="6000" vehsPerHour="109.92000000000002"/>
  <flow id="JF1376" begin="5000" fromJunction="J0" toJunction="J4" end="6000" vehsPerHour="109.92000000000002"/>
  <flow id="JF1377" begin="5000" fromJunction="J0" toJunction="J5" end="6000" vehsPerHour="109.92000000000002"/>
  <flow id="JF1378" begin="5000" fromJunction="J0" toJunction="J6" end="6000" vehsPerHour="109.92000000000002"/>
  <flow id="JF1379" begin="5000" fromJunction="J0" toJunction="J7" end="6000" vehsPerHour="109.92000000000002"/>
  <flow id="JF1380" begin="6000" fromJunction="J3" toJunction="J4" end="7000" vehsPerHour="1374.0"/>
  <flow id="JF1381" begin="6000" fromJunction="J3" toJunction="J0" end="7000" vehsPerHour="343.5"/>
  <flow id="JF1382" begin="6000" fromJunction="J3" toJunction="J5" end="7000" vehsPerHour="343.5"/>
  <flow id="JF1383" begin="6000" fromJunction="J3" toJunction="J6" end="7000" vehsPerHour="343.5"/>
  <flow id="JF1384" begin="6000" fromJunction="J3" toJunction="J7" end="7000" vehsPerHour="343.5"/>
  <flow id="JF1385" begin="6000" fromJunction="J4" toJunction="J6" end="7000" vehsPerHour="687.0"/>
  <flow id="JF1386" begin="6000" fromJunction="J4" toJunction="J0" end="7000" vehsPerHour="171.75"/>
  <flow id="JF1387" begin="6000" fromJunction="J4" toJunction="J3" end="7000" vehsPerHour="171.75"/>
  <flow id="JF1388" begin="6000" fromJunction="J4" toJunction="J5" end="7000" vehsPerHour="171.75"/>
  <flow id="JF1389" begin="6000" fromJunction="J4" toJunction="J7" end="7000" vehsPerHour="171.75"/>
  <flow id="JF1390" begin="6000" fromJunction="J5" toJunction="J0" end="7000" vehsPerHour="54.96000000000001"/>
  <flow id="JF1391" begin="6000" fromJunction="J5" toJunction="J3" end="7000" vehsPerHour="54.96000000000001"/>
  <flow id="JF1392" begin="6000" fromJunction="J5" toJunction="J4" end="7000" vehsPerHour="54.96000000000001"/>
  <flow id="JF1393" begin="6000" fromJunction="J5" toJunction="J6" end="7000" vehsPerHour="54.96000000000001"/>
  <flow id="JF1394" begin="6000" fromJunction="J5" toJunction="J7" end="7000" vehsPerHour="54.96000000000001"/>
  <flow id="JF1395" begin="6000" fromJunction="J6" toJunction="J0" end="7000" vehsPerHour="54.96000000000001"/>
  <flow id="JF1396" begin="6000" fromJunction="J6" toJunction="J3" end="7000" vehsPerHour="54.96000000000001"/>
  <flow id="JF1397" begin="6000" fromJunction="J6" toJunction="J4" end="7000" vehsPerHour="54.96000000000001"/>
  <flow id="JF1398" begin="6000" fromJunction="J6" toJunction="J5" end="7000" vehsPerHour="54.96000000000001"/>
  <flow id="JF1399" begin="6000" fromJunction="J6" toJunction="J7" end="7000" vehsPerHour="54.96000000000001"/>
  <flow id="JF1400" begin="6000" fromJunction="J7" toJunction="J0" end="7000" vehsPerHour="54.96000000000001"/>
  <flow id="JF1401" begin="6000" fromJunction="J7" toJunction="J3" end="7000" vehsPerHour="54.96000000000001"/>
  <flow id="JF1402" begin="6000" fromJunction="J7" toJunction="J4" end="7000" vehsPerHour="54.96000000000001"/>
  <flow id="JF1403" begin="6000" fromJunction="J7" toJunction="J5" end="7000" vehsPerHour="54.96000000000001"/>
  <flow id="JF1404" begin="6000" fromJunction="J7" toJunction="J6" end="7000" vehsPerHour="54.96000000000001"/>
  <flow id="JF1405" begin="6000" fromJunction="J0" toJunction="J7" end="7000" vehsPerHour="1374.0"/>
  <flow id="JF1406" begin="6000" fromJunction="J0" toJunction="J3" end="7000" vehsPerHour="343.5"/>
  <flow id="JF1407" begin="6000" fromJunction="J0" toJunction="J4" end="7000" vehsPerHour="343.5"/>
  <flow id="JF1408" begin="6000" fromJunction="J0" toJunction="J5" end="7000" vehsPerHour="343.5"/>
  <flow id="JF1409" begin="6000" fromJunction="J0" toJunction="J6" end="7000" vehsPerHour="343.5"/>
  <flow id="JF1410" begin="7000" fromJunction="J3" toJunction="J0" end="8000" vehsPerHour="109.92000000000002"/>
  <flow id="JF1411" begin="7000" fromJunction="J3" toJunction="J4" end="8000" vehsPerHour="109.92000000000002"/>
  <flow id="JF1412" begin="7000" fromJunction="J3" toJunction="J5" end="8000" vehsPerHour="109.92000000000002"/>
  <flow id="JF1413" begin="7000" fromJunction="J3" toJunction="J6" end="8000" vehsPerHour="109.92000000000002"/>
  <flow id="JF1414" begin="7000" fromJunction="J3" toJunction="J7" end="8000" vehsPerHour="109.92000000000002"/>
  <flow id="JF1415" begin="7000" fromJunction="J4" toJunction="J7" end="8000" vehsPerHour="499.6363636363636"/>
  <flow id="JF1416" begin="7000" fromJunction="J4" toJunction="J5" end="8000" vehsPerHour="499.6363636363636"/>
  <flow id="JF1417" begin="7000" fromJunction="J4" toJunction="J0" end="8000" vehsPerHour="124.9090909090909"/>
  <flow id="JF1418" begin="7000" fromJunction="J4" toJunction="J3" end="8000" vehsPerHour="124.9090909090909"/>
  <flow id="JF1419" begin="7000" fromJunction="J4" toJunction="J6" end="8000" vehsPerHour="124.9090909090909"/>
  <flow id="JF1420" begin="7000" fromJunction="J5" toJunction="J0" end="8000" vehsPerHour="54.96000000000001"/>
  <flow id="JF1421" begin="7000" fromJunction="J5" toJunction="J3" end="8000" vehsPerHour="54.96000000000001"/>
  <flow id="JF1422" begin="7000" fromJunction="J5" toJunction="J4" end="8000" vehsPerHour="54.96000000000001"/>
  <flow id="JF1423" begin="7000" fromJunction="J5" toJunction="J6" end="8000" vehsPerHour="54.96000000000001"/>
  <flow id="JF1424" begin="7000" fromJunction="J5" toJunction="J7" end="8000" vehsPerHour="54.96000000000001"/>
  <flow id="JF1425" begin="7000" fromJunction="J6" toJunction="J0" end="8000" vehsPerHour="54.96000000000001"/>
  <flow id="JF1426" begin="7000" fromJunction="J6" toJunction="J3" end="8000" vehsPerHour="54.96000000000001"/>
  <flow id="JF1427" begin="7000" fromJunction="J6" toJunction="J4" end="8000" vehsPerHour="54.96000000000001"/>
  <flow id="JF1428" begin="7000" fromJunction="J6" toJunction="J5" end="8000" vehsPerHour="54.96000000000001"/>
  <flow id="JF1429" begin="7000" fromJunction="J6" toJunction="J7" end="8000" vehsPerHour="54.96000000000001"/>
  <flow id="JF1430" begin="7000" fromJunction="J7" toJunction="J0" end="8000" vehsPerHour="54.96000000000001"/>
  <flow id="JF1431" begin="7000" fromJunction="J7" toJunction="J3" end="8000" vehsPerHour="54.96000000000001"/>
  <flow id="JF1432" begin="7000" fromJunction="J7" toJunction="J4" end="8000" vehsPerHour="54.96000000000001"/>
  <flow id="JF1433" begin="7000" fromJunction="J7" toJunction="J5" end="8000" vehsPerHour="54.96000000000001"/>
  <flow id="JF1434" begin="7000" fromJunction="J7" toJunction="J6" end="8000" vehsPerHour="54.96000000000001"/>
  <flow id="JF1435" begin="7000" fromJunction="J0" toJunction="J4" end="8000" vehsPerHour="1374.0"/>
  <flow id="JF1436" begin="7000" fromJunction="J0" toJunction="J3" end="8000" vehsPerHour="343.5"/>
  <flow id="JF1437" begin="7000" fromJunction="J0" toJunction="J5" end="8000" vehsPerHour="343.5"/>
  <flow id="JF1438" begin="7000" fromJunction="J0" toJunction="J6" end="8000" vehsPerHour="343.5"/>
  <flow id="JF1439" begin="7000" fromJunction="J0" toJunction="J7" end="8000" vehsPerHour="343.5"/>
  <flow id="JF1440" begin="8000" fromJunction="J3" toJunction="J4" end="9000" vehsPerHour="1374.0"/>
  <flow id="JF1441" begin="8000" fromJunction="J3" toJunction="J0" end="9000" vehsPerHour="343.5"/>
  <flow id="JF1442" begin="8000" fromJunction="J3" toJunction="J5" end="9000" vehsPerHour="343.5"/>
  <flow id="JF1443" begin="8000" fromJunction="J3" toJunction="J6" end="9000" vehsPerHour="343.5"/>
  <flow id="JF1444" begin="8000" fromJunction="J3" toJunction="J7" end="9000" vehsPerHour="343.5"/>
  <flow id="JF1445" begin="8000" fromJunction="J4" toJunction="J0" end="9000" vehsPerHour="54.96000000000001"/>
  <flow id="JF1446" begin="8000" fromJunction="J4" toJunction="J3" end="9000" vehsPerHour="54.96000000000001"/>
  <flow id="JF1447" begin="8000" fromJunction="J4" toJunction="J5" end="9000" vehsPerHour="54.96000000000001"/>
  <flow id="JF1448" begin="8000" fromJunction="J4" toJunction="J6" end="9000" vehsPerHour="54.96000000000001"/>
  <flow id="JF1449" begin="8000" fromJunction="J4" toJunction="J7" end="9000" vehsPerHour="54.96000000000001"/>
  <flow id="JF1450" begin="8000" fromJunction="J5" toJunction="J0" end="9000" vehsPerHour="54.96000000000001"/>
  <flow id="JF1451" begin="8000" fromJunction="J5" toJunction="J3" end="9000" vehsPerHour="54.96000000000001"/>
  <flow id="JF1452" begin="8000" fromJunction="J5" toJunction="J4" end="9000" vehsPerHour="54.96000000000001"/>
  <flow id="JF1453" begin="8000" fromJunction="J5" toJunction="J6" end="9000" vehsPerHour="54.96000000000001"/>
  <flow id="JF1454" begin="8000" fromJunction="J5" toJunction="J7" end="9000" vehsPerHour="54.96000000000001"/>
  <flow id="JF1455" begin="8000" fromJunction="J6" toJunction="J4" end="9000" vehsPerHour="687.0"/>
  <flow id="JF1456" begin="8000" fromJunction="J6" toJunction="J0" end="9000" vehsPerHour="171.75"/>
  <flow id="JF1457" begin="8000" fromJunction="J6" toJunction="J3" end="9000" vehsPerHour="171.75"/>
  <flow id="JF1458" begin="8000" fromJunction="J6" toJunction="J5" end="9000" vehsPerHour="171.75"/>
  <flow id="JF1459" begin="8000" fromJunction="J6" toJunction="J7" end="9000" vehsPerHour="171.75"/>
  <flow id="JF1460" begin="8000" fromJunction="J7" toJunction="J0" end="9000" vehsPerHour="54.96000000000001"/>
  <flow id="JF1461" begin="8000" fromJunction="J7" toJunction="J3" end="9000" vehsPerHour="54.96000000000001"/>
  <flow id="JF1462" begin="8000" fromJunction="J7" toJunction="J4" end="9000" vehsPerHour="54.96000000000001"/>
  <flow id="JF1463" begin="8000" fromJunction="J7" toJunction="J5" end="9000" vehsPerHour="54.96000000000001"/>
  <flow id="JF1464" begin="8000" fromJunction="J7" toJunction="J6" end="9000" vehsPerHour="54.96000000000001"/>
  <flow id="JF1465" begin="8000" fromJunction="J0" toJunction="J5" end="9000" vehsPerHour="1374.0"/>
  <flow id="JF1466" begin="8000" fromJunction="J0" toJunction="J3" end="9000" vehsPerHour="343.5"/>
  <flow id="JF1467" begin="8000" fromJunction="J0" toJunction="J4" end="9000" vehsPerHour="343.5"/>
  <flow id="JF1468" begin="8000" fromJunction="J0" toJunction="J6" end="9000" vehsPerHour="343.5"/>
  <flow id="JF1469" begin="8000" fromJunction="J0" toJunction="J7" end="9000" vehsPerHour="343.5"/>
  <flow id="JF1470" begin="9000" fromJunction="J3" toJunction="J0" end="10000" vehsPerHour="109.92000000000002"/>
  <flow id="JF1471" begin="9000" fromJunction="J3" toJunction="J4" end="10000" vehsPerHour="109.92000000000002"/>
  <flow id="JF1472" begin="9000" fromJunction="J3" toJunction="J5" end="10000" vehsPerHour="109.92000000000002"/>
  <flow id="JF1473" begin="9000" fromJunction="J3" toJunction="J6" end="10000" vehsPerHour="109.92000000000002"/>
  <flow id="JF1474" begin="9000" fromJunction="J3" toJunction="J7" end="10000" vehsPerHour="109.92000000000002"/>
  <flow id="JF1475" begin="9000" fromJunction="J4" toJunction="J3" end="10000" vehsPerHour="687.0"/>