<?xml version="1.0" encoding="UTF-8"?>
<routes xmlns:xsi="http://www.w3.org/2001/XMLSchema-instance" xsi:noNamespaceSchemaLocation="http://sumo.dlr.de/xsd/routes_file.xsd">
  <flow id="JF2400" begin="0" fromJunction="J3" toJunction="J5" end="1000" vehsPerHour="1374.0"/>
  <flow id="JF2401" begin="0" fromJunction="J3" toJunction="J0" end="1000" vehsPerHour="343.5"/>
  <flow id="JF2402" begin="0" fromJunction="J3" toJunction="J4" end="1000" vehsPerHour="343.5"/>
  <flow id="JF2403" begin="0" fromJunction="J3" toJunction="J6" end="1000" vehsPerHour="343.5"/>
  <flow id="JF2404" begin="0" fromJunction="J3" toJunction="J7" end="1000" vehsPerHour="343.5"/>
  <flow id="JF2405" begin="0" fromJunction="J4" toJunction="J5" end="1000" vehsPerHour="687.0"/>
  <flow id="JF2406" begin="0" fromJunction="J4" toJunction="J0" end="1000" vehsPerHour="171.75"/>
  <flow id="JF2407" begin="0" fromJunction="J4" toJunction="J3" end="1000" vehsPerHour="171.75"/>
  <flow id="JF2408" begin="0" fromJunction="J4" toJunction="J6" end="1000" vehsPerHour="171.75"/>
  <flow id="JF2409" begin="0" fromJunction="J4" toJunction="J7" end="1000" vehsPerHour="171.75"/>
  <flow id="JF2410" begin="0" fromJunction="J5" toJunction="J4" end="1000" vehsPerHour="687.0"/>
  <flow id="JF2411" begin="0" fromJunction="J5" toJunction="J0" end="1000" vehsPerHour="171.75"/>
  <flow id="JF2412" begin="0" fromJunction="J5" toJunction="J3" end="1000" vehsPerHour="171.75"/>
  <flow id="JF2413" begin="0" fromJunction="J5" toJunction="J6" end="1000" vehsPerHour="171.75"/>
  <flow id="JF2414" begin="0" fromJunction="J5" toJunction="J7" end="1000" vehsPerHour="171.75"/>
  <flow id="JF2415" begin="0" fromJunction="J6" toJunction="J0" end="1000" vehsPerHour="54.96000000000001"/>
  <flow id="JF2416" begin="0" fromJunction="J6" toJunction="J3" end="1000" vehsPerHour="54.96000000000001"/>
  <flow id="JF2417" begin="0" fromJunction="J6" toJunction="J4" end="1000" vehsPerHour="54.96000000000001"/>
  <flow id="JF2418" begin="0" fromJunction="J6" toJunction="J5" end="1000" vehsPerHour="54.96000000000001"/>
  <flow id="JF2419" begin="0" fromJunction="J6" toJunction="J7" end="1000" vehsPerHour="54.96000000000001"/>
  <flow id="JF2420" begin="0" fromJunction="J7" toJunction="J0" end="1000" vehsPerHour="54.96000000000001"/>
  <flow id="JF2421" begin="0" fromJunction="J7" toJunction="J3" end="1000" vehsPerHour="54.96000000000001"/>
  <flow id="JF2422" begin="0" fromJunction="J7" toJunction="J4" end="1000" vehsPerHour="54.96000000000001"/>
  <flow id="JF2423" begin="0" fromJunction="J7" toJunction="J5" end="1000" vehsPerHour="54.96000000000001"/>
  <flow id="JF2424" begin="0" fromJunction="J7" toJunction="J6" end="1000" vehsPerHour="54.96000000000001"/>
  <flow id="JF2425" begin="0" fromJunction="J0" toJunction="J3" end="1000" vehsPerHour="109.92000000000002"/>
  <flow id="JF2426" begin="0" fromJunction="J0" toJunction="J4" end="1000" vehsPerHour="109.92000000000002"/>
  <flow id="JF2427" begin="0" fromJunction="J0" toJunction="J5" end="1000" vehsPerHour="109.92000000000002"/>
  <flow id="JF2428" begin="0" fromJunction="J0" toJunction="J6" end="1000" vehsPerHour="109.92000000000002"/>
  <flow id="JF2429" begin="0" fromJunction="J0" toJunction="J7" end="1000" vehsPerHour="109.92000000000002"/>
  <flow id="JF2430" begin="1000" fromJunction="J3" toJunction="J0" end="2000" vehsPerHour="109.92000000000002"/>
  <flow id="JF2431" begin="1000" fromJunction="J3" toJunction="J4" end="2000" vehsPerHour="109.92000000000002"/>
  <flow id="JF2432" begin="1000" fromJunction="J3" toJunction="J5" end="2000" vehsPerHour="109.92000000000002"/>
  <flow id="JF2433" begin="1000" fromJunction="J3" toJunction="J6" end="2000" vehsPerHour="109.92000000000002"/>
  <flow id="JF2434" begin="1000" fromJunction="J3" toJunction="J7" end="2000" vehsPerHour="109.92000000000002"/>
  <flow id="JF2435" begin="1000" fromJunction="J4" toJunction="J0" end="2000" vehsPerHour="687.0"/>
  <flow id="JF2436" begin="1000" fromJunction="J4" toJunction="J3" end="2000" vehsPerHour="171.75"/>
  <flow id="JF2437" begin="1000" fromJunction="J4" toJunction="J5" end="2000" vehsPerHour="171.75"/>
  <flow id="JF2438" begin="1000" fromJunction="J4" toJunction="J6" end="2000" vehsPerHour="171.75"/>
  <flow id="JF2439" begin="1000" fromJunction="J4" toJunction="J7" end="2000" vehsPerHour="171.75"/>
  <flow id="JF2440" begin="1000" fromJunction="J5" toJunction="J4" end="2000" vehsPerHour="687.0"/>
  <flow id="JF2441" begin="1000" fromJunction="J5" toJunction="J0" end="2000" vehsPerHour="171.75"/>
  <flow id="JF2442" begin="1000" fromJunction="J5" toJunction="J3" end="2000" vehsPerHour="171.75"/>
  <flow id="JF2443" begin="1000" fromJunction="J5" toJunction="J6" end="2000" vehsPerHour="171.75"/>
  <flow id="JF2444" begin="1000" fromJunction="J5" toJunction="J7" end="2000" vehsPerHour="171.75"/>
  <flow id="JF2445" begin="1000" fromJunction="J6" toJunction="J0" end="2000" vehsPerHour="54.96000000000001"/>
  <flow id="JF2446" begin="1000" fromJunction="J6" toJunction="J3" end="2000" vehsPerHour="54.96000000000001"/>
  <flow id="JF2447" begin="1000" fromJunction="J6" toJunction="J4" end="2000" vehsPerHour="54.96000000000001"/>
  <flow id="JF2448" begin="1000" fromJunction="J6" toJunction="J5" end="2000" vehsPerHour="54.96000000000001"/>
  <flow id="JF2449" begin="1000" fromJunction="J6" toJunction="J7" end="2000" vehsPerHour="54.96000000000001"/>
  <flow id="JF2450" begin="1000" fromJunction="J7" toJunction="J0" end="2000" vehsPerHour="54.96000000000001"/>
  <flow id="JF2451" begin="1000" fromJunction="J7" toJunction="J3" end="2000" vehsPerHour="54.96000000000001"/>
  <flow id="JF2452" begin="1000" fromJunction="J7" toJunction="J4" end="2000" vehsPerHour="54.96000000000001"/>
  <flow id="JF2453" begin="1000" fromJunction="J7" toJunction="J5" end="2000" vehsPerHour="54.96000000000001"/>
  <flow id="JF2454" begin="1000" fromJunction="J7" toJunction="J6" end="2000" vehsPerHour="54.96000000000001"/>
  <flow id="JF2455" begin="1000" fromJunction="J0" toJunction="J6" end="2000" vehsPerHour="1374.0"/>
  <flow id="JF2456" begin="1000" fromJunction="J0" toJunction="J3" end="2000" vehsPerHour="343.5"/>
  <flow id="JF2457" begin="1000" fromJunction="J0" toJunction="J4" end="2000" vehsPerHour="343.5"/>
  <flow id="JF2458" begin="1000" fromJunction="J0" toJunction="J5" end="2000" vehsPerHour="343.5"/>
  <flow id="JF2459" begin="1000" fromJunction="J0" toJunction="J7" end="2000" vehsPerHour="343.5"/>
  <flow id="JF2460" begin="2000" fromJunction="J3" toJunction="J0" end="3000" vehsPerHour="109.92000000000002"/>
  <flow id="JF2461" begin="2000" fromJunction="J3" toJunction="J4" end="3000" vehsPerHour="109.92000000000002"/>
  <flow id="JF2462" begin="2000" fromJunction="J3" toJunction="J5" end="3000" vehsPerHour="109.92000000000002"/>
  <flow id="JF2463" begin="2000" fromJunction="J3" toJunction="J6" end="3000" vehsPerHour="109.92000000000002"/>
  <flow id="JF2464" begin="2000" fromJunction="J3" toJunction="J7" end="3000" vehsPerHour="109.92000000000002"/>
  <flow id="JF2465" begin="2000" fromJunction="J4" toJunction="J0" end="3000" vehsPerHour="54.96000000000001"/>
  <flow id="JF2466" begin="2000" fromJunction="J4" toJunction="J3" end="3000" vehsPerHour="54.96000000000001"/>
  <flow id="JF2467" begin="2000" fromJunction="J4" toJunction="J5" end="3000" vehsPerHour="54.96000000000001"/>
  <flow id="JF2468" begin="2000" fromJunction="J4" toJunction="J6" end="3000" vehsPerHour="54.96000000000001"/>
  <flow id="JF2469" begin="2000" fromJunction="J4" toJunction="J7" end="3000" vehsPerHour="54.96000000000001"/>
  <flow id="JF2470" begin="2000" fromJunction="J5" toJunction="J4" end="3000" vehsPerHour="687.0"/>
  <flow id="JF2471" begin="2000" fromJunction="J5" toJunction="J0" end="3000" vehsPerHour="171.75"/>
  <flow id="JF2472" begin="2000" fromJunction="J5" toJunction="J3" end="3000" vehsPerHour="171.75"/>
  <flow id="JF2473" begin="2000" fromJunction="J5" toJunction="J6" end="3000" vehsPerHour="171.75"/>
  <flow id="JF2474" begin="2000" fromJunction="J5" toJunction="J7" end="3000" vehsPerHour="171.75"/>
  <flow id="JF2475" begin="2000" fromJunction="J6" toJunction="J3" end="3000" vehsPerHour="499.6363636363636"/>
  <flow id="JF2476" begin="2000" fromJunction="J6" toJunction="J5" end="3000" vehsPerHour="499.6363636363636"/>
  <flow id="JF2477" begin="2000" fromJunction="J6" toJunction="J0" end="3000" vehsPerHour="124.9090909090909"/>
  <flow id="JF2478" begin="2000" fromJunction="J6" toJunction="J4" end="3000" vehsPerHour="124.9090909090909"/>
  <flow id="JF2479" begin="2000" fromJunction="J6" toJunction="J7" end="3000" vehsPerHour="124.9090909090909"/>
  <flow id="JF2480" begin="2000" fromJunction="J7" toJunction="J0" end="3000" vehsPerHour="54.96000000000001"/>
  <flow id="JF2481" begin="2000" fromJunction="J7" toJunction="J3" end="3000" vehsPerHour="54.96000000000001"/>
  <flow id="JF2482" begin="2000" fromJunction="J7" toJunction="J4" end="3000" vehsPerHour="54.96000000000001"/>
  <flow id="JF2483" begin="2000" fromJunction="J7" toJunction="J5" end="3000" vehsPerHour="54.96000000000001"/>
  <flow id="JF2484" begin="2000" fromJunction="J7" toJunction="J6" end="3000" vehsPerHour="54.96000000000001"/>
  <flow id="JF2485" begin="2000" fromJunction="J0" toJunction="J3" end="3000" vehsPerHour="109.92000000000002"/>
  <flow id="JF2486" begin="2000" fromJunction="J0" toJunction="J4" end="3000" vehsPerHour="109.92000000000002"/>
  <flow id="JF2487" begin="2000" fromJunction="J0" toJunction="J5" end="3000" vehsPerHour="109.92000000000002"/>
  <flow id="JF2488" begin="2000" fromJunction="J0" toJunction="J6" end="3000" vehsPerHour="109.92000000000002"/>
  <flow id="JF2489" begin="2000" fromJunction="J0" toJunction="J7" end="3000" vehsPerHour="109.92000000000002"/>
  <flow id="JF2490" begin="3000" fromJunction="J3" toJunction="J0" end="4000" vehsPerHour="109.92000000000002"/>
  <flow id="JF2491" begin="3000" fromJunction="J3" toJunction="J4" end="4000" vehsPerHour="109.92000000000002"/>
  <flow id="JF2492" begin="3000" fromJunction="J3" toJunction="J5" end="4000" vehsPerHour="109.92000000000002"/>
  <flow id="JF2493" begin="3000" fromJunction="J3" toJunction="J6" end="4000" vehsPerHour="109.92000000000002"/>
  <flow id="JF2494" begin="3000" fromJunction="J3" toJunction="J7" end="4000" vehsPerHour="109.92000000000002"/>
  <flow id="JF2495" begin="3000" fromJunction="J4" toJunction="J0" end="4000" vehsPerHour="54.96000000000001"/>
  <flow id="JF2496" begin="3000" fromJunction="J4" toJunction="J3" end="4000" vehsPerHour="54.96000000000001"/>
  <flow id="JF2497" begin="3000" fromJunction="J4" toJunction="J5" end="4000" vehsPerHour="54.96000000000001"/>
  <flow id="JF2498" begin="3000" fromJunction="J4" toJunction="J6" end="4000" vehsPerHour="54.96000000000001"/>
  <flow id="JF2499" begin="3000" fromJunction="J4" toJunction="J7" end="4000" vehsPerHour="54.96000000000001"/>
  <flow id="JF2500" begin="3000" fromJunction="J5" toJunction="J4" end="4000" vehsPerHour="687.0"/>
  <flow id="JF2501" begin="3000" fromJunction="J5" toJunction="J0" end="4000" vehsPerHour="171.75"/>
  <flow id="JF2502" begin="3000" fromJunction="J5" toJunction="J3" end="4000" vehsPerHour="171.75"/>
  <flow id="JF2503" begin="3000" fromJunction="J5" toJunction="J6" end="4000" vehsPerHour="171.75"/>
  <flow id="JF2504" begin="3000" fromJunction="J5" toJunction="J7" end="4000" vehsPerHour="171.75"/>
  <flow id="JF2505" begin="3000" fromJunction="J6" toJunction="J0" end="4000" vehsPerHour="687.0"/>
  <flow id="JF2506" begin="3000" fromJunction="J6" toJunction="J3" end="4000" vehsPerHour="171.75"/>
  <flow id="JF2507" begin="3000" fromJunction="J6" toJunction="J4" end="4000" vehsPerHour="171.75"/>
  <flow id="JF2508" begin="3000" fromJunction="J6" toJunction="J5" end="4000" vehsPerHour="171.75"/>
  <flow id="JF2509" begin="3000" fromJunction="J6" toJunction="J7" end="4000" vehsPerHour="171.75"/>
  <flow id="JF2510" begin="3000" fromJunction="J7" toJunction="J0" end="4000" vehsPerHour="54.96000000000001"/>
  <flow id="JF2511" begin="3000" fromJunction="J7" toJunction="J3" end="4000" vehsPerHour="54.96000000000001"/>
  <flow id="JF2512" begin="3000" fromJunction="J7" toJunction="J4" end="4000" vehsPerHour="54.96000000000001"/>
  <flow id="JF2513" begin="3000" fromJunction="J7" toJunction="J5" end="4000" vehsPerHour="54.96000000000001"/>
  <flow id="JF2514" begin="3000" fromJunction="J7" toJunction="J6" end="4000" vehsPerHour="54.96000000000001"/>
  <flow id="JF2515" begin="3000" fromJunction="J0" toJunction="J5" end="4000" vehsPerHour="1374.0"/>
  <flow id="JF2516" begin="3000" fromJunction="J0" toJunction="J3" end="4000" vehsPerHour="343.5"/>
  <flow id="JF2517" begin="3000" fromJunction="J0" toJunction="J4" end="4000" vehsPerHour="343.5"/>
  <flow id="JF2518" begin="3000" fromJunction="J0" toJunction="J6" end="4000" vehsPerHour="343.5"/>
  <flow id="JF2519" begin="3000" fromJunction="J0" toJunction="J7" end="4000" vehsPerHour="343.5"/>
  <flow id="JF2520" begin="4000" fromJunction="J3" toJunction="J5" end="5000" vehsPerHour="1374.0"/>
  <flow id="JF2521" begin="4000" fromJunction="J3" toJunction="J0" end="5000" vehsPerHour="343.5"/>
  <flow id="JF2522" begin="4000" fromJunction="J3" toJunction="J4" end="5000" vehsPerHour="343.5"/>
  <flow id="JF2523" begin="4000" fromJunction="J3" toJunction="J6" end="5000" vehsPerHour="343.5"/>
  <flow id="JF2524" begin="4000" fromJunction="J3" toJunction="J7" end="5000" vehsPerHour="343.5"/>
  <flow id="JF2525" begin="4000" fromJunction="J4" toJunction="J0" end="5000" vehsPerHour="54.96000000000001"/>
  <flow id="JF2526" begin="4000" fromJunction="J4" toJunction="J3" end="5000" vehsPerHour="54.96000000000001"/>
  <flow id="JF2527" begin="4000" fromJunction="J4" toJunction="J5" end="5000" vehsPerHour="54.96000000000001"/>
  <flow id="JF2528" begin="4000" fromJunction="J4" toJunction="J6" end="5000" vehsPerHour="54.96000000000001"/>
  <flow id="JF2529" begin="4000" fromJunction="J4" toJunction="J7" end="5000" vehsPerHour="54.96000000000001"/>
  <flow id="JF2530" begin="4000" fromJunction="J5" toJunction="J6" end="5000" vehsPerHour="687.0"/>
  <flow id="JF2531" begin="4000" fromJunction="J5" toJunction="J0" end="5000" vehsPerHour="171.75"/>
  <flow id="JF2532" begin="4000" fromJunction="J5" toJunction="J3" end="5000" vehsPerHour="171.75"/>
  <flow id="JF2533" begin="4000" fromJunction="J5" toJunction="J4" end="5000" vehsPerHour="171.75"/>
  <flow id="JF2534" begin="4000" fromJunction="J5" toJunction="J7" end="5000" vehsPerHour="171.75"/>
  <flow id="JF2535" begin="4000" fromJunction="J6" toJunction="J0" end="5000" vehsPerHour="54.96000000000001"/>
  <flow id="JF2536" begin="4000" fromJunction="J6" toJunction="J3" end="5000" vehsPerHour="54.96000000000001"/>
  <flow id="JF2537" begin="4000" fromJunction="J6" toJunction="J4" end="5000" vehsPerHour="54.96000000000001"/>
  <flow id="JF2538" begin="4000" fromJunction="J6" toJunction="J5" end="5000" vehsPerHour="54.96000000000001"/>
  <flow id="JF2539" begin="4000" fromJunction="J6" toJunction="J7" end="5000" vehsPerHour="54.96000000000001"/>
  <flow id="JF2540" begin="4000" fromJunction="J7" toJunction="J5" end="5000" vehsPerHour="687.0"/>
  <flow id="JF2541" begin="4000" fromJunction="J7" toJunction="J0" end="5000" vehsPerHour="171.75"/>
  <flow id="JF2542" begin="4000" fromJunction="J7" toJunction="J3" end="5000" vehsPerHour="171.75"/>
  <flow id="JF2543" begin="4000" fromJunction="J7" toJunction="J4" end="5000" vehsPerHour="171.75"/>
  <flow id="JF2544" begin="4000" fromJunction="J7" toJunction="J6" end="5000" vehsPerHour="171.75"/>
  <flow id="JF2545" begin="4000" fromJunction="J0" toJunction="J3" end="5000" vehsPerHour="109.92000000000002"/>
  <flow id="JF2546" begin="4000" fromJunction="J0" toJunction="J4" end="5000" vehsPerHour="109.92000000000002"/>
  <flow id="JF2547" begin="4000" fromJunction="J0" toJunction="J5" end="5000" vehsPerHour="109.92000000000002"/>
  <flow id="JF2548" begin="4000" fromJunction="J0" toJunction="J6" end="5000" vehsPerHour="109.92000000000002"/>
  <flow id="JF2549" begin="4000" fromJunction="J0" toJunction="J7" end="5000" vehsPerHour="109.92000000000002"/>
  <flow id="JF2550" begin="5000" fromJunction="J3" toJunction="J0" end="6000" vehsPerHour="109.92000000000002"/>
  <flow id="JF2551" begin="5000" fromJunction="J3" toJunction="J4" end="6000" vehsPerHour="109.92000000000002"/>
  <flow id="JF2552" begin="5000" fromJunction="J3" toJunction="J5" end="6000" vehsPerHour="109.92000000000002"/>
  <flow id="JF2553" begin="5000" fromJunction="J3" toJunction="J6" end="6000" vehsPerHour="109.92000000000002"/>
  <flow id="JF2554" begin="5000" fromJunction="J3" toJunction="J7" end="6000" vehsPerHour="109.92000000000002"/>
  <flow id="JF2555" begin="5000" fromJunction="J4" toJunction="J0" end="6000" vehsPerHour="54.96000000000001"/>
  <flow id="JF2556" begin="5000" fromJunction="J4" toJunction="J3" end="6000" vehsPerHour="54.96000000000001"/>
  <flow id="JF2557" begin="5000" fromJunction="J4" toJunction="J5" end="6000" vehsPerHour="54.96000000000001"/>
  <flow id="JF2558" begin="5000" fromJunction="J4" toJunction="J6" end="6000" vehsPerHour="54.96000000000001"/>
  <flow id="JF2559" begin="5000" fromJunction="J4" toJunction="J7" end="6000" vehsPerHour="54.96000000000001"/>
  <flow id="JF2560" begin="5000" fromJunction="J5" toJunction="J7" end="6000" vehsPerHour="687.0"/>
  <flow id="JF2561" begin="5000" fromJunction="J5" toJunction="J0" end="6000" vehsPerHour="171.75"/>
  <flow id="JF2562" begin="5000" fromJunction="J5" toJunction="J3" end="6000" vehsPerHour="171.75"/>
  <flow id="JF2563" begin="5000" fromJunction="J5" toJunction="J4" end="6000" vehsPerHour="171.75"/>
  <flow id="JF2564" begin="5000" fromJunction="J5" toJunction="J6" end="6000" vehsPerHour="171.75"/>
  <flow id="JF2565" begin="5000" fromJunction="J6" toJunction="J0" end="6000" vehsPerHour="687.0"/>
  <flow id="JF2566" begin="5000" fromJunction="J6" toJunction="J3" end="6000" vehsPerHour="171.75"/>
  <flow id="JF2567" begin="5000" fromJunction="J6" toJunction="J4" end="6000" vehsPerHour="171.75"/>
  <flow id="JF2568" begin="5000" fromJunction="J6" toJunction="J5" end="6000" vehsPerHour="171.75"/>
  <flow id="JF2569" begin="5000" fromJunction="J6" toJunction="J7" end="6000" vehsPerHour="171.75"/>
  <flow id="JF2570" begin="5000" fromJunction="J7" toJunction="J0" end="6000" vehsPerHour="54.96000000000001"/>
  <flow id="JF2571" begin="5000" fromJunction="J7" toJunction="J3" end="6000" vehsPerHour="54.96000000000001"/>
  <flow id="JF2572" begin="5000" fromJunction="J7" toJunction="J4" end="6000" vehsPerHour="54.96000000000001"/>
  <flow id="JF2573" begin="5000" fromJunction="J7" toJunction="J5" end="6000" vehsPerHour="54.96000000000001"/>
  <flow id="JF2574" begin="5000" fromJunction="J7" toJunction="J6" end="6000" vehsPerHour="54.96000000000001"/>
  <flow id="JF2575" begin="5000" fromJunction="J0" toJunction="J5" end="6000" vehsPerHour="1374.0"/>
  <flow id="JF2576" begin="5000" fromJunction="J0" toJunction="J3" end="6000" vehsPerHour="343.5"/>
  <flow id="JF2577" begin="5000" fromJunction="J0" toJunction="J4" end="6000" vehsPerHour="343.5"/>
  <flow id="JF2578" begin="5000" fromJunction="J0" toJunction="J6" end="6000" vehsPerHour="343.5"/>
  <flow id="JF2579" begin="5000" fromJunction="J0" toJunction="J7" end="6000" vehsPerHour="343.5"/>
  <flow id="JF2580" begin="6000" fromJunction="J3" toJunction="J0" end="7000" vehsPerHour="109.92000000000002"/>
  <flow id="JF2581" begin="6000" fromJunction="J3" toJunction="J4" end="7000" vehsPerHour="109.92000000000002"/>
  <flow id="JF2582" begin="6000" fromJunction="J3" toJunction="J5" end="7000" vehsPerHour="109.92000000000002"/>
  <flow id="JF2583" begin="6000" fromJunction="J3" toJunction="J6" end="7000" vehsPerHour="109.92000000000002"/>
  <flow id="JF2584" begin="6000" fromJunction="J3" toJunction="J7" end="7000" vehsPerHour="109.92000000000002"/>
  <flow id="JF2585" begin="6000" fromJunction="J4" toJunction="J0" end="7000" vehsPerHour="54.96000000000001"/>
  <flow id="JF2586" begin="6000" fromJunction="J4" toJunction="J3" end="7000" vehsPerHour="54.96000000000001"/>
  <flow id="JF2587" begin="6000" fromJunction="J4" toJunction="J5" end="7000" vehsPerHour="54.96000000000001"/>
  <flow id="JF2588" begin="6000" fromJunction="J4" toJunction="J6" end="7000" vehsPerHour="54.96000000000001"/>
  <flow id="JF2589" begin="6000" fromJunction="J4" toJunction="J7" end="7000" vehsPerHour="54.96000000000001"/>
  <flow id="JF2590" begin="6000" fromJunction="J5" toJunction="J6" end="7000" vehsPerHour="687.0"/>
  <flow id="JF2591" begin="6000" fromJunction="J5" toJunction="J0" end="7000" vehsPerHour="171.75"/>
  <flow id="JF2592" begin="6000" fromJunction="J5" toJunction="J3" end="7000" vehsPerHour="171.75"/>
  <flow id="JF2593" begin="6000" fromJunction="J5" toJunction="J4" end="7000" vehsPerHour="171.75"/>
  <flow id="JF2594" begin="6000" fromJunction="J5" toJunction="J7" end="7000" vehsPerHour="171.75"/>
  <flow id="JF2595" begin="6000" fromJunction="J6" toJunction="J0" end="7000" vehsPerHour="54.96000000000001"/>
  <flow id="JF2596" begin="6000" fromJunction="J6" toJunction="J3" end="7000" vehsPerHour="54.96000000000001"/>
  <flow id="JF2597" begin="6000" fromJunction="J6" toJunction="J4" end="7000" vehsPerHour="54.96000000000001"/>
  <flow id="JF2598" begin="6000" fromJunction="J6" toJunction="J5" end="7000" vehsPerHour="54.96000000000001"/>
  <flow id="JF2599" begin="6000" fromJunction="J6" toJunction="J7" end="7000" vehsPerHour="54.96000000000001"/>
  <flow id="JF2600" begin="6000" fromJunction="J7" toJunction="J5" end="7000" vehsPerHour="499.6363636363636"/>
  <flow id="JF2601" begin="6000" fromJunction="J7" toJunction="J0" end="7000" vehsPerHour="499.6363636363636"/>
  <flow id="JF2602" begin="6000" fromJunction="J7" toJunction="J3" end="7000" vehsPerHour="124.9090909090909"/>
  <flow id="JF2603" begin="6000" fromJunction="J7" toJunction="J4" end="7000" vehsPerHour="124.9090909090909"/>
  <flow id="JF2604" begin="6000" fromJunction="J7" toJunction="J6" end="7000" vehsPerHour="124.9090909090909"/>
  <flow id="JF2605" begin="6000" fromJunction="J0" toJunction="J3" end="7000" vehsPerHour="109.92000000000002"/>
  <flow id="JF2606" begin="6000" fromJunction="J0" toJunction="J4" end="7000" vehsPerHour="109.92000000000002"/>
  <flow id="JF2607" begin="6000" fromJunction="J0" toJunction="J5" end="7000" vehsPerHour="109.92000000000002"/>
  <flow id="JF2608" begin="6000" fromJunction="J0" toJunction="J6" end="7000" vehsPerHour="109.92000000000002"/>
  <flow id="JF2609" begin="6000" fromJunction="J0" toJunction="J7" end="7000" vehsPerHour="109.92000000000002"/>
  <flow id="JF2610" begin="7000" fromJunction="J3" toJunction="J0" end="8000" vehsPerHour="109.92000000000002"/>
  <flow id="JF2611" begin="7000" fromJunction="J3" toJunction="J4" end="8000" vehsPerHour="109.92000000000002"/>
  <flow id="JF2612" begin="7000" fromJunction="J3" toJunction="J5" end="8000" vehsPerHour="109.92000000000002"/>
  <flow id="JF2613" begin="7000" fromJunction="J3" toJunction="J6" end="8000" vehsPerHour="109.92000000000002"/>
  <flow id="JF2614" begin="7000" fromJunction="J3" toJunction="J7" end="8000" vehsPerHour="109.92000000000002"/>
  <flow id="JF2615" begin="7000" fromJunction="J4" toJunction="J6" end="8000" vehsPerHour="687.0"/>
  <flow id="JF2616" begin="7000" fromJunction="J4" toJunction="J0" end="8000" vehsPerHour="171.75"/>
  <flow id="JF2617" begin="7000" fromJunction="J4" toJunction="J3" end="8000" vehsPerHour="171.75"/>
  <flow id="JF2618" begin="7000" fromJunction="J4" toJunction="J5" end="8000" vehsPerHour="171.75"/>
  <flow id="JF2619" begin="7000" fromJunction="J4" toJunction="J7" end="8000" vehsPerHour="171.75"/>
  <flow id="JF2620" begin="7000" fromJunction="J5" toJunction="J0" end="8000" vehsPerHour="687.0"/>
  <flow id="JF2621" begin="7000" fromJunction="J5" toJunction="J3" end="8000" vehsPerHour="171.75"/>
  <flow id="JF2622" begin="7000" fromJunction="J5" toJunction="J4" end="8000" vehsPerHour="171.75"/>
  <flow id="JF2623" begin="7000" fromJunction="J5" toJunction="J6" end="8000" vehsPerHour="171.75"/>
  <flow id="JF2624" begin="7000" fromJunction="J5" toJunction="J7" end="8000" vehsPerHour="171.75"/>
  <flow id="JF2625" begin="7000" fromJunction="J6" toJunction="J7" end="8000" vehsPerHour="687.0"/>
  <flow id="JF2626" begin="7000" fromJunction="J6" toJunction="J0" end="8000" vehsPerHour="171.75"/>
  <flow id="JF2627" begin="7000" fromJunction="J6" toJunction="J3" end="8000" vehsPerHour="171.75"/>
  <flow id="JF2628" begin="7000" fromJunction="J6" toJunction="J4" end="8000" vehsPerHour="171.75"/>
  <flow id="JF2629" begin="7000" fromJunction="J6" toJunction="J5" end="8000" vehsPerHour="171.75"/>
  <flow id="JF2630" begin="7000" fromJunction="J7" toJunction="J0" end="8000" vehsPerHour="54.96000000000001"/>
  <flow id="JF2631" begin="7000" fromJunction="J7" toJunction="J3" end="8000" vehsPerHour="54.96000000000001"/>
  <flow id="JF2632" begin="7000" fromJunction="J7" toJunction="J4" end="8000" vehsPerHour="54.96000000000001"/>
  <flow id="JF2633" begin="7000" fromJunction="J7" toJunction="J5" end="8000" vehsPerHour="54.96000000000001"/>
  <flow id="JF2634" begin="7000" fromJunction="J7" toJunction="J6" end="8000" vehsPerHour="54.96000000000001"/>
  <flow id="JF2635" begin="7000" fromJunction="J0" toJunction="J3" end="8000" vehsPerHour="109.92000000000002"/>
  <flow id="JF2636" begin="7000" fromJunction="J0" toJunction="J4" end="8000" vehsPerHour="109.92000000000002"/>
  <flow id="JF2637" begin="7000" fromJunction="J0" toJunction="J5" end="8000" vehsPerHour="109.92000000000002"/>
  <flow id="JF2638" begin="7000" fromJunction="J0" toJunction="J6" end="8000" vehsPerHour="109.92000000000002"/>
  <flow id="JF2639" begin="7000" fromJunction="J0" toJunction="J7" end="8000" vehsPerHour="109.92000000000002"/>
  <flow id="JF2640" begin="8000" fromJunction="J3" toJunction="J0" end="9000" vehsPerHour="109.92000000000002"/>
  <flow id="JF2641" begin="8000" fromJunction="J3" toJunction="J4" end="9000" vehsPerHour="109.92000000000002"/>
  <flow id="JF2642" begin="8000" fromJunction="J3" toJunction="J5" end="9000" vehsPerHour="109.92000000000002"/>
  <flow id="JF2643" begin="8000" fromJunction="J3" toJunction="J6" end="9000" vehsPerHour="109.92000000000002"/>
  <flow id="JF2644" begin="8000" fromJunction="J3" toJunction="J7" end="9000" vehsPerHour="109.92000000000002"/>
  <flow id="JF2645" begin="8000" fromJunction="J4" toJunction="J0" end="9000" vehsPerHour="54.96000000000001"/>
  <flow id="JF2646" begin="8000" fromJunction="J4" toJunction="J3" end="9000" vehsPerHour="54.96000000000001"/>
  <flow id="JF2647" begin="8000" fromJunction="J4" toJunction="J5" end="9000" vehsPerHour="54.96000000000001"/>
  <flow id="JF2648" begin="8000" fromJunction="J4" toJunction="J6" end="9000" vehsPerHour="54.96000000000001"/>
  <flow id="JF2649" begin="8000" fromJunction="J4" toJunction="J7" end="9000" vehsPerHour="54.96000000000001"/>
  <flow id="JF2650" begin="8000" fromJunction="J5" toJunction="J4" end="9000" vehsPerHour="687.0"/>
  <flow id="JF2651" begin="8000" fromJunction="J5" toJunction="J0" end="9000" vehsPerHour="171.75"/>
  <flow id="JF2652" begin="8000" fromJunction="J5" toJunction="J3" end="9000" vehsPerHour="171.75"/>
  <flow id="JF2653" begin="8000" fromJunction="J5" toJunction="J6" end="9000" vehsPerHour="171.75"/>
  <flow id="JF2654" begin="8000" fromJunction="J5" toJunction="J7" end="9000" vehsPerHour="171.75"/>
  <flow id="JF2655" begin="8000" fromJunction="J6" toJunction="J7" end="9000" vehsPerHour="687.0"/>
  <flow id="JF2656" begin="8000" fromJunction="J6" toJunction="J0" end="9000" vehsPerHour="171.75"/>
  <flow id="JF2657" begin="8000" fromJunction="J6" toJunction="J3" end="9000" vehsPerHour="171.75"/>
  <flow id="JF2658" begin="8000" fromJunction="J6" toJunction="J4" end="9000" vehsPerHour="171.75"/>
  <flow id="JF2659" begin="8000" fromJunction="J6" toJunction="J5" end="9000" vehsPerHour="171.75"/>
  <flow id="JF2660" begin="8000" fromJunction="J7" toJunction="J0" end="9000" vehsPerHour="687.0"/>
  <flow id="JF2661" begin="8000" fromJunction="J7" toJunction="J3" end="9000" vehsPerHour="171.75"/>
  <flow id="JF2662" begin="8000" fromJunction="J7" toJunction="J4" end="9000" vehsPerHour="171.75"/>
  <flow id="JF2663" begin="8000" fromJunction="J7" toJunction="J5" end="9000" vehsPerHour="171.75"/>
  <flow id="JF2664" begin="8000" fromJunction="J7" toJunction="J6" end="9000" vehsPerHour="171.75"/>
  <flow id="JF2665" begin="8000" fromJunction="J0" toJunction="J3" end="9000" vehsPerHour="109.92000000000002"/>
  <flow id="JF2666" begin="8000" fromJunction="J0" toJunction="J4" end="9000" vehsPerHour="109.92000000000002"/>
  <flow id="JF2667" begin="8000" fromJunction="J0" toJunction="J5" end="9000" vehsPerHour="109.92000000000002"/>
  <flow id="JF2668" begin="8000" fromJunction="J0" toJunction="J6" end="9000" vehsPerHour="109.92000000000002"/>
  <flow id="JF2669" begin="8000" fromJunction="J0" toJunction="J7" end="9000" vehsPerHour="109.92000000000002"/>
  <flow id="JF2670" begin="9000" fromJunction="J3" toJunction="J0" end="10000" vehsPerHour="109.92000000000002"/>
  <flow id="JF2671" begin="9000" fromJunction="J3" toJunction="J4" end="10000" vehsPerHour="109.92000000000002"/>
  <flow id="JF2672" begin="9000" fromJunction="J3" toJunction="J5" end="10000" vehsPerHour="109.92000000000002"/>
  <flow id="JF2673" begin="9000" fromJunction="J3" toJunction="J6" end="10000" vehsPerHour="109.92000000000002"/>
  <flow id="JF2674" begin="9000" fromJunction="J3" toJunction="J7" end="10000" vehsPerHour="109.92000000000002"/>
  <flow id="JF2675" begin="9000" fromJunction="J4" toJunction="J0" end="10000" vehsPerHour="54.96000000000001"/>
  <flow id="JF2676" begin="9000" fromJunction="J4" toJunction="J3" end="10000" vehsPerHour="54.96000000000001"/>
  <flow id="JF2677" begin="9000" fromJunction="J4" toJunction="J5" end="10000" vehsPerHour="54.96000000000001"/>