<?xml version="1.0" encoding="UTF-8"?>
<routes xmlns:xsi="http://www.w3.org/2001/XMLSchema-instance" xsi:noNamespaceSchemaLocation="http://sumo.dlr.de/xsd/routes_file.xsd">
  <flow id="JF2700" begin="0" fromJunction="J3" toJunction="J0" end="1000" vehsPerHour="109.92000000000002"/>
  <flow id="JF2701" begin="0" fromJunction="J3" toJunction="J4" end="1000" vehsPerHour="109.92000000000002"/>
  <flow id="JF2702" begin="0" fromJunction="J3" toJunction="J5" end="1000" vehsPerHour="109.92000000000002"/>
  <flow id="JF2703" begin="0" fromJunction="J3" toJunction="J6" end="1000" vehsPerHour="109.92000000000002"/>
  <flow id="JF2704" begin="0" fromJunction="J3" toJunction="J7" end="1000" vehsPerHour="109.92000000000002"/>
  <flow id="JF2705" begin="0" fromJunction="J4" toJunction="J7" end="1000" vehsPerHour="687.0"/>
  <flow id="JF2706" begin="0" fromJunction="J4" toJunction="J0" end="1000" vehsPerHour="171.75"/>
  <flow id="JF2707" begin="0" fromJunction="J4" toJunction="J3" end="1000" vehsPerHour="171.75"/>
  <flow id="JF2708" begin="0" fromJunction="J4" toJunction="J5" end="1000" vehsPerHour="171.75"/>
  <flow id="JF2709" begin="0" fromJunction="J4" toJunction="J6" end="1000" vehsPerHour="171.75"/>
  <flow id="JF2710" begin="0" fromJunction="J5" toJunction="J6" end="1000" vehsPerHour="687.0"/>
  <flow id="JF2711" begin="0" fromJunction="J5" toJunction="J0" end="1000" vehsPerHour="171.75"/>
  <flow id="JF2712" begin="0" fromJunction="J5" toJunction="J3" end="1000" vehsPerHour="171.75"/>
  <flow id="JF2713" begin="0" fromJunction="J5" toJunction="J4" end="1000" vehsPerHour="171.75"/>
  <flow id="JF2714" begin="0" fromJunction="J5" toJunction="J7" end="1000" vehsPerHour="171.75"/>
  <flow id="JF2715" begin="0" fromJunction="J6" toJunction="J3" end="1000" vehsPerHour="687.0"/>
  <flow id="JF2716" begin="0" fromJunction="J6" toJunction="J0" end="1000" vehsPerHour="171.75"/>
  <flow id="JF2717" begin="0" fromJunction="J6" toJunction="J4" end="1000" vehsPerHour="171.75"/>
  <flow id="JF2718" begin="0" fromJunction="J6" toJunction="J5" end="1000" vehsPerHour="171.75"/>
  <flow id="JF2719" begin="0" fromJunction="J6" toJunction="J7" end="1000" vehsPerHour="171.75"/>
  <flow id="JF2720" begin="0" fromJunction="J7" toJunction="J0" end="1000" vehsPerHour="54.96000000000001"/>
  <flow id="JF2721" begin="0" fromJunction="J7" toJunction="J3" end="1000" vehsPerHour="54.96000000000001"/>
  <flow id="JF2722" begin="0" fromJunction="J7" toJunction="J4" end="1000" vehsPerHour="54.96000000000001"/>
  <flow id="JF2723" begin="0" fromJunction="J7" toJunction="J5" end="1000" vehsPerHour="54.96000000000001"/>
  <flow id="JF2724" begin="0" fromJunction="J7" toJunction="J6" end="1000" vehsPerHour="54.96000000000001"/>
  <flow id="JF2725" begin="0" fromJunction="J0" toJunction="J3" end="1000" vehsPerHour="109.92000000000002"/>
  <flow id="JF2726" begin="0" fromJunction="J0" toJunction="J4" end="1000" vehsPerHour="109.92000000000002"/>
  <flow id="JF2727" begin="0" fromJunction="J0" toJunction="J5" end="1000" vehsPerHour="109.92000000000002"/>
  <flow id="JF2728" begin="0" fromJunction="J0" toJunction="J6" end="1000" vehsPerHour="109.92000000000002"/>
  <flow id="JF2729" begin="0" fromJunction="J0" toJunction="J7" end="1000" vehsPerHour="109.92000000000002"/>
  <flow id="JF2730" begin="1000" fromJunction="J3" toJunction="J0" end="2000" vehsPerHour="109.92000000000002"/>
  <flow id="JF2731" begin="1000" fromJunction="J3" toJunction="J4" end="2000" vehsPerHour="109.92000000000002"/>
  <flow id="JF2732" begin="1000" fromJunction="J3" toJunction="J5" end="2000" vehsPerHour="109.92000000000002"/>
  <flow id="JF2733" begin="1000" fromJunction="J3" toJunction="J6" end="2000" vehsPerHour="109.92000000000002"/>
  <flow id="JF2734" begin="1000" fromJunction="J3" toJunction="J7" end="2000" vehsPerHour="109.92000000000002"/>
  <flow id="JF2735" begin="1000" fromJunction="J4" toJunction="J7" end="2000" vehsPerHour="687.0"/>
  <flow id="JF2736" begin="1000" fromJunction="J4" toJunction="J0" end="2000" vehsPerHour="171.75"/>
  <flow id="JF2737" begin="1000" fromJunction="J4" toJunction="J3" end="2000" vehsPerHour="171.75"/>
  <flow id="JF2738" begin="1000" fromJunction="J4" toJunction="J5" end="2000" vehsPerHour="171.75"/>
  <flow id="JF2739" begin="1000" fromJunction="J4" toJunction="J6" end="2000" vehsPerHour="171.75"/>
  <flow id="JF2740" begin="1000" fromJunction="J5" toJunction="J0" end="2000" vehsPerHour="54.96000000000001"/>
  <flow id="JF2741" begin="1000" fromJunction="J5" toJunction="J3" end="2000" vehsPerHour="54.96000000000001"/>
  <flow id="JF2742" begin="1000" fromJunction="J5" toJunction="J4" end="2000" vehsPerHour="54.96000000000001"/>
  <flow id="JF2743" begin="1000" fromJunction="J5" toJunction="J6" end="2000" vehsPerHour="54.96000000000001"/>
  <flow id="JF2744" begin="1000" fromJunction="J5" toJunction="J7" end="2000" vehsPerHour="54.96000000000001"/>
  <flow id="JF2745" begin="1000" fromJunction="J6" toJunction="J0" end="2000" vehsPerHour="54.96000000000001"/>
  <flow id="JF2746" begin="1000" fromJunction="J6" toJunction="J3" end="2000" vehsPerHour="54.96000000000001"/>
  <flow id="JF2747" begin="1000" fromJunction="J6" toJunction="J4" end="2000" vehsPerHour="54.96000000000001"/>
  <flow id="JF2748" begin="1000" fromJunction="J6" toJunction="J5" end="2000" vehsPerHour="54.96000000000001"/>
  <flow id="JF2749" begin="1000" fromJunction="J6" toJunction="J7" end="2000" vehsPerHour="54.96000000000001"/>
  <flow id="JF2750" begin="1000" fromJunction="J7" toJunction="J0" end="2000" vehsPerHour="54.96000000000001"/>
  <flow id="JF2751" begin="1000" fromJunction="J7" toJunction="J3" end="2000" vehsPerHour="54.96000000000001"/>
  <flow id="JF2752" begin="1000" fromJunction="J7" toJunction="J4" end="2000" vehsPerHour="54.96000000000001"/>
  <flow id="JF2753" begin="1000" fromJunction="J7" toJunction="J5" end="2000" vehsPerHour="54.96000000000001"/>
  <flow id="JF2754" begin="1000" fromJunction="J7" toJunction="J6" end="2000" vehsPerHour="54.96000000000001"/>
  <flow id="JF2755" begin="1000" fromJunction="J0" toJunction="J3" end="2000" vehsPerHour="999.2727272727273"/>
  <flow id="JF2756" begin="1000" fromJunction="J0" toJunction="J6" end="2000" vehsPerHour="999.2727272727273"/>
  <flow id="JF2757" begin="1000" fromJunction="J0" toJunction="J4" end="2000" vehsPerHour="249.8181818181818"/>
  <flow id="JF2758" begin="1000" fromJunction="J0" toJunction="J5" end="2000" vehsPerHour="249.8181818181818"/>
  <flow id="JF2759" begin="1000" fromJunction="J0" toJunction="J7" end="2000" vehsPerHour="249.8181818181818"/>
  <flow id="JF2760" begin="2000" fromJunction="J3" toJunction="J4" end="3000" vehsPerHour="1374.0"/>
  <flow id="JF2761" begin="2000" fromJunction="J3" toJunction="J0" end="3000" vehsPerHour="343.5"/>
  <flow id="JF2762" begin="2000" fromJunction="J3" toJunction="J5" end="3000" vehsPerHour="343.5"/>
  <flow id="JF2763" begin="2000" fromJunction="J3" toJunction="J6" end="3000" vehsPerHour="343.5"/>
  <flow id="JF2764" begin="2000" fromJunction="J3" toJunction="J7" end="3000" vehsPerHour="343.5"/>
  <flow id="JF2765" begin="2000" fromJunction="J4" toJunction="J0" end="3000" vehsPerHour="54.96000000000001"/>
  <flow id="JF2766" begin="2000" fromJunction="J4" toJunction="J3" end="3000" vehsPerHour="54.96000000000001"/>
  <flow id="JF2767" begin="2000" fromJunction="J4" toJunction="J5" end="3000" vehsPerHour="54.96000000000001"/>
  <flow id="JF2768" begin="2000" fromJunction="J4" toJunction="J6" end="3000" vehsPerHour="54.96000000000001"/>
  <flow id="JF2769" begin="2000" fromJunction="J4" toJunction="J7" end="3000" vehsPerHour="54.96000000000001"/>
  <flow id="JF2770" begin="2000" fromJunction="J5" toJunction="J7" end="3000" vehsPerHour="499.6363636363636"/>
  <flow id="JF2771" begin="2000" fromJunction="J5" toJunction="J0" end="3000" vehsPerHour="499.6363636363636"/>
  <flow id="JF2772" begin="2000" fromJunction="J5" toJunction="J3" end="3000" vehsPerHour="124.9090909090909"/>
  <flow id="JF2773" begin="2000" fromJunction="J5" toJunction="J4" end="3000" vehsPerHour="124.9090909090909"/>
  <flow id="JF2774" begin="2000" fromJunction="J5" toJunction="J6" end="3000" vehsPerHour="124.9090909090909"/>
  <flow id="JF2775" begin="2000" fromJunction="J6" toJunction="J0" end="3000" vehsPerHour="54.96000000000001"/>
  <flow id="JF2776" begin="2000" fromJunction="J6" toJunction="J3" end="3000" vehsPerHour="54.96000000000001"/>
  <flow id="JF2777" begin="2000" fromJunction="J6" toJunction="J4" end="3000" vehsPerHour="54.96000000000001"/>
  <flow id="JF2778" begin="2000" fromJunction="J6" toJunction="J5" end="3000" vehsPerHour="54.96000000000001"/>
  <flow id="JF2779" begin="2000" fromJunction="J6" toJunction="J7" end="3000" vehsPerHour="54.96000000000001"/>
  <flow id="JF2780" begin="2000" fromJunction="J7" toJunction="J0" end="3000" vehsPerHour="54.96000000000001"/>
  <flow id="JF2781" begin="2000" fromJunction="J7" toJunction="J3" end="3000" vehsPerHour="54.96000000000001"/>
  <flow id="JF2782" begin="2000" fromJunction="J7" toJunction="J4" end="3000" vehsPerHour="54.96000000000001"/>
  <flow id="JF2783" begin="2000" fromJunction="J7" toJunction="J5" end="3000" vehsPerHour="54.96000000000001"/>
  <flow id="JF2784" begin="2000" fromJunction="J7" toJunction="J6" end="3000" vehsPerHour="54.96000000000001"/>
  <flow id="JF2785" begin="2000" fromJunction="J0" toJunction="J3" end="3000" vehsPerHour="109.92000000000002"/>
  <flow id="JF2786" begin="2000" fromJunction="J0" toJunction="J4" end="3000" vehsPerHour="109.92000000000002"/>
  <flow id="JF2787" begin="2000" fromJunction="J0" toJunction="J5" end="3000" vehsPerHour="109.92000000000002"/>
  <flow id="JF2788" begin="2000" fromJunction="J0" toJunction="J6" end="3000" vehsPerHour="109.92000000000002"/>
  <flow id="JF2789" begin="2000" fromJunction="J0" toJunction="J7" end="3000" vehsPerHour="109.92000000000002"/>
  <flow id="JF2790" begin="3000" fromJunction="J3" toJunction="J0" end="4000" vehsPerHour="109.92000000000002"/>
  <flow id="JF2791" begin="3000" fromJunction="J3" toJunction="J4" end="4000" vehsPerHour="109.92000000000002"/>
  <flow id="JF2792" begin="3000" fromJunction="J3" toJunction="J5" end="4000" vehsPerHour="109.92000000000002"/>
  <flow id="JF2793" begin="3000" fromJunction="J3" toJunction="J6" end="4000" vehsPerHour="109.92000000000002"/>
  <flow id="JF2794" begin="3000" fromJunction="J3" toJunction="J7" end="4000" vehsPerHour="109.92000000000002"/>
  <flow id="JF2795" begin="3000" fromJunction="J4" toJunction="J0" end="4000" vehsPerHour="54.96000000000001"/>
  <flow id="JF2796" begin="3000" fromJunction="J4" toJunction="J3" end="4000" vehsPerHour="54.96000000000001"/>
  <flow id="JF2797" begin="3000" fromJunction="J4" toJunction="J5" end="4000" vehsPerHour="54.96000000000001"/>
  <flow id="JF2798" begin="3000" fromJunction="J4" toJunction="J6" end="4000" vehsPerHour="54.96000000000001"/>
  <flow id="JF2799" begin="3000" fromJunction="J4" toJunction="J7" end="4000" vehsPerHour="54.96000000000001"/>
  <flow id="JF2800" begin="3000" fromJunction="J5" toJunction="J0" end="4000" vehsPerHour="54.96000000000001"/>
  <flow id="JF2801" begin="3000" fromJunction="J5" toJunction="J3" end="4000" vehsPerHour="54.96000000000001"/>
  <flow id="JF2802" begin="3000" fromJunction="J5" toJunction="J4" end="4000" vehsPerHour="54.96000000000001"/>
  <flow id="JF2803" begin="3000" fromJunction="J5" toJunction="J6" end="4000" vehsPerHour="54.96000000000001"/>
  <flow id="JF2804" begin="3000" fromJunction="J5" toJunction="J7" end="4000" vehsPerHour="54.96000000000001"/>
  <flow id="JF2805" begin="3000" fromJunction="J6" toJunction="J3" end="4000" vehsPerHour="687.0"/>
  <flow id="JF2806" begin="3000" fromJunction="J6" toJunction="J0" end="4000" vehsPerHour="171.75"/>
  <flow id="JF2807" begin="3000" fromJunction="J6" toJunction="J4" end="4000" vehsPerHour="171.75"/>
  <flow id="JF2808" begin="3000" fromJunction="J6" toJunction="J5" end="4000" vehsPerHour="171.75"/>
  <flow id="JF2809" begin="3000" fromJunction="J6" toJunction="J7" end="4000" vehsPerHour="171.75"/>
  <flow id="JF2810" begin="3000" fromJunction="J7" toJunction="J4" end="4000" vehsPerHour="499.6363636363636"/>
  <flow id="JF2811" begin="3000" fromJunction="J7" toJunction="J6" end="4000" vehsPerHour="499.6363636363636"/>
  <flow id="JF2812" begin="3000" fromJunction="J7" toJunction="J0" end="4000" vehsPerHour="124.9090909090909"/>
  <flow id="JF2813" begin="3000" fromJunction="J7" toJunction="J3" end="4000" vehsPerHour="124.9090909090909"/>
  <flow id="JF2814" begin="3000" fromJunction="J7" toJunction="J5" end="4000" vehsPerHour="124.9090909090909"/>
  <flow id="JF2815" begin="3000" fromJunction="J0" toJunction="J3" end="4000" vehsPerHour="109.92000000000002"/>
  <flow id="JF2816" begin="3000" fromJunction="J0" toJunction="J4" end="4000" vehsPerHour="109.92000000000002"/>
  <flow id="JF2817" begin="3000" fromJunction="J0" toJunction="J5" end="4000" vehsPerHour="109.92000000000002"/>
  <flow id="JF2818" begin="3000" fromJunction="J0" toJunction="J6" end="4000" vehsPerHour="109.92000000000002"/>
  <flow id="JF2819" begin="3000" fromJunction="J0" toJunction="J7" end="4000" vehsPerHour="109.92000000000002"/>
  <flow id="JF2820" begin="4000" fromJunction="J3" toJunction="J7" end="5000" vehsPerHour="1374.0"/>
  <flow id="JF2821" begin="4000" fromJunction="J3" toJunction="J0" end="5000" vehsPerHour="343.5"/>
  <flow id="JF2822" begin="4000" fromJunction="J3" toJunction="J4" end="5000" vehsPerHour="343.5"/>
  <flow id="JF2823" begin="4000" fromJunction="J3" toJunction="J5" end="5000" vehsPerHour="343.5"/>
  <flow id="JF2824" begin="4000" fromJunction="J3" toJunction="J6" end="5000" vehsPerHour="343.5"/>
  <flow id="JF2825" begin="4000" fromJunction="J4" toJunction="J0" end="5000" vehsPerHour="54.96000000000001"/>
  <flow id="JF2826" begin="4000" fromJunction="J4" toJunction="J3" end="5000" vehsPerHour="54.96000000000001"/>
  <flow id="JF2827" begin="4000" fromJunction="J4" toJunction="J5" end="5000" vehsPerHour="54.96000000000001"/>
  <flow id="JF2828" begin="4000" fromJunction="J4" toJunction="J6" end="5000" vehsPerHour="54.96000000000001"/>
  <flow id="JF2829" begin="4000" fromJunction="J4" toJunction="J7" end="5000" vehsPerHour="54.96000000000001"/>
  <flow id="JF2830" begin="4000" fromJunction="J5" toJunction="J0" end="5000" vehsPerHour="54.96000000000001"/>
  <flow id="JF2831" begin="4000" fromJunction="J5" toJunction="J3" end="5000" vehsPerHour="54.96000000000001"/>
  <flow id="JF2832" begin="4000" fromJunction="J5" toJunction="J4" end="5000" vehsPerHour="54.96000000000001"/>
  <flow id="JF2833" begin="4000" fromJunction="J5" toJunction="J6" end="5000" vehsPerHour="54.96000000000001"/>
  <flow id="JF2834" begin="4000" fromJunction="J5" toJunction="J7" end="5000" vehsPerHour="54.96000000000001"/>
  <flow id="JF2835" begin="4000" fromJunction="J6" toJunction="J5" end="5000" vehsPerHour="687.0"/>
  <flow id="JF2836" begin="4000" fromJunction="J6" toJunction="J0" end="5000" vehsPerHour="171.75"/>
  <flow id="JF2837" begin="4000" fromJunction="J6" toJunction="J3" end="5000" vehsPerHour="171.75"/>
  <flow id="JF2838" begin="4000" fromJunction="J6" toJunction="J4" end="5000" vehsPerHour="171.75"/>
  <flow id="JF2839" begin="4000" fromJunction="J6" toJunction="J7" end="5000" vehsPerHour="171.75"/>
  <flow id="JF2840" begin="4000" fromJunction="J7" toJunction="J3" end="5000" vehsPerHour="687.0"/>
  <flow id="JF2841" begin="4000" fromJunction="J7" toJunction="J0" end="5000" vehsPerHour="171.75"/>
  <flow id="JF2842" begin="4000" fromJunction="J7" toJunction="J4" end="5000" vehsPerHour="171.75"/>
  <flow id="JF2843" begin="4000" fromJunction="J7" toJunction="J5" end="5000" vehsPerHour="171.75"/>
  <flow id="JF2844" begin="4000" fromJunction="J7" toJunction="J6" end="5000" vehsPerHour="171.75"/>
  <flow id="JF2845" begin="4000" fromJunction="J0" toJunction="J3" end="5000" vehsPerHour="109.92000000000002"/>
  <flow id="JF2846" begin="4000" fromJunction="J0" toJunction="J4" end="5000" vehsPerHour="109.92000000000002"/>
  <flow id="JF2847" begin="4000" fromJunction="J0" toJunction="J5" end="5000" vehsPerHour="109.92000000000002"/>
  <flow id="JF2848" begin="4000" fromJunction="J0" toJunction="J6" end="5000" vehsPerHour="109.92000000000002"/>
  <flow id="JF2849" begin="4000" fromJunction="J0" toJunction="J7" end="5000" vehsPerHour="109.92000000000002"/>
  <flow id="JF2850" begin="5000" fromJunction="J3" toJunction="J7" end="6000" vehsPerHour="1374.0"/>
  <flow id="JF2851" begin="5000" fromJunction="J3" toJunction="J0" end="6000" vehsPerHour="343.5"/>
  <flow id="JF2852" begin="5000" fromJunction="J3" toJunction="J4" end="6000" vehsPerHour="343.5"/>
  <flow id="JF2853" begin="5000" fromJunction="J3" toJunction="J5" end="6000" vehsPerHour="343.5"/>
  <flow id="JF2854" begin="5000" fromJunction="J3" toJunction="J6" end="6000" vehsPerHour="343.5"/>
  <flow id="JF2855" begin="5000" fromJunction="J4" toJunction="J0" end="6000" vehsPerHour="54.96000000000001"/>
  <flow id="JF2856" begin="5000" fromJunction="J4" toJunction="J3" end="6000" vehsPerHour="54.96000000000001"/>
  <flow id="JF2857" begin="5000" fromJunction="J4" toJunction="J5" end="6000" vehsPerHour="54.96000000000001"/>
  <flow id="JF2858" begin="5000" fromJunction="J4" toJunction="J6" end="6000" vehsPerHour="54.96000000000001"/>
  <flow id="JF2859" begin="5000" fromJunction="J4" toJunction="J7" end="6000" vehsPerHour="54.96000000000001"/>
  <flow id="JF2860" begin="5000" fromJunction="J5" toJunction="J0" end="6000" vehsPerHour="54.96000000000001"/>
  <flow id="JF2861" begin="5000" fromJunction="J5" toJunction="J3" end="6000" vehsPerHour="54.96000000000001"/>
  <flow id="JF2862" begin="5000" fromJunction="J5" toJunction="J4" end="6000" vehsPerHour="54.96000000000001"/>
  <flow id="JF2863" begin="5000" fromJunction="J5" toJunction="J6" end="6000" vehsPerHour="54.96000000000001"/>
  <flow id="JF2864" begin="5000" fromJunction="J5" toJunction="J7" end="6000" vehsPerHour="54.96000000000001"/>
  <flow id="JF2865" begin="5000" fromJunction="J6" toJunction="J0" end="6000" vehsPerHour="54.96000000000001"/>
  <flow id="JF2866" begin="5000" fromJunction="J6" toJunction="J3" end="6000" vehsPerHour="54.96000000000001"/>
  <flow id="JF2867" begin="5000" fromJunction="J6" toJunction="J4" end="6000" vehsPerHour="54.96000000000001"/>
  <flow id="JF2868" begin="5000" fromJunction="J6" toJunction="J5" end="6000" vehsPerHour="54.96000000000001"/>
  <flow id="JF2869" begin="5000" fromJunction="J6" toJunction="J7" end="6000" vehsPerHour="54.96000000000001"/>
  <flow id="JF2870" begin="5000" fromJunction="J7" toJunction="J0" end="6000" vehsPerHour="499.6363636363636"/>
  <flow id="JF2871" begin="5000" fromJunction="J7" toJunction="J4" end="6000" vehsPerHour="499.6363636363636"/>
  <flow id="JF2872" begin="5000" fromJunction="J7" toJunction="J3" end="6000" vehsPerHour="124.9090909090909"/>
  <flow id="JF2873" begin="5000" fromJunction="J7" toJunction="J5" end="6000" vehsPerHour="124.9090909090909"/>
  <flow id="JF2874" begin="5000" fromJunction="J7" toJunction="J6" end="6000" vehsPerHour="124.9090909090909"/>
  <flow id="JF2875" begin="5000" fromJunction="J0" toJunction="J3" end="6000" vehsPerHour="109.92000000000002"/>
  <flow id="JF2876" begin="5000" fromJunction="J0" toJunction="J4" end="6000" vehsPerHour="109.92000000000002"/>
  <flow id="JF2877" begin="5000" fromJunction="J0" toJunction="J5" end="6000" vehsPerHour="109.92000000000002"/>
  <flow id="JF2878" begin="5000" fromJunction="J0" toJunction="J6" end="6000" vehsPerHour="109.92000000000002"/>
  <flow id="JF2879" begin="5000" fromJunction="J0" toJunction="J7" end="6000" vehsPerHour="109.92000000000002"/>
  <flow id="JF2880" begin="6000" fromJunction="J3" toJunction="J0" end="7000" vehsPerHour="109.92000000000002"/>
  <flow id="JF2881" begin="6000" fromJunction="J3" toJunction="J4" end="7000" vehsPerHour="109.92000000000002"/>
  <flow id="JF2882" begin="6000" fromJunction="J3" toJunction="J5" end="7000" vehsPerHour="109.92000000000002"/>
  <flow id="JF2883" begin="6000" fromJunction="J3" toJunction="J6" end="7000" vehsPerHour="109.92000000000002"/>
  <flow id="JF2884" begin="6000" fromJunction="J3" toJunction="J7" end="7000" vehsPerHour="109.92000000000002"/>
  <flow id="JF2885" begin="6000" fromJunction="J4" toJunction="J0" end="7000" vehsPerHour="687.0"/>
  <flow id="JF2886" begin="6000" fromJunction="J4" toJunction="J3" end="7000" vehsPerHour="171.75"/>
  <flow id="JF2887" begin="6000" fromJunction="J4" toJunction="J5" end="7000" vehsPerHour="171.75"/>
  <flow id="JF2888" begin="6000" fromJunction="J4" toJunction="J6" end="7000" vehsPerHour="171.75"/>
  <flow id="JF2889" begin="6000" fromJunction="J4" toJunction="J7" end="7000" vehsPerHour="171.75"/>
  <flow id="JF2890" begin="6000" fromJunction="J5" toJunction="J0" end="7000" vehsPerHour="54.96000000000001"/>
  <flow id="JF2891" begin="6000" fromJunction="J5" toJunction="J3" end="7000" vehsPerHour="54.96000000000001"/>
  <flow id="JF2892" begin="6000" fromJunction="J5" toJunction="J4" end="7000" vehsPerHour="54.96000000000001"/>
  <flow id="JF2893" begin="6000" fromJunction="J5" toJunction="J6" end="7000" vehsPerHour="54.96000000000001"/>
  <flow id="JF2894" begin="6000" fromJunction="J5" toJunction="J7" end="7000" vehsPerHour="54.96000000000001"/>
  <flow id="JF2895" begin="6000" fromJunction="J6" toJunction="J0" end="7000" vehsPerHour="54.96000000000001"/>
  <flow id="JF2896" begin="6000" fromJunction="J6" toJunction="J3" end="7000" vehsPerHour="54.96000000000001"/>
  <flow id="JF2897" begin="6000" fromJunction="J6" toJunction="J4" end="7000" vehsPerHour="54.96000000000001"/>
  <flow id="JF2898" begin="6000" fromJunction="J6" toJunction="J5" end="7000" vehsPerHour="54.96000000000001"/>
  <flow id="JF2899" begin="6000" fromJunction="J6" toJunction="J7" end="7000" vehsPerHour="54.96000000000001"/>
  <flow id="JF2900" begin="6000" fromJunction="J7" toJunction="J3" end="7000" vehsPerHour="687.0"/>
  <flow id="JF2901" begin="6000" fromJunction="J7" toJunction="J0" end="7000" vehsPerHour="171.75"/>
  <flow id="JF2902" begin="6000" fromJunction="J7" toJunction="J4" end="7000" vehsPerHour="171.75"/>
  <flow id="JF2903" begin="6000" fromJunction="J7" toJunction="J5" end="7000" vehsPerHour="171.75"/>
  <flow id="JF2904" begin="6000" fromJunction="J7" toJunction="J6" end="7000" vehsPerHour="171.75"/>
  <flow id="JF2905" begin="6000" fromJunction="J0" toJunction="J4" end="7000" vehsPerHour="1374.0"/>
  <flow id="JF2906" begin="6000" fromJunction="J0" toJunction="J3" end="7000" vehsPerHour="343.5"/>
  <flow id="JF2907" begin="6000" fromJunction="J0" toJunction="J5" end="7000" vehsPerHour="343.5"/>
  <flow id="JF2908" begin="6000" fromJunction="J0" toJunction="J6" end="7000" vehsPerHour="343.5"/>
  <flow id="JF2909" begin="6000" fromJunction="J0" toJunction="J7" end="7000" vehsPerHour="343.5"/>
  <flow id="JF2910" begin="7000" fromJunction="J3" toJunction="J7" end="8000" vehsPerHour="1374.0"/>
  <flow id="JF2911" begin="7000" fromJunction="J3" toJunction="J0" end="8000" vehsPerHour="343.5"/>
  <flow id="JF2912" begin="7000" fromJunction="J3" toJunction="J4" end="8000" vehsPerHour="343.5"/>
  <flow id="JF2913" begin="7000" fromJunction="J3" toJunction="J5" end="8000" vehsPerHour="343.5"/>
  <flow id="JF2914" begin="7000" fromJunction="J3" toJunction="J6" end="8000" vehsPerHour="343.5"/>
  <flow id="JF2915" begin="7000" fromJunction="J4" toJunction="J0" end="8000" vehsPerHour="54.96000000000001"/>
  <flow id="JF2916" begin="7000" fromJunction="J4" toJunction="J3" end="8000" vehsPerHour="54.96000000000001"/>
  <flow id="JF2917" begin="7000" fromJunction="J4" toJunction="J5" end="8000" vehsPerHour="54.96000000000001"/>
  <flow id="JF2918" begin="7000" fromJunction="J4" toJunction="J6" end="8000" vehsPerHour="54.96000000000001"/>
  <flow id="JF2919" begin="7000" fromJunction="J4" toJunction="J7" end="8000" vehsPerHour="54.96000000000001"/>
  <flow id="JF2920" begin="7000" fromJunction="J5" toJunction="J0" end="8000" vehsPerHour="54.96000000000001"/>
  <flow id="JF2921" begin="7000" fromJunction="J5" toJunction="J3" end="8000" vehsPerHour="54.96000000000001"/>
  <flow id="JF2922" begin="7000" fromJunction="J5" toJunction="J4" end="8000" vehsPerHour="54.96000000000001"/>
  <flow id="JF2923" begin="7000" fromJunction="J5" toJunction="J6" end="8000" vehsPerHour="54.96000000000001"/>
  <flow id="JF2924" begin="7000" fromJunction="J5" toJunction="J7" end="8000" vehsPerHour="54.96000000000001"/>
  <flow id="JF2925" begin="7000" fromJunction="J6" toJunction="J0" end="8000" vehsPerHour="54.96000000000001"/>
  <flow id="JF2926" begin="7000" fromJunction="J6" toJunction="J3" end="8000" vehsPerHour="54.96000000000001"/>
  <flow id="JF2927" begin="7000" fromJunction="J6" toJunction="J4" end="8000" vehsPerHour="54.96000000000001"/>
  <flow id="JF2928" begin="7000" fromJunction="J6" toJunction="J5" end="8000" vehsPerHour="54.96000000000001"/>
  <flow id="JF2929" begin="7000" fromJunction="J6" toJunction="J7" end="8000" vehsPerHour="54.96000000000001"/>
  <flow id="JF2930" begin="7000" fromJunction="J7" toJunction="J0" end="8000" vehsPerHour="54.96000000000001"/>
  <flow id="JF2931" begin="7000" fromJunction="J7" toJunction="J3" end="8000" vehsPerHour="54.96000000000001"/>
  <flow id="JF2932" begin="7000" fromJunction="J7" toJunction="J4" end="8000" vehsPerHour="54.96000000000001"/>
  <flow id="JF2933" begin="7000" fromJunction="J7" toJunction="J5" end="8000" vehsPerHour="54.96000000000001"/>
  <flow id="JF2934" begin="7000" fromJunction="J7" toJunction="J6" end="8000" vehsPerHour="54.96000000000001"/>
  <flow id="JF2935" begin="7000" fromJunction="J0" toJunction="J3" end="8000" vehsPerHour="999.2727272727273"/>
  <flow id="JF2936" begin="7000" fromJunction="J0" toJunction="J4" end="8000" vehsPerHour="999.2727272727273"/>
  <flow id="JF2937" begin="7000" fromJunction="J0" toJunction="J5" end="8000" vehsPerHour="249.8181818181818"/>
  <flow id="JF2938" begin="7000" fromJunction="J0" toJunction="J6" end="8000" vehsPerHour="249.8181818181818"/>
  <flow id="JF2939" begin="7000" fromJunction="J0" toJunction="J7" end="8000" vehsPerHour="249.8181818181818"/>
  <flow id="JF2940" begin="8000" fromJunction="J3" toJunction="J0" end="9000" vehsPerHour="109.92000000000002"/>
  <flow id="JF2941" begin="8000" fromJunction="J3" toJunction="J4" end="9000" vehsPerHour="109.92000000000002"/>
  <flow id="JF2942" begin="8000" fromJunction="J3" toJunction="J5" end="9000" vehsPerHour="109.92000000000002"/>
  <flow id="JF2943" begin="8000" fromJunction="J3" toJunction="J6" end="9000" vehsPerHour="109.92000000000002"/>
  <flow id="JF2944" begin="8000" fromJunction="J3" toJunction="J7" end="9000" vehsPerHour="109.92000000000002"/>
  <flow id="JF2945" begin="8000" fromJunction="J4" toJunction="J5" end="9000" vehsPerHour="687.0"/>
  <flow id="JF2946" begin="8000" fromJunction="J4" toJunction="J0" end="9000" vehsPerHour="171.75"/>
  <flow id="JF2947" begin="8000" fromJunction="J4" toJunction="J3" end="9000" vehsPerHour="171.75"/>
  <flow id="JF2948" begin="8000" fromJunction="J4" toJunction="J6" end="9000" vehsPerHour="171.75"/>
  <flow id="JF2949" begin="8000" fromJunction="J4" toJunction="J7" end="9000" vehsPerHour="171.75"/>
  <flow id="JF2950" begin="8000" fromJunction="J5" toJunction="J0" end="9000" vehsPerHour="54.96000000000001"/>
  <flow id="JF2951" begin="8000" fromJunction="J5" toJunction="J3" end="9000" vehsPerHour="54.96000000000001"/>
  <flow id="JF2952" begin="8000" fromJunction="J5" toJunction="J4" end="9000" vehsPerHour="54.96000000000001"/>
  <flow id="JF2953" begin="8000" fromJunction="J5" toJunction="J6" end="9000" vehsPerHour="54.96000000000001"/>
  <flow id="JF2954" begin="8000" fromJunction="J5" toJunction="J7" end="9000" vehsPerHour="54.96000000000001"/>
  <flow id="JF2955" begin="8000" fromJunction="J6" toJunction="J3" end="9000" vehsPerHour="499.6363636363636"/>
  <flow id="JF2956" begin="8000" fromJunction="J6" toJunction="J0" end="9000" vehsPerHour="499.6363636363636"/>
  <flow id="JF2957" begin="8000" fromJunction="J6" toJunction="J4" end="9000" vehsPerHour="124.9090909090909"/>
  <flow id="JF2958" begin="8000" fromJunction="J6" toJunction="J5" end="9000" vehsPerHour="124.9090909090909"/>
  <flow id="JF2959" begin="8000" fromJunction="J6" toJunction="J7" end="9000" vehsPerHour="124.9090909090909"/>
  <flow id="JF2960" begin="8000" fromJunction="J7" toJunction="J0" end="9000" vehsPerHour="54.96000000000001"/>
  <flow id="JF2961" begin="8000" fromJunction="J7" toJunction="J3" end="9000" vehsPerHour="54.96000000000001"/>
  <flow id="JF2962" begin="8000" fromJunction="J7" toJunction="J4" end="9000" vehsPerHour="54.96000000000001"/>
  <flow id="JF2963" begin="8000" fromJunction="J7" toJunction="J5" end="9000" vehsPerHour="54.96000000000001"/>
  <flow id="JF2964" begin="8000" fromJunction="J7" toJunction="J6" end="9000" vehsPerHour="54.96000000000001"/>
  <flow id="JF2965" begin="8000" fromJunction="J0" toJunction="J3" end="9000" vehsPerHour="109.92000000000002"/>
  <flow id="JF2966" begin="8000" fromJunction="J0" toJunction="J4" end="9000" vehsPerHour="109.92000000000002"/>
  <flow id="JF2967" begin="8000" fromJunction="J0" toJunction="J5" end="9000" vehsPerHour="109.92000000000002"/>
  <flow id="JF2968" begin="8000" fromJunction="J0" toJunction="J6" end="9000" vehsPerHour="109.92000000000002"/>
  <flow id="JF2969" begin="8000" fromJunction="J0" toJunction="J7" end="9000" vehsPerHour="109.92000000000002"/>
  <flow id="JF2970" begin="9000" fromJunction="J3" toJunction="J7" end="10000" vehsPerHour="999.2727272727273"/>
  <flow id="JF2971" begin="9000" fromJunction="J3" toJunction="J5" end="10000" vehsPerHour="999.2727272727273"/>
  <flow id="JF2972" begin="9000" fromJunction="J3" toJunction="J0" end="10000" vehsPerHour="249.8181818181818"/>
  <flow id="JF2973" begin="9000" fromJunction="J3" toJunction="J4" end="10000" vehsPerHour="249.8181818181818"/>