<?xml version="1.0" encoding="UTF-8"?>
<routes xmlns:xsi="http://www.w3.org/2001/XMLSchema-instance" xsi:noNamespaceSchemaLocation="http://sumo.dlr.de/xsd/routes_file.xsd">
  <flow id="JF900" begin="0" fromJunction="J3" toJunction="J0" end="3600" vehsPerHour="109.92000000000002"/>
  <flow id="JF901" begin="0" fromJunction="J3" toJunction="J4" end="3600" vehsPerHour="109.92000000000002"/>
  <flow id="JF902" begin="0" fromJunction="J3" toJunction="J5" end="3600" vehsPerHour="109.92000000000002"/>
  <flow id="JF903" begin="0" fromJunction="J3" toJunction="J6" end="3600" vehsPerHour="109.92000000000002"/>
  <flow id="JF904" begin="0" fromJunction="J3" toJunction="J7" end="3600" vehsPerHour="109.92000000000002"/>
  <flow id="JF905" begin="0" fromJunction="J4" toJunction="J0" end="3600" vehsPerHour="54.96000000000001"/>
  <flow id="JF906" begin="0" fromJunction="J4" toJunction="J3" end="3600" vehsPerHour="54.96000000000001"/>
  <flow id="JF907" begin="0" fromJunction="J4" toJunction="J5" end="3600" vehsPerHour="54.96000000000001"/>
  <flow id="JF908" begin="0" fromJunction="J4" toJunction="J6" end="3600" vehsPerHour="54.96000000000001"/>
  <flow id="JF909" begin="0" fromJunction="J4" toJunction="J7" end="3600" vehsPerHour="54.96000000000001"/>
  <flow id="JF910" begin="0" fromJunction="J5" toJunction="J0" end="3600" vehsPerHour="54.96000000000001"/>
  <flow id="JF911" begin="0" fromJunction="J5" toJunction="J3" end="3600" vehsPerHour="54.96000000000001"/>
  <flow id="JF912" begin="0" fromJunction="J5" toJunction="J4" end="3600" vehsPerHour="54.96000000000001"/>
  <flow id="JF913" begin="0" fromJunction="J5" toJunction="J6" end="3600" vehsPerHour="54.96000000000001"/>
  <flow id="JF914" begin="0" fromJunction="J5" toJunction="J7" end="3600" vehsPerHour="54.96000000000001"/>
  <flow id="JF915" begin="0" fromJunction="J6" toJunction="J0" end="3600" vehsPerHour="54.96000000000001"/>
  <flow id="JF916" begin="0" fromJunction="J6" toJunction="J3" end="3600" vehsPerHour="54.96000000000001"/>
  <flow id="JF917" begin="0" fromJunction="J6" toJunction="J4" end="3600" vehsPerHour="54.96000000000001"/>
  <flow id="JF918" begin="0" fromJunction="J6" toJunction="J5" end="3600" vehsPerHour="54.96000000000001"/>
  <flow id="JF919" begin="0" fromJunction="J6" toJunction="J7" end="3600" vehsPerHour="54.96000000000001"/>
  <flow id="JF920" begin="0" fromJunction="J7" toJunction="J0" end="3600" vehsPerHour="687.0"/>
  <flow id="JF921" begin="0" fromJunction="J7" toJunction="J3" end="3600" vehsPerHour="171.75"/>
  <flow id="JF922" begin="0" fromJunction="J7" toJunction="J4" end="3600" vehsPerHour="171.75"/>
  <flow id="JF923" begin="0" fromJunction="J7" toJunction="J5" end="3600" vehsPerHour="171.75"/>
  <flow id="JF924" begin="0" fromJunction="J7" toJunction="J6" end="3600" vehsPerHour="171.75"/>
  <flow id="JF925" begin="0" fromJunction="J0" toJunction="J3" end="3600" vehsPerHour="109.92000000000002"/>
  <flow id="JF926" begin="0" fromJunction="J0" toJunction="J4" end="3600" vehsPerHour="109.92000000000002"/>
  <flow id="JF927" begin="0" fromJunction="J0" toJunction="J5" end="3600" vehsPerHour="109.92000000000002"/>
  <flow id="JF928" begin="0" fromJunction="J0" toJunction="J6" end="3600" vehsPerHour="109.92000000000002"/>
  <flow id="JF929" begin="0" fromJunction="J0" toJunction="J7" end="3600" vehsPerHour="109.92000000000002"/>
  <flow id="JF930" begin="10000" fromJunction="J3" toJunction="J0" end="13600" vehsPerHour="109.92000000000002"/>
  <flow id="JF931" begin="10000" fromJunction="J3" toJunction="J4" end="13600" vehsPerHour="109.92000000000002"/>
  <flow id="JF932" begin="10000" fromJunction="J3" toJunction="J5" end="13600" vehsPerHour="109.92000000000002"/>
  <flow id="JF933" begin="10000" fromJunction="J3" toJunction="J6" end="13600" vehsPerHour="109.92000000000002"/>
  <flow id="JF934" begin="10000" fromJunction="J3" toJunction="J7" end="13600" vehsPerHour="109.92000000000002"/>
  <flow id="JF935" begin="10000" fromJunction="J4" toJunction="J0" end="13600" vehsPerHour="54.96000000000001"/>
  <flow id="JF936" begin="10000" fromJunction="J4" toJunction="J3" end="13600" vehsPerHour="54.96000000000001"/>
  <flow id="JF937" begin="10000" fromJunction="J4" toJunction="J5" end="13600" vehsPerHour="54.96000000000001"/>
  <flow id="JF938" begin="10000" fromJunction="J4" toJunction="J6" end="13600" vehsPerHour="54.96000000000001"/>
  <flow id="JF939" begin="10000" fromJunction="J4" toJunction="J7" end="13600" vehsPerHour="54.96000000000001"/>
  <flow id="JF940" begin="10000" fromJunction="J5" toJunction="J0" end="13600" vehsPerHour="54.96000000000001"/>
  <flow id="JF941" begin="10000" fromJunction="J5" toJunction="J3" end="13600" vehsPerHour="54.96000000000001"/>
  <flow id="JF942" begin="10000" fromJunction="J5" toJunction="J4" end="13600" vehsPerHour="54.96000000000001"/>
  <flow id="JF943" begin="10000" fromJunction="J5" toJunction="J6" end="13600" vehsPerHour="54.96000000000001"/>
  <flow id="JF944" begin="10000" fromJunction="J5" toJunction="J7" end="13600" vehsPerHour="54.96000000000001"/>
  <flow id="JF945" begin="10000" fromJunction="J6" toJunction="J0" end="13600" vehsPerHour="54.96000000000001"/>
  <flow id="JF946" begin="10000" fromJunction="J6" toJunction="J3" end="13600" vehsPerHour="54.96000000000001"/>
  <flow id="JF947" begin="10000" fromJunction="J6" toJunction="J4" end="13600" vehsPerHour="54.96000000000001"/>
  <flow id="JF948" begin="10000" fromJunction="J6" toJunction="J5" end="13600" vehsPerHour="54.96000000000001"/>
  <flow id="JF949" begin="10000" fromJunction="J6" toJunction="J7" end="13600" vehsPerHour="54.96000000000001"/>
  <flow id="JF950" begin="10000" fromJunction="J7" toJunction="J0" end="13600" vehsPerHour="54.96000000000001"/>
  <flow id="JF951" begin="10000" fromJunction="J7" toJunction="J3" end="13600" vehsPerHour="54.96000000000001"/>
  <flow id="JF952" begin="10000" fromJunction="J7" toJunction="J4" end="13600" vehsPerHour="54.96000000000001"/>
  <flow id="JF953" begin="10000" fromJunction="J7" toJunction="J5" end="13600" vehsPerHour="54.96000000000001"/>
  <flow id="JF954" begin="10000" fromJunction="J7" toJunction="J6" end="13600" vehsPerHour="54.96000000000001"/>
  <flow id="JF955" begin="10000" fromJunction="J0" toJunction="J6" end="13600" vehsPerHour="1374.0"/>
  <flow id="JF956" begin="10000" fromJunction="J0" toJunction="J3" end="13600" vehsPerHour="343.5"/>
  <flow id="JF957" begin="10000" fromJunction="J0" toJunction="J4" end="13600" vehsPerHour="343.5"/>
  <flow id="JF958" begin="10000" fromJunction="J0" toJunction="J5" end="13600" vehsPerHour="343.5"/>
  <flow id="JF959" begin="10000" fromJunction="J0" toJunction="J7" end="13600" vehsPerHour="343.5"/>
  <flow id="JF960" begin="20000" fromJunction="J3" toJunction="J0" end="23600" vehsPerHour="109.92000000000002"/>
  <flow id="JF961" begin="20000" fromJunction="J3" toJunction="J4" end="23600" vehsPerHour="109.92000000000002"/>
  <flow id="JF962" begin="20000" fromJunction="J3" toJunction="J5" end="23600" vehsPerHour="109.92000000000002"/>
  <flow id="JF963" begin="20000" fromJunction="J3" toJunction="J6" end="23600" vehsPerHour="109.92000000000002"/>
  <flow id="JF964" begin="20000" fromJunction="J3" toJunction="J7" end="23600" vehsPerHour="109.92000000000002"/>
  <flow id="JF965" begin="20000" fromJunction="J4" toJunction="J0" end="23600" vehsPerHour="54.96000000000001"/>
  <flow id="JF966" begin="20000" fromJunction="J4" toJunction="J3" end="23600" vehsPerHour="54.96000000000001"/>
  <flow id="JF967" begin="20000" fromJunction="J4" toJunction="J5" end="23600" vehsPerHour="54.96000000000001"/>
  <flow id="JF968" begin="20000" fromJunction="J4" toJunction="J6" end="23600" vehsPerHour="54.96000000000001"/>
  <flow id="JF969" begin="20000" fromJunction="J4" toJunction="J7" end="23600" vehsPerHour="54.96000000000001"/>
  <flow id="JF970" begin="20000" fromJunction="J5" toJunction="J0" end="23600" vehsPerHour="54.96000000000001"/>
  <flow id="JF971" begin="20000" fromJunction="J5" toJunction="J3" end="23600" vehsPerHour="54.96000000000001"/>
  <flow id="JF972" begin="20000" fromJunction="J5" toJunction="J4" end="23600" vehsPerHour="54.96000000000001"/>
  <flow id="JF973" begin="20000" fromJunction="J5" toJunction="J6" end="23600" vehsPerHour="54.96000000000001"/>
  <flow id="JF974" begin="20000" fromJunction="J5" toJunction="J7" end="23600" vehsPerHour="54.96000000000001"/>
  <flow id="JF975" begin="20000" fromJunction="J6" toJunction="J5" end="23600" vehsPerHour="687.0"/>
  <flow id="JF976" begin="20000" fromJunction="J6" toJunction="J0" end="23600" vehsPerHour="171.75"/>
  <flow id="JF977" begin="20000" fromJunction="J6" toJunction="J3" end="23600" vehsPerHour="171.75"/>
  <flow id="JF978" begin="20000" fromJunction="J6" toJunction="J4" end="23600" vehsPerHour="171.75"/>
  <flow id="JF979" begin="20000" fromJunction="J6" toJunction="J7" end="23600" vehsPerHour="171.75"/>
  <flow id="JF980" begin="20000" fromJunction="J7" toJunction="J0" end="23600" vehsPerHour="54.96000000000001"/>
  <flow id="JF981" begin="20000" fromJunction="J7" toJunction="J3" end="23600" vehsPerHour="54.96000000000001"/>
  <flow id="JF982" begin="20000" fromJunction="J7" toJunction="J4" end="23600" vehsPerHour="54.96000000000001"/>
  <flow id="JF983" begin="20000" fromJunction="J7" toJunction="J5" end="23600" vehsPerHour="54.96000000000001"/>
  <flow id="JF984" begin="20000" fromJunction="J7" toJunction="J6" end="23600" vehsPerHour="54.96000000000001"/>
  <flow id="JF985" begin="20000" fromJunction="J0" toJunction="J3" end="23600" vehsPerHour="109.92000000000002"/>
  <flow id="JF986" begin="20000" fromJunction="J0" toJunction="J4" end="23600" vehsPerHour="109.92000000000002"/>
  <flow id="JF987" begin="20000" fromJunction="J0" toJunction="J5" end="23600" vehsPerHour="109.92000000000002"/>
  <flow id="JF988" begin="20000" fromJunction="J0" toJunction="J6" end="23600" vehsPerHour="109.92000000000002"/>
  <flow id="JF989" begin="20000" fromJunction="J0" toJunction="J7" end="23600" vehsPerHour="109.92000000000002"/>
  <flow id="JF990" begin="30000" fromJunction="J3" toJunction="J4" end="33600" vehsPerHour="1374.0"/>
  <flow id="JF991" begin="30000" fromJunction="J3" toJunction="J0" end="33600" vehsPerHour="343.5"/>
  <flow id="JF992" begin="30000" fromJunction="J3" toJunction="J5" end="33600" vehsPerHour="343.5"/>
  <flow id="JF993" begin="30000" fromJunction="J3" toJunction="J6" end="33600" vehsPerHour="343.5"/>
  <flow id="JF994" begin="30000" fromJunction="J3" toJunction="J7" end="33600" vehsPerHour="343.5"/>
  <flow id="JF995" begin="30000" fromJunction="J4" toJunction="J0" end="33600" vehsPerHour="54.96000000000001"/>
  <flow id="JF996" begin="30000" fromJunction="J4" toJunction="J3" end="33600" vehsPerHour="54.96000000000001"/>
  <flow id="JF997" begin="30000" fromJunction="J4" toJunction="J5" end="33600" vehsPerHour="54.96000000000001"/>
  <flow id="JF998" begin="30000" fromJunction="J4" toJunction="J6" end="33600" vehsPerHour="54.96000000000001"/>
  <flow id="JF999" begin="30000" fromJunction="J4" toJunction="J7" end="33600" vehsPerHour="54.96000000000001"/>
  <flow id="JF1000" begin="30000" fromJunction="J5" toJunction="J0" end="33600" vehsPerHour="54.96000000000001"/>
  <flow id="JF1001" begin="30000" fromJunction="J5" toJunction="J3" end="33600" vehsPerHour="54.96000000000001"/>
  <flow id="JF1002" begin="30000" fromJunction="J5" toJunction="J4" end="33600" vehsPerHour="54.96000000000001"/>
  <flow id="JF1003" begin="30000" fromJunction="J5" toJunction="J6" end="33600" vehsPerHour="54.96000000000001"/>
  <flow id="JF1004" begin="30000" fromJunction="J5" toJunction="J7" end="33600" vehsPerHour="54.96000000000001"/>
  <flow id="JF1005" begin="30000" fromJunction="J6" toJunction="J0" end="33600" vehsPerHour="54.96000000000001"/>
  <flow id="JF1006" begin="30000" fromJunction="J6" toJunction="J3" end="33600" vehsPerHour="54.96000000000001"/>
  <flow id="JF1007" begin="30000" fromJunction="J6" toJunction="J4" end="33600" vehsPerHour="54.96000000000001"/>
  <flow id="JF1008" begin="30000" fromJunction="J6" toJunction="J5" end="33600" vehsPerHour="54.96000000000001"/>
  <flow id="JF1009" begin="30000" fromJunction="J6" toJunction="J7" end="33600" vehsPerHour="54.96000000000001"/>
  <flow id="JF1010" begin="30000" fromJunction="J7" toJunction="J0" end="33600" vehsPerHour="54.96000000000001"/>
  <flow id="JF1011" begin="30000" fromJunction="J7" toJunction="J3" end="33600" vehsPerHour="54.96000000000001"/>
  <flow id="JF1012" begin="30000" fromJunction="J7" toJunction="J4" end="33600" vehsPerHour="54.96000000000001"/>
  <flow id="JF1013" begin="30000" fromJunction="J7" toJunction="J5" end="33600" vehsPerHour="54.96000000000001"/>
  <flow id="JF1014" begin="30000" fromJunction="J7" toJunction="J6" end="33600" vehsPerHour="54.96000000000001"/>
  <flow id="JF1015" begin="30000" fromJunction="J0" toJunction="J3" end="33600" vehsPerHour="109.92000000000002"/>
  <flow id="JF1016" begin="30000" fromJunction="J0" toJunction="J4" end="33600" vehsPerHour="109.92000000000002"/>
  <flow id="JF1017" begin="30000" fromJunction="J0" toJunction="J5" end="33600" vehsPerHour="109.92000000000002"/>
  <flow id="JF1018" begin="30000" fromJunction="J0" toJunction="J6" end="33600" vehsPerHour="109.92000000000002"/>
  <flow id="JF1019" begin="30000" fromJunction="J0" toJunction="J7" end="33600" vehsPerHour="109.92000000000002"/>
  <flow id="JF1020" begin="40000" fromJunction="J3" toJunction="J0" end="43600" vehsPerHour="109.92000000000002"/>
  <flow id="JF1021" begin="40000" fromJunction="J3" toJunction="J4" end="43600" vehsPerHour="109.92000000000002"/>
  <flow id="JF1022" begin="40000" fromJunction="J3" toJunction="J5" end="43600" vehsPerHour="109.92000000000002"/>
  <flow id="JF1023" begin="40000" fromJunction="J3" toJunction="J6" end="43600" vehsPerHour="109.92000000000002"/>
  <flow id="JF1024" begin="40000" fromJunction="J3" toJunction="J7" end="43600" vehsPerHour="109.92000000000002"/>
  <flow id="JF1025" begin="40000" fromJunction="J4" toJunction="J0" end="43600" vehsPerHour="54.96000000000001"/>
  <flow id="JF1026" begin="40000" fromJunction="J4" toJunction="J3" end="43600" vehsPerHour="54.96000000000001"/>
  <flow id="JF1027" begin="40000" fromJunction="J4" toJunction="J5" end="43600" vehsPerHour="54.96000000000001"/>
  <flow id="JF1028" begin="40000" fromJunction="J4" toJunction="J6" end="43600" vehsPerHour="54.96000000000001"/>
  <flow id="JF1029" begin="40000" fromJunction="J4" toJunction="J7" end="43600" vehsPerHour="54.96000000000001"/>
  <flow id="JF1030" begin="40000" fromJunction="J5" toJunction="J0" end="43600" vehsPerHour="54.96000000000001"/>
  <flow id="JF1031" begin="40000" fromJunction="J5" toJunction="J3" end="43600" vehsPerHour="54.96000000000001"/>
  <flow id="JF1032" begin="40000" fromJunction="J5" toJunction="J4" end="43600" vehsPerHour="54.96000000000001"/>
  <flow id="JF1033" begin="40000" fromJunction="J5" toJunction="J6" end="43600" vehsPerHour="54.96000000000001"/>
  <flow id="JF1034" begin="40000" fromJunction="J5" toJunction="J7" end="43600" vehsPerHour="54.96000000000001"/>
  <flow id="JF1035" begin="40000" fromJunction="J6" toJunction="J0" end="43600" vehsPerHour="54.96000000000001"/>
  <flow id="JF1036" begin="40000" fromJunction="J6" toJunction="J3" end="43600" vehsPerHour="54.96000000000001"/>
  <flow id="JF1037" begin="40000" fromJunction="J6" toJunction="J4" end="43600" vehsPerHour="54.96000000000001"/>
  <flow id="JF1038" begin="40000" fromJunction="J6" toJunction="J5" end="43600" vehsPerHour="54.96000000000001"/>
  <flow id="JF1039" begin="40000" fromJunction="J6" toJunction="J7" end="43600" vehsPerHour="54.96000000000001"/>
  <flow id="JF1040" begin="40000" fromJunction="J7" toJunction="J0" end="43600" vehsPerHour="54.96000000000001"/>
  <flow id="JF1041" begin="40000" fromJunction="J7" toJunction="J3" end="43600" vehsPerHour="54.96000000000001"/>
  <flow id="JF1042" begin="40000" fromJunction="J7" toJunction="J4" end="43600" vehsPerHour="54.96000000000001"/>
  <flow id="JF1043" begin="40000" fromJunction="J7" toJunction="J5" end="43600" vehsPerHour="54.96000000000001"/>
  <flow id="JF1044" begin="40000" fromJunction="J7" toJunction="J6" end="43600" vehsPerHour="54.96000000000001"/>
  <flow id="JF1045" begin="40000" fromJunction="J0" toJunction="J5" end="43600" vehsPerHour="1374.0"/>
  <flow id="JF1046" begin="40000" fromJunction="J0" toJunction="J3" end="43600" vehsPerHour="343.5"/>
  <flow id="JF1047" begin="40000" fromJunction="J0" toJunction="J4" end="43600" vehsPerHour="343.5"/>
  <flow id="JF1048" begin="40000" fromJunction="J0" toJunction="J6" end="43600" vehsPerHour="343.5"/>
  <flow id="JF1049" begin="40000" fromJunction="J0" toJunction="J7" end="43600" vehsPerHour="343.5"/>
</routes>