<?xml version="1.0" encoding="UTF-8"?>
<routes xmlns:xsi="http://www.w3.org/2001/XMLSchema-instance" xsi:noNamespaceSchemaLocation="http://sumo.dlr.de/xsd/routes_file.xsd">
  <flow id="JF900" begin="0" fromJunction="J3" toJunction="J0" end="1000" vehsPerHour="109.92000000000002"/>
  <flow id="JF901" begin="0" fromJunction="J3" toJunction="J4" end="1000" vehsPerHour="109.92000000000002"/>
  <flow id="JF902" begin="0" fromJunction="J3" toJunction="J5" end="1000" vehsPerHour="109.92000000000002"/>
  <flow id="JF903" begin="0" fromJunction="J3" toJunction="J6" end="1000" vehsPerHour="109.92000000000002"/>
  <flow id="JF904" begin="0" fromJunction="J3" toJunction="J7" end="1000" vehsPerHour="109.92000000000002"/>
  <flow id="JF905" begin="0" fromJunction="J4" toJunction="J7" end="1000" vehsPerHour="687.0"/>
  <flow id="JF906" begin="0" fromJunction="J4" toJunction="J0" end="1000" vehsPerHour="171.75"/>
  <flow id="JF907" begin="0" fromJunction="J4" toJunction="J3" end="1000" vehsPerHour="171.75"/>
  <flow id="JF908" begin="0" fromJunction="J4" toJunction="J5" end="1000" vehsPerHour="171.75"/>
  <flow id="JF909" begin="0" fromJunction="J4" toJunction="J6" end="1000" vehsPerHour="171.75"/>
  <flow id="JF910" begin="0" fromJunction="J5" toJunction="J0" end="1000" vehsPerHour="54.96000000000001"/>
  <flow id="JF911" begin="0" fromJunction="J5" toJunction="J3" end="1000" vehsPerHour="54.96000000000001"/>
  <flow id="JF912" begin="0" fromJunction="J5" toJunction="J4" end="1000" vehsPerHour="54.96000000000001"/>
  <flow id="JF913" begin="0" fromJunction="J5" toJunction="J6" end="1000" vehsPerHour="54.96000000000001"/>
  <flow id="JF914" begin="0" fromJunction="J5" toJunction="J7" end="1000" vehsPerHour="54.96000000000001"/>
  <flow id="JF915" begin="0" fromJunction="J6" toJunction="J0" end="1000" vehsPerHour="54.96000000000001"/>
  <flow id="JF916" begin="0" fromJunction="J6" toJunction="J3" end="1000" vehsPerHour="54.96000000000001"/>
  <flow id="JF917" begin="0" fromJunction="J6" toJunction="J4" end="1000" vehsPerHour="54.96000000000001"/>
  <flow id="JF918" begin="0" fromJunction="J6" toJunction="J5" end="1000" vehsPerHour="54.96000000000001"/>
  <flow id="JF919" begin="0" fromJunction="J6" toJunction="J7" end="1000" vehsPerHour="54.96000000000001"/>
  <flow id="JF920" begin="0" fromJunction="J7" toJunction="J0" end="1000" vehsPerHour="54.96000000000001"/>
  <flow id="JF921" begin="0" fromJunction="J7" toJunction="J3" end="1000" vehsPerHour="54.96000000000001"/>
  <flow id="JF922" begin="0" fromJunction="J7" toJunction="J4" end="1000" vehsPerHour="54.96000000000001"/>
  <flow id="JF923" begin="0" fromJunction="J7" toJunction="J5" end="1000" vehsPerHour="54.96000000000001"/>
  <flow id="JF924" begin="0" fromJunction="J7" toJunction="J6" end="1000" vehsPerHour="54.96000000000001"/>
  <flow id="JF925" begin="0" fromJunction="J0" toJunction="J5" end="1000" vehsPerHour="999.2727272727273"/>
  <flow id="JF926" begin="0" fromJunction="J0" toJunction="J7" end="1000" vehsPerHour="999.2727272727273"/>
  <flow id="JF927" begin="0" fromJunction="J0" toJunction="J3" end="1000" vehsPerHour="249.8181818181818"/>
  <flow id="JF928" begin="0" fromJunction="J0" toJunction="J4" end="1000" vehsPerHour="249.8181818181818"/>
  <flow id="JF929" begin="0" fromJunction="J0" toJunction="J6" end="1000" vehsPerHour="249.8181818181818"/>
  <flow id="JF930" begin="1000" fromJunction="J3" toJunction="J6" end="2000" vehsPerHour="1374.0"/>
  <flow id="JF931" begin="1000" fromJunction="J3" toJunction="J0" end="2000" vehsPerHour="343.5"/>
  <flow id="JF932" begin="1000" fromJunction="J3" toJunction="J4" end="2000" vehsPerHour="343.5"/>
  <flow id="JF933" begin="1000" fromJunction="J3" toJunction="J5" end="2000" vehsPerHour="343.5"/>
  <flow id="JF934" begin="1000" fromJunction="J3" toJunction="J7" end="2000" vehsPerHour="343.5"/>
  <flow id="JF935" begin="1000" fromJunction="J4" toJunction="J0" end="2000" vehsPerHour="54.96000000000001"/>
  <flow id="JF936" begin="1000" fromJunction="J4" toJunction="J3" end="2000" vehsPerHour="54.96000000000001"/>
  <flow id="JF937" begin="1000" fromJunction="J4" toJunction="J5" end="2000" vehsPerHour="54.96000000000001"/>
  <flow id="JF938" begin="1000" fromJunction="J4" toJunction="J6" end="2000" vehsPerHour="54.96000000000001"/>
  <flow id="JF939" begin="1000" fromJunction="J4" toJunction="J7" end="2000" vehsPerHour="54.96000000000001"/>
  <flow id="JF940" begin="1000" fromJunction="J5" toJunction="J7" end="2000" vehsPerHour="687.0"/>
  <flow id="JF941" begin="1000" fromJunction="J5" toJunction="J0" end="2000" vehsPerHour="171.75"/>
  <flow id="JF942" begin="1000" fromJunction="J5" toJunction="J3" end="2000" vehsPerHour="171.75"/>
  <flow id="JF943" begin="1000" fromJunction="J5" toJunction="J4" end="2000" vehsPerHour="171.75"/>
  <flow id="JF944" begin="1000" fromJunction="J5" toJunction="J6" end="2000" vehsPerHour="171.75"/>
  <flow id="JF945" begin="1000" fromJunction="J6" toJunction="J7" end="2000" vehsPerHour="687.0"/>
  <flow id="JF946" begin="1000" fromJunction="J6" toJunction="J0" end="2000" vehsPerHour="171.75"/>
  <flow id="JF947" begin="1000" fromJunction="J6" toJunction="J3" end="2000" vehsPerHour="171.75"/>
  <flow id="JF948" begin="1000" fromJunction="J6" toJunction="J4" end="2000" vehsPerHour="171.75"/>
  <flow id="JF949" begin="1000" fromJunction="J6" toJunction="J5" end="2000" vehsPerHour="171.75"/>
  <flow id="JF950" begin="1000" fromJunction="J7" toJunction="J0" end="2000" vehsPerHour="54.96000000000001"/>
  <flow id="JF951" begin="1000" fromJunction="J7" toJunction="J3" end="2000" vehsPerHour="54.96000000000001"/>
  <flow id="JF952" begin="1000" fromJunction="J7" toJunction="J4" end="2000" vehsPerHour="54.96000000000001"/>
  <flow id="JF953" begin="1000" fromJunction="J7" toJunction="J5" end="2000" vehsPerHour="54.96000000000001"/>
  <flow id="JF954" begin="1000" fromJunction="J7" toJunction="J6" end="2000" vehsPerHour="54.96000000000001"/>
  <flow id="JF955" begin="1000" fromJunction="J0" toJunction="J3" end="2000" vehsPerHour="109.92000000000002"/>
  <flow id="JF956" begin="1000" fromJunction="J0" toJunction="J4" end="2000" vehsPerHour="109.92000000000002"/>
  <flow id="JF957" begin="1000" fromJunction="J0" toJunction="J5" end="2000" vehsPerHour="109.92000000000002"/>
  <flow id="JF958" begin="1000" fromJunction="J0" toJunction="J6" end="2000" vehsPerHour="109.92000000000002"/>
  <flow id="JF959" begin="1000" fromJunction="J0" toJunction="J7" end="2000" vehsPerHour="109.92000000000002"/>
  <flow id="JF960" begin="2000" fromJunction="J3" toJunction="J6" end="3000" vehsPerHour="1374.0"/>
  <flow id="JF961" begin="2000" fromJunction="J3" toJunction="J0" end="3000" vehsPerHour="343.5"/>
  <flow id="JF962" begin="2000" fromJunction="J3" toJunction="J4" end="3000" vehsPerHour="343.5"/>
  <flow id="JF963" begin="2000" fromJunction="J3" toJunction="J5" end="3000" vehsPerHour="343.5"/>
  <flow id="JF964" begin="2000" fromJunction="J3" toJunction="J7" end="3000" vehsPerHour="343.5"/>
  <flow id="JF965" begin="2000" fromJunction="J4" toJunction="J0" end="3000" vehsPerHour="687.0"/>
  <flow id="JF966" begin="2000" fromJunction="J4" toJunction="J3" end="3000" vehsPerHour="171.75"/>
  <flow id="JF967" begin="2000" fromJunction="J4" toJunction="J5" end="3000" vehsPerHour="171.75"/>
  <flow id="JF968" begin="2000" fromJunction="J4" toJunction="J6" end="3000" vehsPerHour="171.75"/>
  <flow id="JF969" begin="2000" fromJunction="J4" toJunction="J7" end="3000" vehsPerHour="171.75"/>
  <flow id="JF970" begin="2000" fromJunction="J5" toJunction="J0" end="3000" vehsPerHour="54.96000000000001"/>
  <flow id="JF971" begin="2000" fromJunction="J5" toJunction="J3" end="3000" vehsPerHour="54.96000000000001"/>
  <flow id="JF972" begin="2000" fromJunction="J5" toJunction="J4" end="3000" vehsPerHour="54.96000000000001"/>
  <flow id="JF973" begin="2000" fromJunction="J5" toJunction="J6" end="3000" vehsPerHour="54.96000000000001"/>
  <flow id="JF974" begin="2000" fromJunction="J5" toJunction="J7" end="3000" vehsPerHour="54.96000000000001"/>
  <flow id="JF975" begin="2000" fromJunction="J6" toJunction="J4" end="3000" vehsPerHour="687.0"/>
  <flow id="JF976" begin="2000" fromJunction="J6" toJunction="J0" end="3000" vehsPerHour="171.75"/>
  <flow id="JF977" begin="2000" fromJunction="J6" toJunction="J3" end="3000" vehsPerHour="171.75"/>
  <flow id="JF978" begin="2000" fromJunction="J6" toJunction="J5" end="3000" vehsPerHour="171.75"/>
  <flow id="JF979" begin="2000" fromJunction="J6" toJunction="J7" end="3000" vehsPerHour="171.75"/>
  <flow id="JF980" begin="2000" fromJunction="J7" toJunction="J0" end="3000" vehsPerHour="54.96000000000001"/>
  <flow id="JF981" begin="2000" fromJunction="J7" toJunction="J3" end="3000" vehsPerHour="54.96000000000001"/>
  <flow id="JF982" begin="2000" fromJunction="J7" toJunction="J4" end="3000" vehsPerHour="54.96000000000001"/>
  <flow id="JF983" begin="2000" fromJunction="J7" toJunction="J5" end="3000" vehsPerHour="54.96000000000001"/>
  <flow id="JF984" begin="2000" fromJunction="J7" toJunction="J6" end="3000" vehsPerHour="54.96000000000001"/>
  <flow id="JF985" begin="2000" fromJunction="J0" toJunction="J3" end="3000" vehsPerHour="109.92000000000002"/>
  <flow id="JF986" begin="2000" fromJunction="J0" toJunction="J4" end="3000" vehsPerHour="109.92000000000002"/>
  <flow id="JF987" begin="2000" fromJunction="J0" toJunction="J5" end="3000" vehsPerHour="109.92000000000002"/>
  <flow id="JF988" begin="2000" fromJunction="J0" toJunction="J6" end="3000" vehsPerHour="109.92000000000002"/>
  <flow id="JF989" begin="2000" fromJunction="J0" toJunction="J7" end="3000" vehsPerHour="109.92000000000002"/>
  <flow id="JF990" begin="3000" fromJunction="J3" toJunction="J0" end="4000" vehsPerHour="1374.0"/>
  <flow id="JF991" begin="3000" fromJunction="J3" toJunction="J4" end="4000" vehsPerHour="343.5"/>
  <flow id="JF992" begin="3000" fromJunction="J3" toJunction="J5" end="4000" vehsPerHour="343.5"/>
  <flow id="JF993" begin="3000" fromJunction="J3" toJunction="J6" end="4000" vehsPerHour="343.5"/>
  <flow id="JF994" begin="3000" fromJunction="J3" toJunction="J7" end="4000" vehsPerHour="343.5"/>
  <flow id="JF995" begin="3000" fromJunction="J4" toJunction="J0" end="4000" vehsPerHour="54.96000000000001"/>
  <flow id="JF996" begin="3000" fromJunction="J4" toJunction="J3" end="4000" vehsPerHour="54.96000000000001"/>
  <flow id="JF997" begin="3000" fromJunction="J4" toJunction="J5" end="4000" vehsPerHour="54.96000000000001"/>
  <flow id="JF998" begin="3000" fromJunction="J4" toJunction="J6" end="4000" vehsPerHour="54.96000000000001"/>
  <flow id="JF999" begin="3000" fromJunction="J4" toJunction="J7" end="4000" vehsPerHour="54.96000000000001"/>
  <flow id="JF1000" begin="3000" fromJunction="J5" toJunction="J6" end="4000" vehsPerHour="687.0"/>
  <flow id="JF1001" begin="3000" fromJunction="J5" toJunction="J0" end="4000" vehsPerHour="171.75"/>
  <flow id="JF1002" begin="3000" fromJunction="J5" toJunction="J3" end="4000" vehsPerHour="171.75"/>
  <flow id="JF1003" begin="3000" fromJunction="J5" toJunction="J4" end="4000" vehsPerHour="171.75"/>
  <flow id="JF1004" begin="3000" fromJunction="J5" toJunction="J7" end="4000" vehsPerHour="171.75"/>
  <flow id="JF1005" begin="3000" fromJunction="J6" toJunction="J0" end="4000" vehsPerHour="54.96000000000001"/>
  <flow id="JF1006" begin="3000" fromJunction="J6" toJunction="J3" end="4000" vehsPerHour="54.96000000000001"/>
  <flow id="JF1007" begin="3000" fromJunction="J6" toJunction="J4" end="4000" vehsPerHour="54.96000000000001"/>
  <flow id="JF1008" begin="3000" fromJunction="J6" toJunction="J5" end="4000" vehsPerHour="54.96000000000001"/>
  <flow id="JF1009" begin="3000" fromJunction="J6" toJunction="J7" end="4000" vehsPerHour="54.96000000000001"/>
  <flow id="JF1010" begin="3000" fromJunction="J7" toJunction="J0" end="4000" vehsPerHour="54.96000000000001"/>
  <flow id="JF1011" begin="3000" fromJunction="J7" toJunction="J3" end="4000" vehsPerHour="54.96000000000001"/>
  <flow id="JF1012" begin="3000" fromJunction="J7" toJunction="J4" end="4000" vehsPerHour="54.96000000000001"/>
  <flow id="JF1013" begin="3000" fromJunction="J7" toJunction="J5" end="4000" vehsPerHour="54.96000000000001"/>
  <flow id="JF1014" begin="3000" fromJunction="J7" toJunction="J6" end="4000" vehsPerHour="54.96000000000001"/>
  <flow id="JF1015" begin="3000" fromJunction="J0" toJunction="J6" end="4000" vehsPerHour="1374.0"/>
  <flow id="JF1016" begin="3000" fromJunction="J0" toJunction="J3" end="4000" vehsPerHour="343.5"/>
  <flow id="JF1017" begin="3000" fromJunction="J0" toJunction="J4" end="4000" vehsPerHour="343.5"/>
  <flow id="JF1018" begin="3000" fromJunction="J0" toJunction="J5" end="4000" vehsPerHour="343.5"/>
  <flow id="JF1019" begin="3000" fromJunction="J0" toJunction="J7" end="4000" vehsPerHour="343.5"/>
  <flow id="JF1020" begin="4000" fromJunction="J3" toJunction="J0" end="5000" vehsPerHour="109.92000000000002"/>
  <flow id="JF1021" begin="4000" fromJunction="J3" toJunction="J4" end="5000" vehsPerHour="109.92000000000002"/>
  <flow id="JF1022" begin="4000" fromJunction="J3" toJunction="J5" end="5000" vehsPerHour="109.92000000000002"/>
  <flow id="JF1023" begin="4000" fromJunction="J3" toJunction="J6" end="5000" vehsPerHour="109.92000000000002"/>
  <flow id="JF1024" begin="4000" fromJunction="J3" toJunction="J7" end="5000" vehsPerHour="109.92000000000002"/>
  <flow id="JF1025" begin="4000" fromJunction="J4" toJunction="J0" end="5000" vehsPerHour="54.96000000000001"/>
  <flow id="JF1026" begin="4000" fromJunction="J4" toJunction="J3" end="5000" vehsPerHour="54.96000000000001"/>
  <flow id="JF1027" begin="4000" fromJunction="J4" toJunction="J5" end="5000" vehsPerHour="54.96000000000001"/>
  <flow id="JF1028" begin="4000" fromJunction="J4" toJunction="J6" end="5000" vehsPerHour="54.96000000000001"/>
  <flow id="JF1029" begin="4000" fromJunction="J4" toJunction="J7" end="5000" vehsPerHour="54.96000000000001"/>
  <flow id="JF1030" begin="4000" fromJunction="J5" toJunction="J4" end="5000" vehsPerHour="499.6363636363636"/>
  <flow id="JF1031" begin="4000" fromJunction="J5" toJunction="J7" end="5000" vehsPerHour="499.6363636363636"/>
  <flow id="JF1032" begin="4000" fromJunction="J5" toJunction="J0" end="5000" vehsPerHour="124.9090909090909"/>
  <flow id="JF1033" begin="4000" fromJunction="J5" toJunction="J3" end="5000" vehsPerHour="124.9090909090909"/>
  <flow id="JF1034" begin="4000" fromJunction="J5" toJunction="J6" end="5000" vehsPerHour="124.9090909090909"/>
  <flow id="JF1035" begin="4000" fromJunction="J6" toJunction="J5" end="5000" vehsPerHour="687.0"/>
  <flow id="JF1036" begin="4000" fromJunction="J6" toJunction="J0" end="5000" vehsPerHour="171.75"/>
  <flow id="JF1037" begin="4000" fromJunction="J6" toJunction="J3" end="5000" vehsPerHour="171.75"/>
  <flow id="JF1038" begin="4000" fromJunction="J6" toJunction="J4" end="5000" vehsPerHour="171.75"/>
  <flow id="JF1039" begin="4000" fromJunction="J6" toJunction="J7" end="5000" vehsPerHour="171.75"/>
  <flow id="JF1040" begin="4000" fromJunction="J7" toJunction="J0" end="5000" vehsPerHour="54.96000000000001"/>
  <flow id="JF1041" begin="4000" fromJunction="J7" toJunction="J3" end="5000" vehsPerHour="54.96000000000001"/>
  <flow id="JF1042" begin="4000" fromJunction="J7" toJunction="J4" end="5000" vehsPerHour="54.96000000000001"/>
  <flow id="JF1043" begin="4000" fromJunction="J7" toJunction="J5" end="5000" vehsPerHour="54.96000000000001"/>
  <flow id="JF1044" begin="4000" fromJunction="J7" toJunction="J6" end="5000" vehsPerHour="54.96000000000001"/>
  <flow id="JF1045" begin="4000" fromJunction="J0" toJunction="J3" end="5000" vehsPerHour="109.92000000000002"/>
  <flow id="JF1046" begin="4000" fromJunction="J0" toJunction="J4" end="5000" vehsPerHour="109.92000000000002"/>
  <flow id="JF1047" begin="4000" fromJunction="J0" toJunction="J5" end="5000" vehsPerHour="109.92000000000002"/>
  <flow id="JF1048" begin="4000" fromJunction="J0" toJunction="J6" end="5000" vehsPerHour="109.92000000000002"/>
  <flow id="JF1049" begin="4000" fromJunction="J0" toJunction="J7" end="5000" vehsPerHour="109.92000000000002"/>
  <flow id="JF1050" begin="5000" fromJunction="J3" toJunction="J0" end="6000" vehsPerHour="109.92000000000002"/>
  <flow id="JF1051" begin="5000" fromJunction="J3" toJunction="J4" end="6000" vehsPerHour="109.92000000000002"/>
  <flow id="JF1052" begin="5000" fromJunction="J3" toJunction="J5" end="6000" vehsPerHour="109.92000000000002"/>
  <flow id="JF1053" begin="5000" fromJunction="J3" toJunction="J6" end="6000" vehsPerHour="109.92000000000002"/>
  <flow id="JF1054" begin="5000" fromJunction="J3" toJunction="J7" end="6000" vehsPerHour="109.92000000000002"/>
  <flow id="JF1055" begin="5000" fromJunction="J4" toJunction="J5" end="6000" vehsPerHour="392.57142857142856"/>
  <flow id="JF1056" begin="5000" fromJunction="J4" toJunction="J0" end="6000" vehsPerHour="392.57142857142856"/>
  <flow id="JF1057" begin="5000" fromJunction="J4" toJunction="J3" end="6000" vehsPerHour="392.57142857142856"/>
  <flow id="JF1058" begin="5000" fromJunction="J4" toJunction="J6" end="6000" vehsPerHour="98.14285714285714"/>
  <flow id="JF1059" begin="5000" fromJunction="J4" toJunction="J7" end="6000" vehsPerHour="98.14285714285714"/>
  <flow id="JF1060" begin="5000" fromJunction="J5" toJunction="J0" end="6000" vehsPerHour="54.96000000000001"/>
  <flow id="JF1061" begin="5000" fromJunction="J5" toJunction="J3" end="6000" vehsPerHour="54.96000000000001"/>
  <flow id="JF1062" begin="5000" fromJunction="J5" toJunction="J4" end="6000" vehsPerHour="54.96000000000001"/>
  <flow id="JF1063" begin="5000" fromJunction="J5" toJunction="J6" end="6000" vehsPerHour="54.96000000000001"/>
  <flow id="JF1064" begin="5000" fromJunction="J5" toJunction="J7" end="6000" vehsPerHour="54.96000000000001"/>
  <flow id="JF1065" begin="5000" fromJunction="J6" toJunction="J0" end="6000" vehsPerHour="54.96000000000001"/>
  <flow id="JF1066" begin="5000" fromJunction="J6" toJunction="J3" end="6000" vehsPerHour="54.96000000000001"/>
  <flow id="JF1067" begin="5000" fromJunction="J6" toJunction="J4" end="6000" vehsPerHour="54.96000000000001"/>
  <flow id="JF1068" begin="5000" fromJunction="J6" toJunction="J5" end="6000" vehsPerHour="54.96000000000001"/>
  <flow id="JF1069" begin="5000" fromJunction="J6" toJunction="J7" end="6000" vehsPerHour="54.96000000000001"/>
  <flow id="JF1070" begin="5000" fromJunction="J7" toJunction="J0" end="6000" vehsPerHour="54.96000000000001"/>
  <flow id="JF1071" begin="5000" fromJunction="J7" toJunction="J3" end="6000" vehsPerHour="54.96000000000001"/>
  <flow id="JF1072" begin="5000" fromJunction="J7" toJunction="J4" end="6000" vehsPerHour="54.96000000000001"/>
  <flow id="JF1073" begin="5000" fromJunction="J7" toJunction="J5" end="6000" vehsPerHour="54.96000000000001"/>
  <flow id="JF1074" begin="5000" fromJunction="J7" toJunction="J6" end="6000" vehsPerHour="54.96000000000001"/>
  <flow id="JF1075" begin="5000" fromJunction="J0" toJunction="J3" end="6000" vehsPerHour="109.92000000000002"/>
  <flow id="JF1076" begin="5000" fromJunction="J0" toJunction="J4" end="6000" vehsPerHour="109.92000000000002"/>
  <flow id="JF1077" begin="5000" fromJunction="J0" toJunction="J5" end="6000" vehsPerHour="109.92000000000002"/>
  <flow id="JF1078" begin="5000" fromJunction="J0" toJunction="J6" end="6000" vehsPerHour="109.92000000000002"/>
  <flow id="JF1079" begin="5000" fromJunction="J0" toJunction="J7" end="6000" vehsPerHour="109.92000000000002"/>
  <flow id="JF1080" begin="6000" fromJunction="J3" toJunction="J5" end="7000" vehsPerHour="1374.0"/>
  <flow id="JF1081" begin="6000" fromJunction="J3" toJunction="J0" end="7000" vehsPerHour="343.5"/>
  <flow id="JF1082" begin="6000" fromJunction="J3" toJunction="J4" end="7000" vehsPerHour="343.5"/>
  <flow id="JF1083" begin="6000" fromJunction="J3" toJunction="J6" end="7000" vehsPerHour="343.5"/>
  <flow id="JF1084" begin="6000" fromJunction="J3" toJunction="J7" end="7000" vehsPerHour="343.5"/>
  <flow id="JF1085" begin="6000" fromJunction="J4" toJunction="J7" end="7000" vehsPerHour="687.0"/>
  <flow id="JF1086" begin="6000" fromJunction="J4" toJunction="J0" end="7000" vehsPerHour="171.75"/>
  <flow id="JF1087" begin="6000" fromJunction="J4" toJunction="J3" end="7000" vehsPerHour="171.75"/>
  <flow id="JF1088" begin="6000" fromJunction="J4" toJunction="J5" end="7000" vehsPerHour="171.75"/>
  <flow id="JF1089" begin="6000" fromJunction="J4" toJunction="J6" end="7000" vehsPerHour="171.75"/>
  <flow id="JF1090" begin="6000" fromJunction="J5" toJunction="J0" end="7000" vehsPerHour="54.96000000000001"/>
  <flow id="JF1091" begin="6000" fromJunction="J5" toJunction="J3" end="7000" vehsPerHour="54.96000000000001"/>
  <flow id="JF1092" begin="6000" fromJunction="J5" toJunction="J4" end="7000" vehsPerHour="54.96000000000001"/>
  <flow id="JF1093" begin="6000" fromJunction="J5" toJunction="J6" end="7000" vehsPerHour="54.96000000000001"/>
  <flow id="JF1094" begin="6000" fromJunction="J5" toJunction="J7" end="7000" vehsPerHour="54.96000000000001"/>
  <flow id="JF1095" begin="6000" fromJunction="J6" toJunction="J0" end="7000" vehsPerHour="54.96000000000001"/>
  <flow id="JF1096" begin="6000" fromJunction="J6" toJunction="J3" end="7000" vehsPerHour="54.96000000000001"/>
  <flow id="JF1097" begin="6000" fromJunction="J6" toJunction="J4" end="7000" vehsPerHour="54.96000000000001"/>
  <flow id="JF1098" begin="6000" fromJunction="J6" toJunction="J5" end="7000" vehsPerHour="54.96000000000001"/>
  <flow id="JF1099" begin="6000" fromJunction="J6" toJunction="J7" end="7000" vehsPerHour="54.96000000000001"/>
  <flow id="JF1100" begin="6000" fromJunction="J7" toJunction="J0" end="7000" vehsPerHour="54.96000000000001"/>
  <flow id="JF1101" begin="6000" fromJunction="J7" toJunction="J3" end="7000" vehsPerHour="54.96000000000001"/>
  <flow id="JF1102" begin="6000" fromJunction="J7" toJunction="J4" end="7000" vehsPerHour="54.96000000000001"/>
  <flow id="JF1103" begin="6000" fromJunction="J7" toJunction="J5" end="7000" vehsPerHour="54.96000000000001"/>
  <flow id="JF1104" begin="6000" fromJunction="J7" toJunction="J6" end="7000" vehsPerHour="54.96000000000001"/>
  <flow id="JF1105" begin="6000" fromJunction="J0" toJunction="J7" end="7000" vehsPerHour="1374.0"/>
  <flow id="JF1106" begin="6000" fromJunction="J0" toJunction="J3" end="7000" vehsPerHour="343.5"/>
  <flow id="JF1107" begin="6000" fromJunction="J0" toJunction="J4" end="7000" vehsPerHour="343.5"/>
  <flow id="JF1108" begin="6000" fromJunction="J0" toJunction="J5" end="7000" vehsPerHour="343.5"/>
  <flow id="JF1109" begin="6000" fromJunction="J0" toJunction="J6" end="7000" vehsPerHour="343.5"/>
  <flow id="JF1110" begin="7000" fromJunction="J3" toJunction="J0" end="8000" vehsPerHour="109.92000000000002"/>
  <flow id="JF1111" begin="7000" fromJunction="J3" toJunction="J4" end="8000" vehsPerHour="109.92000000000002"/>
  <flow id="JF1112" begin="7000" fromJunction="J3" toJunction="J5" end="8000" vehsPerHour="109.92000000000002"/>
  <flow id="JF1113" begin="7000" fromJunction="J3" toJunction="J6" end="8000" vehsPerHour="109.92000000000002"/>
  <flow id="JF1114" begin="7000" fromJunction="J3" toJunction="J7" end="8000" vehsPerHour="109.92000000000002"/>
  <flow id="JF1115" begin="7000" fromJunction="J4" toJunction="J6" end="8000" vehsPerHour="687.0"/>
  <flow id="JF1116" begin="7000" fromJunction="J4" toJunction="J0" end="8000" vehsPerHour="171.75"/>
  <flow id="JF1117" begin="7000" fromJunction="J4" toJunction="J3" end="8000" vehsPerHour="171.75"/>
  <flow id="JF1118" begin="7000" fromJunction="J4" toJunction="J5" end="8000" vehsPerHour="171.75"/>
  <flow id="JF1119" begin="7000" fromJunction="J4" toJunction="J7" end="8000" vehsPerHour="171.75"/>
  <flow id="JF1120" begin="7000" fromJunction="J5" toJunction="J6" end="8000" vehsPerHour="687.0"/>
  <flow id="JF1121" begin="7000" fromJunction="J5" toJunction="J0" end="8000" vehsPerHour="171.75"/>
  <flow id="JF1122" begin="7000" fromJunction="J5" toJunction="J3" end="8000" vehsPerHour="171.75"/>
  <flow id="JF1123" begin="7000" fromJunction="J5" toJunction="J4" end="8000" vehsPerHour="171.75"/>
  <flow id="JF1124" begin="7000" fromJunction="J5" toJunction="J7" end="8000" vehsPerHour="171.75"/>
  <flow id="JF1125" begin="7000" fromJunction="J6" toJunction="J0" end="8000" vehsPerHour="54.96000000000001"/>
  <flow id="JF1126" begin="7000" fromJunction="J6" toJunction="J3" end="8000" vehsPerHour="54.96000000000001"/>
  <flow id="JF1127" begin="7000" fromJunction="J6" toJunction="J4" end="8000" vehsPerHour="54.96000000000001"/>
  <flow id="JF1128" begin="7000" fromJunction="J6" toJunction="J5" end="8000" vehsPerHour="54.96000000000001"/>
  <flow id="JF1129" begin="7000" fromJunction="J6" toJunction="J7" end="8000" vehsPerHour="54.96000000000001"/>
  <flow id="JF1130" begin="7000" fromJunction="J7" toJunction="J4" end="8000" vehsPerHour="687.0"/>
  <flow id="JF1131" begin="7000" fromJunction="J7" toJunction="J0" end="8000" vehsPerHour="171.75"/>
  <flow id="JF1132" begin="7000" fromJunction="J7" toJunction="J3" end="8000" vehsPerHour="171.75"/>
  <flow id="JF1133" begin="7000" fromJunction="J7" toJunction="J5" end="8000" vehsPerHour="171.75"/>
  <flow id="JF1134" begin="7000" fromJunction="J7" toJunction="J6" end="8000" vehsPerHour="171.75"/>
  <flow id="JF1135" begin="7000" fromJunction="J0" toJunction="J3" end="8000" vehsPerHour="109.92000000000002"/>
  <flow id="JF1136" begin="7000" fromJunction="J0" toJunction="J4" end="8000" vehsPerHour="109.92000000000002"/>
  <flow id="JF1137" begin="7000" fromJunction="J0" toJunction="J5" end="8000" vehsPerHour="109.92000000000002"/>
  <flow id="JF1138" begin="7000" fromJunction="J0" toJunction="J6" end="8000" vehsPerHour="109.92000000000002"/>
  <flow id="JF1139" begin="7000" fromJunction="J0" toJunction="J7" end="8000" vehsPerHour="109.92000000000002"/>
  <flow id="JF1140" begin="8000" fromJunction="J3" toJunction="J0" end="9000" vehsPerHour="109.92000000000002"/>
  <flow id="JF1141" begin="8000" fromJunction="J3" toJunction="J4" end="9000" vehsPerHour="109.92000000000002"/>
  <flow id="JF1142" begin="8000" fromJunction="J3" toJunction="J5" end="9000" vehsPerHour="109.92000000000002"/>
  <flow id="JF1143" begin="8000" fromJunction="J3" toJunction="J6" end="9000" vehsPerHour="109.92000000000002"/>
  <flow id="JF1144" begin="8000" fromJunction="J3" toJunction="J7" end="9000" vehsPerHour="109.92000000000002"/>
  <flow id="JF1145" begin="8000" fromJunction="J4" toJunction="J0" end="9000" vehsPerHour="687.0"/>
  <flow id="JF1146" begin="8000" fromJunction="J4" toJunction="J3" end="9000" vehsPerHour="171.75"/>
  <flow id="JF1147" begin="8000" fromJunction="J4" toJunction="J5" end="9000" vehsPerHour="171.75"/>
  <flow id="JF1148" begin="8000" fromJunction="J4" toJunction="J6" end="9000" vehsPerHour="171.75"/>
  <flow id="JF1149" begin="8000" fromJunction="J4" toJunction="J7" end="9000" vehsPerHour="171.75"/>
  <flow id="JF1150" begin="8000" fromJunction="J5" toJunction="J7" end="9000" vehsPerHour="687.0"/>
  <flow id="JF1151" begin="8000" fromJunction="J5" toJunction="J0" end="9000" vehsPerHour="171.75"/>
  <flow id="JF1152" begin="8000" fromJunction="J5" toJunction="J3" end="9000" vehsPerHour="171.75"/>
  <flow id="JF1153" begin="8000" fromJunction="J5" toJunction="J4" end="9000" vehsPerHour="171.75"/>
  <flow id="JF1154" begin="8000" fromJunction="J5" toJunction="J6" end="9000" vehsPerHour="171.75"/>
  <flow id="JF1155" begin="8000" fromJunction="J6" toJunction="J0" end="9000" vehsPerHour="54.96000000000001"/>
  <flow id="JF1156" begin="8000" fromJunction="J6" toJunction="J3" end="9000" vehsPerHour="54.96000000000001"/>
  <flow id="JF1157" begin="8000" fromJunction="J6" toJunction="J4" end="9000" vehsPerHour="54.96000000000001"/>
  <flow id="JF1158" begin="8000" fromJunction="J6" toJunction="J5" end="9000" vehsPerHour="54.96000000000001"/>
  <flow id="JF1159" begin="8000" fromJunction="J6" toJunction="J7" end="9000" vehsPerHour="54.96000000000001"/>
  <flow id="JF1160" begin="8000" fromJunction="J7" toJunction="J0" end="9000" vehsPerHour="54.96000000000001"/>
  <flow id="JF1161" begin="8000" fromJunction="J7" toJunction="J3" end="9000" vehsPerHour="54.96000000000001"/>
  <flow id="JF1162" begin="8000" fromJunction="J7" toJunction="J4" end="9000" vehsPerHour="54.96000000000001"/>
  <flow id="JF1163" begin="8000" fromJunction="J7" toJunction="J5" end="9000" vehsPerHour="54.96000000000001"/>
  <flow id="JF1164" begin="8000" fromJunction="J7" toJunction="J6" end="9000" vehsPerHour="54.96000000000001"/>
  <flow id="JF1165" begin="8000" fromJunction="J0" toJunction="J6" end="9000" vehsPerHour="1374.0"/>
  <flow id="JF1166" begin="8000" fromJunction="J0" toJunction="J3" end="9000" vehsPerHour="343.5"/>
  <flow id="JF1167" begin="8000" fromJunction="J0" toJunction="J4" end="9000" vehsPerHour="343.5"/>
  <flow id="JF1168" begin="8000" fromJunction="J0" toJunction="J5" end="9000" vehsPerHour="343.5"/>
  <flow id="JF1169" begin="8000" fromJunction="J0" toJunction="J7" end="9000" vehsPerHour="343.5"/>
  <flow id="JF1170" begin="9000" fromJunction="J3" toJunction="J0" end="10000" vehsPerHour="109.92000000000002"/>
  <flow id="JF1171" begin="9000" fromJunction="J3" toJunction="J4" end="10000" vehsPerHour="109.92000000000002"/>
  <flow id="JF1172" begin="9000" fromJunction="J3" toJunction="J5" end="10000" vehsPerHour="109.92000000000002"/>
  <flow id="JF1173" begin="9000" fromJunction="J3" toJunction="J6" end="10000" vehsPerHour="109.92000000000002"/>
  <flow id="JF1174" begin="9000" fromJunction="J3" toJunction="J7" end="10000" vehsPerHour="109.92000000000002"/>
  <flow id="JF1175" begin="9000" fromJunction="J4" toJunction="J0" end="10000" vehsPerHour="54.96000000000001"/>
  <flow id="JF1176" begin="9000" fromJunction="J4" toJunction="J3" end="10000" vehsPerHour="54.96000000000001"/>