<?xml version="1.0" encoding="UTF-8"?>
<routes xmlns:xsi="http://www.w3.org/2001/XMLSchema-instance" xsi:noNamespaceSchemaLocation="http://sumo.dlr.de/xsd/routes_file.xsd">
  <flow id="JF750" begin="0" fromJunction="J3" toJunction="J0" end="3600" vehsPerHour="109.92000000000002"/>
  <flow id="JF751" begin="0" fromJunction="J3" toJunction="J4" end="3600" vehsPerHour="109.92000000000002"/>
  <flow id="JF752" begin="0" fromJunction="J3" toJunction="J5" end="3600" vehsPerHour="109.92000000000002"/>
  <flow id="JF753" begin="0" fromJunction="J3" toJunction="J6" end="3600" vehsPerHour="109.92000000000002"/>
  <flow id="JF754" begin="0" fromJunction="J3" toJunction="J7" end="3600" vehsPerHour="109.92000000000002"/>
  <flow id="JF755" begin="0" fromJunction="J4" toJunction="J0" end="3600" vehsPerHour="54.96000000000001"/>
  <flow id="JF756" begin="0" fromJunction="J4" toJunction="J3" end="3600" vehsPerHour="54.96000000000001"/>
  <flow id="JF757" begin="0" fromJunction="J4" toJunction="J5" end="3600" vehsPerHour="54.96000000000001"/>
  <flow id="JF758" begin="0" fromJunction="J4" toJunction="J6" end="3600" vehsPerHour="54.96000000000001"/>
  <flow id="JF759" begin="0" fromJunction="J4" toJunction="J7" end="3600" vehsPerHour="54.96000000000001"/>
  <flow id="JF760" begin="0" fromJunction="J5" toJunction="J3" end="3600" vehsPerHour="687.0"/>
  <flow id="JF761" begin="0" fromJunction="J5" toJunction="J0" end="3600" vehsPerHour="171.75"/>
  <flow id="JF762" begin="0" fromJunction="J5" toJunction="J4" end="3600" vehsPerHour="171.75"/>
  <flow id="JF763" begin="0" fromJunction="J5" toJunction="J6" end="3600" vehsPerHour="171.75"/>
  <flow id="JF764" begin="0" fromJunction="J5" toJunction="J7" end="3600" vehsPerHour="171.75"/>
  <flow id="JF765" begin="0" fromJunction="J6" toJunction="J0" end="3600" vehsPerHour="54.96000000000001"/>
  <flow id="JF766" begin="0" fromJunction="J6" toJunction="J3" end="3600" vehsPerHour="54.96000000000001"/>
  <flow id="JF767" begin="0" fromJunction="J6" toJunction="J4" end="3600" vehsPerHour="54.96000000000001"/>
  <flow id="JF768" begin="0" fromJunction="J6" toJunction="J5" end="3600" vehsPerHour="54.96000000000001"/>
  <flow id="JF769" begin="0" fromJunction="J6" toJunction="J7" end="3600" vehsPerHour="54.96000000000001"/>
  <flow id="JF770" begin="0" fromJunction="J7" toJunction="J0" end="3600" vehsPerHour="54.96000000000001"/>
  <flow id="JF771" begin="0" fromJunction="J7" toJunction="J3" end="3600" vehsPerHour="54.96000000000001"/>
  <flow id="JF772" begin="0" fromJunction="J7" toJunction="J4" end="3600" vehsPerHour="54.96000000000001"/>
  <flow id="JF773" begin="0" fromJunction="J7" toJunction="J5" end="3600" vehsPerHour="54.96000000000001"/>
  <flow id="JF774" begin="0" fromJunction="J7" toJunction="J6" end="3600" vehsPerHour="54.96000000000001"/>
  <flow id="JF775" begin="0" fromJunction="J0" toJunction="J3" end="3600" vehsPerHour="109.92000000000002"/>
  <flow id="JF776" begin="0" fromJunction="J0" toJunction="J4" end="3600" vehsPerHour="109.92000000000002"/>
  <flow id="JF777" begin="0" fromJunction="J0" toJunction="J5" end="3600" vehsPerHour="109.92000000000002"/>
  <flow id="JF778" begin="0" fromJunction="J0" toJunction="J6" end="3600" vehsPerHour="109.92000000000002"/>
  <flow id="JF779" begin="0" fromJunction="J0" toJunction="J7" end="3600" vehsPerHour="109.92000000000002"/>
  <flow id="JF780" begin="10000" fromJunction="J3" toJunction="J0" end="13600" vehsPerHour="109.92000000000002"/>
  <flow id="JF781" begin="10000" fromJunction="J3" toJunction="J4" end="13600" vehsPerHour="109.92000000000002"/>
  <flow id="JF782" begin="10000" fromJunction="J3" toJunction="J5" end="13600" vehsPerHour="109.92000000000002"/>
  <flow id="JF783" begin="10000" fromJunction="J3" toJunction="J6" end="13600" vehsPerHour="109.92000000000002"/>
  <flow id="JF784" begin="10000" fromJunction="J3" toJunction="J7" end="13600" vehsPerHour="109.92000000000002"/>
  <flow id="JF785" begin="10000" fromJunction="J4" toJunction="J0" end="13600" vehsPerHour="687.0"/>
  <flow id="JF786" begin="10000" fromJunction="J4" toJunction="J3" end="13600" vehsPerHour="171.75"/>
  <flow id="JF787" begin="10000" fromJunction="J4" toJunction="J5" end="13600" vehsPerHour="171.75"/>
  <flow id="JF788" begin="10000" fromJunction="J4" toJunction="J6" end="13600" vehsPerHour="171.75"/>
  <flow id="JF789" begin="10000" fromJunction="J4" toJunction="J7" end="13600" vehsPerHour="171.75"/>
  <flow id="JF790" begin="10000" fromJunction="J5" toJunction="J0" end="13600" vehsPerHour="54.96000000000001"/>
  <flow id="JF791" begin="10000" fromJunction="J5" toJunction="J3" end="13600" vehsPerHour="54.96000000000001"/>
  <flow id="JF792" begin="10000" fromJunction="J5" toJunction="J4" end="13600" vehsPerHour="54.96000000000001"/>
  <flow id="JF793" begin="10000" fromJunction="J5" toJunction="J6" end="13600" vehsPerHour="54.96000000000001"/>
  <flow id="JF794" begin="10000" fromJunction="J5" toJunction="J7" end="13600" vehsPerHour="54.96000000000001"/>
  <flow id="JF795" begin="10000" fromJunction="J6" toJunction="J0" end="13600" vehsPerHour="54.96000000000001"/>
  <flow id="JF796" begin="10000" fromJunction="J6" toJunction="J3" end="13600" vehsPerHour="54.96000000000001"/>
  <flow id="JF797" begin="10000" fromJunction="J6" toJunction="J4" end="13600" vehsPerHour="54.96000000000001"/>
  <flow id="JF798" begin="10000" fromJunction="J6" toJunction="J5" end="13600" vehsPerHour="54.96000000000001"/>
  <flow id="JF799" begin="10000" fromJunction="J6" toJunction="J7" end="13600" vehsPerHour="54.96000000000001"/>
  <flow id="JF800" begin="10000" fromJunction="J7" toJunction="J0" end="13600" vehsPerHour="54.96000000000001"/>
  <flow id="JF801" begin="10000" fromJunction="J7" toJunction="J3" end="13600" vehsPerHour="54.96000000000001"/>
  <flow id="JF802" begin="10000" fromJunction="J7" toJunction="J4" end="13600" vehsPerHour="54.96000000000001"/>
  <flow id="JF803" begin="10000" fromJunction="J7" toJunction="J5" end="13600" vehsPerHour="54.96000000000001"/>
  <flow id="JF804" begin="10000" fromJunction="J7" toJunction="J6" end="13600" vehsPerHour="54.96000000000001"/>
  <flow id="JF805" begin="10000" fromJunction="J0" toJunction="J3" end="13600" vehsPerHour="109.92000000000002"/>
  <flow id="JF806" begin="10000" fromJunction="J0" toJunction="J4" end="13600" vehsPerHour="109.92000000000002"/>
  <flow id="JF807" begin="10000" fromJunction="J0" toJunction="J5" end="13600" vehsPerHour="109.92000000000002"/>
  <flow id="JF808" begin="10000" fromJunction="J0" toJunction="J6" end="13600" vehsPerHour="109.92000000000002"/>
  <flow id="JF809" begin="10000" fromJunction="J0" toJunction="J7" end="13600" vehsPerHour="109.92000000000002"/>
  <flow id="JF810" begin="20000" fromJunction="J3" toJunction="J0" end="23600" vehsPerHour="109.92000000000002"/>
  <flow id="JF811" begin="20000" fromJunction="J3" toJunction="J4" end="23600" vehsPerHour="109.92000000000002"/>
  <flow id="JF812" begin="20000" fromJunction="J3" toJunction="J5" end="23600" vehsPerHour="109.92000000000002"/>
  <flow id="JF813" begin="20000" fromJunction="J3" toJunction="J6" end="23600" vehsPerHour="109.92000000000002"/>
  <flow id="JF814" begin="20000" fromJunction="J3" toJunction="J7" end="23600" vehsPerHour="109.92000000000002"/>
  <flow id="JF815" begin="20000" fromJunction="J4" toJunction="J0" end="23600" vehsPerHour="54.96000000000001"/>
  <flow id="JF816" begin="20000" fromJunction="J4" toJunction="J3" end="23600" vehsPerHour="54.96000000000001"/>
  <flow id="JF817" begin="20000" fromJunction="J4" toJunction="J5" end="23600" vehsPerHour="54.96000000000001"/>
  <flow id="JF818" begin="20000" fromJunction="J4" toJunction="J6" end="23600" vehsPerHour="54.96000000000001"/>
  <flow id="JF819" begin="20000" fromJunction="J4" toJunction="J7" end="23600" vehsPerHour="54.96000000000001"/>
  <flow id="JF820" begin="20000" fromJunction="J5" toJunction="J0" end="23600" vehsPerHour="54.96000000000001"/>
  <flow id="JF821" begin="20000" fromJunction="J5" toJunction="J3" end="23600" vehsPerHour="54.96000000000001"/>
  <flow id="JF822" begin="20000" fromJunction="J5" toJunction="J4" end="23600" vehsPerHour="54.96000000000001"/>
  <flow id="JF823" begin="20000" fromJunction="J5" toJunction="J6" end="23600" vehsPerHour="54.96000000000001"/>
  <flow id="JF824" begin="20000" fromJunction="J5" toJunction="J7" end="23600" vehsPerHour="54.96000000000001"/>
  <flow id="JF825" begin="20000" fromJunction="J6" toJunction="J0" end="23600" vehsPerHour="54.96000000000001"/>
  <flow id="JF826" begin="20000" fromJunction="J6" toJunction="J3" end="23600" vehsPerHour="54.96000000000001"/>
  <flow id="JF827" begin="20000" fromJunction="J6" toJunction="J4" end="23600" vehsPerHour="54.96000000000001"/>
  <flow id="JF828" begin="20000" fromJunction="J6" toJunction="J5" end="23600" vehsPerHour="54.96000000000001"/>
  <flow id="JF829" begin="20000" fromJunction="J6" toJunction="J7" end="23600" vehsPerHour="54.96000000000001"/>
  <flow id="JF830" begin="20000" fromJunction="J7" toJunction="J5" end="23600" vehsPerHour="687.0"/>
  <flow id="JF831" begin="20000" fromJunction="J7" toJunction="J0" end="23600" vehsPerHour="171.75"/>
  <flow id="JF832" begin="20000" fromJunction="J7" toJunction="J3" end="23600" vehsPerHour="171.75"/>
  <flow id="JF833" begin="20000" fromJunction="J7" toJunction="J4" end="23600" vehsPerHour="171.75"/>
  <flow id="JF834" begin="20000" fromJunction="J7" toJunction="J6" end="23600" vehsPerHour="171.75"/>
  <flow id="JF835" begin="20000" fromJunction="J0" toJunction="J3" end="23600" vehsPerHour="109.92000000000002"/>
  <flow id="JF836" begin="20000" fromJunction="J0" toJunction="J4" end="23600" vehsPerHour="109.92000000000002"/>
  <flow id="JF837" begin="20000" fromJunction="J0" toJunction="J5" end="23600" vehsPerHour="109.92000000000002"/>
  <flow id="JF838" begin="20000" fromJunction="J0" toJunction="J6" end="23600" vehsPerHour="109.92000000000002"/>
  <flow id="JF839" begin="20000" fromJunction="J0" toJunction="J7" end="23600" vehsPerHour="109.92000000000002"/>
  <flow id="JF840" begin="30000" fromJunction="J3" toJunction="J0" end="33600" vehsPerHour="109.92000000000002"/>
  <flow id="JF841" begin="30000" fromJunction="J3" toJunction="J4" end="33600" vehsPerHour="109.92000000000002"/>
  <flow id="JF842" begin="30000" fromJunction="J3" toJunction="J5" end="33600" vehsPerHour="109.92000000000002"/>
  <flow id="JF843" begin="30000" fromJunction="J3" toJunction="J6" end="33600" vehsPerHour="109.92000000000002"/>
  <flow id="JF844" begin="30000" fromJunction="J3" toJunction="J7" end="33600" vehsPerHour="109.92000000000002"/>
  <flow id="JF845" begin="30000" fromJunction="J4" toJunction="J0" end="33600" vehsPerHour="54.96000000000001"/>
  <flow id="JF846" begin="30000" fromJunction="J4" toJunction="J3" end="33600" vehsPerHour="54.96000000000001"/>
  <flow id="JF847" begin="30000" fromJunction="J4" toJunction="J5" end="33600" vehsPerHour="54.96000000000001"/>
  <flow id="JF848" begin="30000" fromJunction="J4" toJunction="J6" end="33600" vehsPerHour="54.96000000000001"/>
  <flow id="JF849" begin="30000" fromJunction="J4" toJunction="J7" end="33600" vehsPerHour="54.96000000000001"/>
  <flow id="JF850" begin="30000" fromJunction="J5" toJunction="J0" end="33600" vehsPerHour="54.96000000000001"/>
  <flow id="JF851" begin="30000" fromJunction="J5" toJunction="J3" end="33600" vehsPerHour="54.96000000000001"/>
  <flow id="JF852" begin="30000" fromJunction="J5" toJunction="J4" end="33600" vehsPerHour="54.96000000000001"/>
  <flow id="JF853" begin="30000" fromJunction="J5" toJunction="J6" end="33600" vehsPerHour="54.96000000000001"/>
  <flow id="JF854" begin="30000" fromJunction="J5" toJunction="J7" end="33600" vehsPerHour="54.96000000000001"/>
  <flow id="JF855" begin="30000" fromJunction="J6" toJunction="J0" end="33600" vehsPerHour="54.96000000000001"/>
  <flow id="JF856" begin="30000" fromJunction="J6" toJunction="J3" end="33600" vehsPerHour="54.96000000000001"/>
  <flow id="JF857" begin="30000" fromJunction="J6" toJunction="J4" end="33600" vehsPerHour="54.96000000000001"/>
  <flow id="JF858" begin="30000" fromJunction="J6" toJunction="J5" end="33600" vehsPerHour="54.96000000000001"/>
  <flow id="JF859" begin="30000" fromJunction="J6" toJunction="J7" end="33600" vehsPerHour="54.96000000000001"/>
  <flow id="JF860" begin="30000" fromJunction="J7" toJunction="J5" end="33600" vehsPerHour="687.0"/>
  <flow id="JF861" begin="30000" fromJunction="J7" toJunction="J0" end="33600" vehsPerHour="171.75"/>
  <flow id="JF862" begin="30000" fromJunction="J7" toJunction="J3" end="33600" vehsPerHour="171.75"/>
  <flow id="JF863" begin="30000" fromJunction="J7" toJunction="J4" end="33600" vehsPerHour="171.75"/>
  <flow id="JF864" begin="30000" fromJunction="J7" toJunction="J6" end="33600" vehsPerHour="171.75"/>
  <flow id="JF865" begin="30000" fromJunction="J0" toJunction="J3" end="33600" vehsPerHour="109.92000000000002"/>
  <flow id="JF866" begin="30000" fromJunction="J0" toJunction="J4" end="33600" vehsPerHour="109.92000000000002"/>
  <flow id="JF867" begin="30000" fromJunction="J0" toJunction="J5" end="33600" vehsPerHour="109.92000000000002"/>
  <flow id="JF868" begin="30000" fromJunction="J0" toJunction="J6" end="33600" vehsPerHour="109.92000000000002"/>
  <flow id="JF869" begin="30000" fromJunction="J0" toJunction="J7" end="33600" vehsPerHour="109.92000000000002"/>
  <flow id="JF870" begin="40000" fromJunction="J3" toJunction="J0" end="43600" vehsPerHour="109.92000000000002"/>
  <flow id="JF871" begin="40000" fromJunction="J3" toJunction="J4" end="43600" vehsPerHour="109.92000000000002"/>
  <flow id="JF872" begin="40000" fromJunction="J3" toJunction="J5" end="43600" vehsPerHour="109.92000000000002"/>
  <flow id="JF873" begin="40000" fromJunction="J3" toJunction="J6" end="43600" vehsPerHour="109.92000000000002"/>
  <flow id="JF874" begin="40000" fromJunction="J3" toJunction="J7" end="43600" vehsPerHour="109.92000000000002"/>
  <flow id="JF875" begin="40000" fromJunction="J4" toJunction="J0" end="43600" vehsPerHour="54.96000000000001"/>
  <flow id="JF876" begin="40000" fromJunction="J4" toJunction="J3" end="43600" vehsPerHour="54.96000000000001"/>
  <flow id="JF877" begin="40000" fromJunction="J4" toJunction="J5" end="43600" vehsPerHour="54.96000000000001"/>
  <flow id="JF878" begin="40000" fromJunction="J4" toJunction="J6" end="43600" vehsPerHour="54.96000000000001"/>
  <flow id="JF879" begin="40000" fromJunction="J4" toJunction="J7" end="43600" vehsPerHour="54.96000000000001"/>
  <flow id="JF880" begin="40000" fromJunction="J5" toJunction="J4" end="43600" vehsPerHour="687.0"/>
  <flow id="JF881" begin="40000" fromJunction="J5" toJunction="J0" end="43600" vehsPerHour="171.75"/>
  <flow id="JF882" begin="40000" fromJunction="J5" toJunction="J3" end="43600" vehsPerHour="171.75"/>
  <flow id="JF883" begin="40000" fromJunction="J5" toJunction="J6" end="43600" vehsPerHour="171.75"/>
  <flow id="JF884" begin="40000" fromJunction="J5" toJunction="J7" end="43600" vehsPerHour="171.75"/>
  <flow id="JF885" begin="40000" fromJunction="J6" toJunction="J0" end="43600" vehsPerHour="54.96000000000001"/>
  <flow id="JF886" begin="40000" fromJunction="J6" toJunction="J3" end="43600" vehsPerHour="54.96000000000001"/>
  <flow id="JF887" begin="40000" fromJunction="J6" toJunction="J4" end="43600" vehsPerHour="54.96000000000001"/>
  <flow id="JF888" begin="40000" fromJunction="J6" toJunction="J5" end="43600" vehsPerHour="54.96000000000001"/>
  <flow id="JF889" begin="40000" fromJunction="J6" toJunction="J7" end="43600" vehsPerHour="54.96000000000001"/>
  <flow id="JF890" begin="40000" fromJunction="J7" toJunction="J0" end="43600" vehsPerHour="54.96000000000001"/>
  <flow id="JF891" begin="40000" fromJunction="J7" toJunction="J3" end="43600" vehsPerHour="54.96000000000001"/>
  <flow id="JF892" begin="40000" fromJunction="J7" toJunction="J4" end="43600" vehsPerHour="54.96000000000001"/>
  <flow id="JF893" begin="40000" fromJunction="J7" toJunction="J5" end="43600" vehsPerHour="54.96000000000001"/>
  <flow id="JF894" begin="40000" fromJunction="J7" toJunction="J6" end="43600" vehsPerHour="54.96000000000001"/>
  <flow id="JF895" begin="40000" fromJunction="J0" toJunction="J3" end="43600" vehsPerHour="109.92000000000002"/>
  <flow id="JF896" begin="40000" fromJunction="J0" toJunction="J4" end="43600" vehsPerHour="109.92000000000002"/>
  <flow id="JF897" begin="40000" fromJunction="J0" toJunction="J5" end="43600" vehsPerHour="109.92000000000002"/>
  <flow id="JF898" begin="40000" fromJunction="J0" toJunction="J6" end="43600" vehsPerHour="109.92000000000002"/>
  <flow id="JF899" begin="40000" fromJunction="J0" toJunction="J7" end="43600" vehsPerHour="109.92000000000002"/>
</routes>