<?xml version="1.0" encoding="UTF-8"?>
<routes xmlns:xsi="http://www.w3.org/2001/XMLSchema-instance" xsi:noNamespaceSchemaLocation="http://sumo.dlr.de/xsd/routes_file.xsd">
  <flow id="JF1050" begin="0" fromJunction="J3" toJunction="J0" end="3600" vehsPerHour="109.92000000000002"/>
  <flow id="JF1051" begin="0" fromJunction="J3" toJunction="J4" end="3600" vehsPerHour="109.92000000000002"/>
  <flow id="JF1052" begin="0" fromJunction="J3" toJunction="J5" end="3600" vehsPerHour="109.92000000000002"/>
  <flow id="JF1053" begin="0" fromJunction="J3" toJunction="J6" end="3600" vehsPerHour="109.92000000000002"/>
  <flow id="JF1054" begin="0" fromJunction="J3" toJunction="J7" end="3600" vehsPerHour="109.92000000000002"/>
  <flow id="JF1055" begin="0" fromJunction="J4" toJunction="J0" end="3600" vehsPerHour="54.96000000000001"/>
  <flow id="JF1056" begin="0" fromJunction="J4" toJunction="J3" end="3600" vehsPerHour="54.96000000000001"/>
  <flow id="JF1057" begin="0" fromJunction="J4" toJunction="J5" end="3600" vehsPerHour="54.96000000000001"/>
  <flow id="JF1058" begin="0" fromJunction="J4" toJunction="J6" end="3600" vehsPerHour="54.96000000000001"/>
  <flow id="JF1059" begin="0" fromJunction="J4" toJunction="J7" end="3600" vehsPerHour="54.96000000000001"/>
  <flow id="JF1060" begin="0" fromJunction="J5" toJunction="J0" end="3600" vehsPerHour="54.96000000000001"/>
  <flow id="JF1061" begin="0" fromJunction="J5" toJunction="J3" end="3600" vehsPerHour="54.96000000000001"/>
  <flow id="JF1062" begin="0" fromJunction="J5" toJunction="J4" end="3600" vehsPerHour="54.96000000000001"/>
  <flow id="JF1063" begin="0" fromJunction="J5" toJunction="J6" end="3600" vehsPerHour="54.96000000000001"/>
  <flow id="JF1064" begin="0" fromJunction="J5" toJunction="J7" end="3600" vehsPerHour="54.96000000000001"/>
  <flow id="JF1065" begin="0" fromJunction="J6" toJunction="J5" end="3600" vehsPerHour="687.0"/>
  <flow id="JF1066" begin="0" fromJunction="J6" toJunction="J0" end="3600" vehsPerHour="171.75"/>
  <flow id="JF1067" begin="0" fromJunction="J6" toJunction="J3" end="3600" vehsPerHour="171.75"/>
  <flow id="JF1068" begin="0" fromJunction="J6" toJunction="J4" end="3600" vehsPerHour="171.75"/>
  <flow id="JF1069" begin="0" fromJunction="J6" toJunction="J7" end="3600" vehsPerHour="171.75"/>
  <flow id="JF1070" begin="0" fromJunction="J7" toJunction="J0" end="3600" vehsPerHour="54.96000000000001"/>
  <flow id="JF1071" begin="0" fromJunction="J7" toJunction="J3" end="3600" vehsPerHour="54.96000000000001"/>
  <flow id="JF1072" begin="0" fromJunction="J7" toJunction="J4" end="3600" vehsPerHour="54.96000000000001"/>
  <flow id="JF1073" begin="0" fromJunction="J7" toJunction="J5" end="3600" vehsPerHour="54.96000000000001"/>
  <flow id="JF1074" begin="0" fromJunction="J7" toJunction="J6" end="3600" vehsPerHour="54.96000000000001"/>
  <flow id="JF1075" begin="0" fromJunction="J0" toJunction="J3" end="3600" vehsPerHour="109.92000000000002"/>
  <flow id="JF1076" begin="0" fromJunction="J0" toJunction="J4" end="3600" vehsPerHour="109.92000000000002"/>
  <flow id="JF1077" begin="0" fromJunction="J0" toJunction="J5" end="3600" vehsPerHour="109.92000000000002"/>
  <flow id="JF1078" begin="0" fromJunction="J0" toJunction="J6" end="3600" vehsPerHour="109.92000000000002"/>
  <flow id="JF1079" begin="0" fromJunction="J0" toJunction="J7" end="3600" vehsPerHour="109.92000000000002"/>
  <flow id="JF1080" begin="10000" fromJunction="J3" toJunction="J0" end="13600" vehsPerHour="109.92000000000002"/>
  <flow id="JF1081" begin="10000" fromJunction="J3" toJunction="J4" end="13600" vehsPerHour="109.92000000000002"/>
  <flow id="JF1082" begin="10000" fromJunction="J3" toJunction="J5" end="13600" vehsPerHour="109.92000000000002"/>
  <flow id="JF1083" begin="10000" fromJunction="J3" toJunction="J6" end="13600" vehsPerHour="109.92000000000002"/>
  <flow id="JF1084" begin="10000" fromJunction="J3" toJunction="J7" end="13600" vehsPerHour="109.92000000000002"/>
  <flow id="JF1085" begin="10000" fromJunction="J4" toJunction="J0" end="13600" vehsPerHour="54.96000000000001"/>
  <flow id="JF1086" begin="10000" fromJunction="J4" toJunction="J3" end="13600" vehsPerHour="54.96000000000001"/>
  <flow id="JF1087" begin="10000" fromJunction="J4" toJunction="J5" end="13600" vehsPerHour="54.96000000000001"/>
  <flow id="JF1088" begin="10000" fromJunction="J4" toJunction="J6" end="13600" vehsPerHour="54.96000000000001"/>
  <flow id="JF1089" begin="10000" fromJunction="J4" toJunction="J7" end="13600" vehsPerHour="54.96000000000001"/>
  <flow id="JF1090" begin="10000" fromJunction="J5" toJunction="J0" end="13600" vehsPerHour="54.96000000000001"/>
  <flow id="JF1091" begin="10000" fromJunction="J5" toJunction="J3" end="13600" vehsPerHour="54.96000000000001"/>
  <flow id="JF1092" begin="10000" fromJunction="J5" toJunction="J4" end="13600" vehsPerHour="54.96000000000001"/>
  <flow id="JF1093" begin="10000" fromJunction="J5" toJunction="J6" end="13600" vehsPerHour="54.96000000000001"/>
  <flow id="JF1094" begin="10000" fromJunction="J5" toJunction="J7" end="13600" vehsPerHour="54.96000000000001"/>
  <flow id="JF1095" begin="10000" fromJunction="J6" toJunction="J0" end="13600" vehsPerHour="54.96000000000001"/>
  <flow id="JF1096" begin="10000" fromJunction="J6" toJunction="J3" end="13600" vehsPerHour="54.96000000000001"/>
  <flow id="JF1097" begin="10000" fromJunction="J6" toJunction="J4" end="13600" vehsPerHour="54.96000000000001"/>
  <flow id="JF1098" begin="10000" fromJunction="J6" toJunction="J5" end="13600" vehsPerHour="54.96000000000001"/>
  <flow id="JF1099" begin="10000" fromJunction="J6" toJunction="J7" end="13600" vehsPerHour="54.96000000000001"/>
  <flow id="JF1100" begin="10000" fromJunction="J7" toJunction="J0" end="13600" vehsPerHour="54.96000000000001"/>
  <flow id="JF1101" begin="10000" fromJunction="J7" toJunction="J3" end="13600" vehsPerHour="54.96000000000001"/>
  <flow id="JF1102" begin="10000" fromJunction="J7" toJunction="J4" end="13600" vehsPerHour="54.96000000000001"/>
  <flow id="JF1103" begin="10000" fromJunction="J7" toJunction="J5" end="13600" vehsPerHour="54.96000000000001"/>
  <flow id="JF1104" begin="10000" fromJunction="J7" toJunction="J6" end="13600" vehsPerHour="54.96000000000001"/>
  <flow id="JF1105" begin="10000" fromJunction="J0" toJunction="J6" end="13600" vehsPerHour="1374.0"/>
  <flow id="JF1106" begin="10000" fromJunction="J0" toJunction="J3" end="13600" vehsPerHour="343.5"/>
  <flow id="JF1107" begin="10000" fromJunction="J0" toJunction="J4" end="13600" vehsPerHour="343.5"/>
  <flow id="JF1108" begin="10000" fromJunction="J0" toJunction="J5" end="13600" vehsPerHour="343.5"/>
  <flow id="JF1109" begin="10000" fromJunction="J0" toJunction="J7" end="13600" vehsPerHour="343.5"/>
  <flow id="JF1110" begin="20000" fromJunction="J3" toJunction="J0" end="23600" vehsPerHour="109.92000000000002"/>
  <flow id="JF1111" begin="20000" fromJunction="J3" toJunction="J4" end="23600" vehsPerHour="109.92000000000002"/>
  <flow id="JF1112" begin="20000" fromJunction="J3" toJunction="J5" end="23600" vehsPerHour="109.92000000000002"/>
  <flow id="JF1113" begin="20000" fromJunction="J3" toJunction="J6" end="23600" vehsPerHour="109.92000000000002"/>
  <flow id="JF1114" begin="20000" fromJunction="J3" toJunction="J7" end="23600" vehsPerHour="109.92000000000002"/>
  <flow id="JF1115" begin="20000" fromJunction="J4" toJunction="J0" end="23600" vehsPerHour="54.96000000000001"/>
  <flow id="JF1116" begin="20000" fromJunction="J4" toJunction="J3" end="23600" vehsPerHour="54.96000000000001"/>
  <flow id="JF1117" begin="20000" fromJunction="J4" toJunction="J5" end="23600" vehsPerHour="54.96000000000001"/>
  <flow id="JF1118" begin="20000" fromJunction="J4" toJunction="J6" end="23600" vehsPerHour="54.96000000000001"/>
  <flow id="JF1119" begin="20000" fromJunction="J4" toJunction="J7" end="23600" vehsPerHour="54.96000000000001"/>
  <flow id="JF1120" begin="20000" fromJunction="J5" toJunction="J0" end="23600" vehsPerHour="54.96000000000001"/>
  <flow id="JF1121" begin="20000" fromJunction="J5" toJunction="J3" end="23600" vehsPerHour="54.96000000000001"/>
  <flow id="JF1122" begin="20000" fromJunction="J5" toJunction="J4" end="23600" vehsPerHour="54.96000000000001"/>
  <flow id="JF1123" begin="20000" fromJunction="J5" toJunction="J6" end="23600" vehsPerHour="54.96000000000001"/>
  <flow id="JF1124" begin="20000" fromJunction="J5" toJunction="J7" end="23600" vehsPerHour="54.96000000000001"/>
  <flow id="JF1125" begin="20000" fromJunction="J6" toJunction="J0" end="23600" vehsPerHour="54.96000000000001"/>
  <flow id="JF1126" begin="20000" fromJunction="J6" toJunction="J3" end="23600" vehsPerHour="54.96000000000001"/>
  <flow id="JF1127" begin="20000" fromJunction="J6" toJunction="J4" end="23600" vehsPerHour="54.96000000000001"/>
  <flow id="JF1128" begin="20000" fromJunction="J6" toJunction="J5" end="23600" vehsPerHour="54.96000000000001"/>
  <flow id="JF1129" begin="20000" fromJunction="J6" toJunction="J7" end="23600" vehsPerHour="54.96000000000001"/>
  <flow id="JF1130" begin="20000" fromJunction="J7" toJunction="J6" end="23600" vehsPerHour="687.0"/>
  <flow id="JF1131" begin="20000" fromJunction="J7" toJunction="J0" end="23600" vehsPerHour="171.75"/>
  <flow id="JF1132" begin="20000" fromJunction="J7" toJunction="J3" end="23600" vehsPerHour="171.75"/>
  <flow id="JF1133" begin="20000" fromJunction="J7" toJunction="J4" end="23600" vehsPerHour="171.75"/>
  <flow id="JF1134" begin="20000" fromJunction="J7" toJunction="J5" end="23600" vehsPerHour="171.75"/>
  <flow id="JF1135" begin="20000" fromJunction="J0" toJunction="J3" end="23600" vehsPerHour="109.92000000000002"/>
  <flow id="JF1136" begin="20000" fromJunction="J0" toJunction="J4" end="23600" vehsPerHour="109.92000000000002"/>
  <flow id="JF1137" begin="20000" fromJunction="J0" toJunction="J5" end="23600" vehsPerHour="109.92000000000002"/>
  <flow id="JF1138" begin="20000" fromJunction="J0" toJunction="J6" end="23600" vehsPerHour="109.92000000000002"/>
  <flow id="JF1139" begin="20000" fromJunction="J0" toJunction="J7" end="23600" vehsPerHour="109.92000000000002"/>
  <flow id="JF1140" begin="30000" fromJunction="J3" toJunction="J0" end="33600" vehsPerHour="109.92000000000002"/>
  <flow id="JF1141" begin="30000" fromJunction="J3" toJunction="J4" end="33600" vehsPerHour="109.92000000000002"/>
  <flow id="JF1142" begin="30000" fromJunction="J3" toJunction="J5" end="33600" vehsPerHour="109.92000000000002"/>
  <flow id="JF1143" begin="30000" fromJunction="J3" toJunction="J6" end="33600" vehsPerHour="109.92000000000002"/>
  <flow id="JF1144" begin="30000" fromJunction="J3" toJunction="J7" end="33600" vehsPerHour="109.92000000000002"/>
  <flow id="JF1145" begin="30000" fromJunction="J4" toJunction="J0" end="33600" vehsPerHour="54.96000000000001"/>
  <flow id="JF1146" begin="30000" fromJunction="J4" toJunction="J3" end="33600" vehsPerHour="54.96000000000001"/>
  <flow id="JF1147" begin="30000" fromJunction="J4" toJunction="J5" end="33600" vehsPerHour="54.96000000000001"/>
  <flow id="JF1148" begin="30000" fromJunction="J4" toJunction="J6" end="33600" vehsPerHour="54.96000000000001"/>
  <flow id="JF1149" begin="30000" fromJunction="J4" toJunction="J7" end="33600" vehsPerHour="54.96000000000001"/>
  <flow id="JF1150" begin="30000" fromJunction="J5" toJunction="J0" end="33600" vehsPerHour="54.96000000000001"/>
  <flow id="JF1151" begin="30000" fromJunction="J5" toJunction="J3" end="33600" vehsPerHour="54.96000000000001"/>
  <flow id="JF1152" begin="30000" fromJunction="J5" toJunction="J4" end="33600" vehsPerHour="54.96000000000001"/>
  <flow id="JF1153" begin="30000" fromJunction="J5" toJunction="J6" end="33600" vehsPerHour="54.96000000000001"/>
  <flow id="JF1154" begin="30000" fromJunction="J5" toJunction="J7" end="33600" vehsPerHour="54.96000000000001"/>
  <flow id="JF1155" begin="30000" fromJunction="J6" toJunction="J4" end="33600" vehsPerHour="687.0"/>
  <flow id="JF1156" begin="30000" fromJunction="J6" toJunction="J0" end="33600" vehsPerHour="171.75"/>
  <flow id="JF1157" begin="30000" fromJunction="J6" toJunction="J3" end="33600" vehsPerHour="171.75"/>
  <flow id="JF1158" begin="30000" fromJunction="J6" toJunction="J5" end="33600" vehsPerHour="171.75"/>
  <flow id="JF1159" begin="30000" fromJunction="J6" toJunction="J7" end="33600" vehsPerHour="171.75"/>
  <flow id="JF1160" begin="30000" fromJunction="J7" toJunction="J0" end="33600" vehsPerHour="54.96000000000001"/>
  <flow id="JF1161" begin="30000" fromJunction="J7" toJunction="J3" end="33600" vehsPerHour="54.96000000000001"/>
  <flow id="JF1162" begin="30000" fromJunction="J7" toJunction="J4" end="33600" vehsPerHour="54.96000000000001"/>
  <flow id="JF1163" begin="30000" fromJunction="J7" toJunction="J5" end="33600" vehsPerHour="54.96000000000001"/>
  <flow id="JF1164" begin="30000" fromJunction="J7" toJunction="J6" end="33600" vehsPerHour="54.96000000000001"/>
  <flow id="JF1165" begin="30000" fromJunction="J0" toJunction="J3" end="33600" vehsPerHour="109.92000000000002"/>
  <flow id="JF1166" begin="30000" fromJunction="J0" toJunction="J4" end="33600" vehsPerHour="109.92000000000002"/>
  <flow id="JF1167" begin="30000" fromJunction="J0" toJunction="J5" end="33600" vehsPerHour="109.92000000000002"/>
  <flow id="JF1168" begin="30000" fromJunction="J0" toJunction="J6" end="33600" vehsPerHour="109.92000000000002"/>
  <flow id="JF1169" begin="30000" fromJunction="J0" toJunction="J7" end="33600" vehsPerHour="109.92000000000002"/>
  <flow id="JF1170" begin="40000" fromJunction="J3" toJunction="J0" end="43600" vehsPerHour="1374.0"/>
  <flow id="JF1171" begin="40000" fromJunction="J3" toJunction="J4" end="43600" vehsPerHour="343.5"/>
  <flow id="JF1172" begin="40000" fromJunction="J3" toJunction="J5" end="43600" vehsPerHour="343.5"/>
  <flow id="JF1173" begin="40000" fromJunction="J3" toJunction="J6" end="43600" vehsPerHour="343.5"/>
  <flow id="JF1174" begin="40000" fromJunction="J3" toJunction="J7" end="43600" vehsPerHour="343.5"/>
  <flow id="JF1175" begin="40000" fromJunction="J4" toJunction="J0" end="43600" vehsPerHour="54.96000000000001"/>
  <flow id="JF1176" begin="40000" fromJunction="J4" toJunction="J3" end="43600" vehsPerHour="54.96000000000001"/>
  <flow id="JF1177" begin="40000" fromJunction="J4" toJunction="J5" end="43600" vehsPerHour="54.96000000000001"/>
  <flow id="JF1178" begin="40000" fromJunction="J4" toJunction="J6" end="43600" vehsPerHour="54.96000000000001"/>
  <flow id="JF1179" begin="40000" fromJunction="J4" toJunction="J7" end="43600" vehsPerHour="54.96000000000001"/>
  <flow id="JF1180" begin="40000" fromJunction="J5" toJunction="J0" end="43600" vehsPerHour="54.96000000000001"/>
  <flow id="JF1181" begin="40000" fromJunction="J5" toJunction="J3" end="43600" vehsPerHour="54.96000000000001"/>
  <flow id="JF1182" begin="40000" fromJunction="J5" toJunction="J4" end="43600" vehsPerHour="54.96000000000001"/>
  <flow id="JF1183" begin="40000" fromJunction="J5" toJunction="J6" end="43600" vehsPerHour="54.96000000000001"/>
  <flow id="JF1184" begin="40000" fromJunction="J5" toJunction="J7" end="43600" vehsPerHour="54.96000000000001"/>
  <flow id="JF1185" begin="40000" fromJunction="J6" toJunction="J0" end="43600" vehsPerHour="54.96000000000001"/>
  <flow id="JF1186" begin="40000" fromJunction="J6" toJunction="J3" end="43600" vehsPerHour="54.96000000000001"/>
  <flow id="JF1187" begin="40000" fromJunction="J6" toJunction="J4" end="43600" vehsPerHour="54.96000000000001"/>
  <flow id="JF1188" begin="40000" fromJunction="J6" toJunction="J5" end="43600" vehsPerHour="54.96000000000001"/>
  <flow id="JF1189" begin="40000" fromJunction="J6" toJunction="J7" end="43600" vehsPerHour="54.96000000000001"/>
  <flow id="JF1190" begin="40000" fromJunction="J7" toJunction="J0" end="43600" vehsPerHour="54.96000000000001"/>
  <flow id="JF1191" begin="40000" fromJunction="J7" toJunction="J3" end="43600" vehsPerHour="54.96000000000001"/>
  <flow id="JF1192" begin="40000" fromJunction="J7" toJunction="J4" end="43600" vehsPerHour="54.96000000000001"/>
  <flow id="JF1193" begin="40000" fromJunction="J7" toJunction="J5" end="43600" vehsPerHour="54.96000000000001"/>
  <flow id="JF1194" begin="40000" fromJunction="J7" toJunction="J6" end="43600" vehsPerHour="54.96000000000001"/>
  <flow id="JF1195" begin="40000" fromJunction="J0" toJunction="J3" end="43600" vehsPerHour="109.92000000000002"/>
  <flow id="JF1196" begin="40000" fromJunction="J0" toJunction="J4" end="43600" vehsPerHour="109.92000000000002"/>
  <flow id="JF1197" begin="40000" fromJunction="J0" toJunction="J5" end="43600" vehsPerHour="109.92000000000002"/>
  <flow id="JF1198" begin="40000" fromJunction="J0" toJunction="J6" end="43600" vehsPerHour="109.92000000000002"/>
  <flow id="JF1199" begin="40000" fromJunction="J0" toJunction="J7" end="43600" vehsPerHour="109.92000000000002"/>
</routes>