<?xml version="1.0" encoding="UTF-8"?>
<routes xmlns:xsi="http://www.w3.org/2001/XMLSchema-instance" xsi:noNamespaceSchemaLocation="http://sumo.dlr.de/xsd/routes_file.xsd">
  <flow id="JF0" begin="0" fromJunction="J3" toJunction="J6" end="1000" vehsPerHour="1374.0"/>
  <flow id="JF1" begin="0" fromJunction="J3" toJunction="J0" end="1000" vehsPerHour="343.5"/>
  <flow id="JF2" begin="0" fromJunction="J3" toJunction="J4" end="1000" vehsPerHour="343.5"/>
  <flow id="JF3" begin="0" fromJunction="J3" toJunction="J5" end="1000" vehsPerHour="343.5"/>
  <flow id="JF4" begin="0" fromJunction="J3" toJunction="J7" end="1000" vehsPerHour="343.5"/>
  <flow id="JF5" begin="0" fromJunction="J4" toJunction="J7" end="1000" vehsPerHour="687.0"/>
  <flow id="JF6" begin="0" fromJunction="J4" toJunction="J0" end="1000" vehsPerHour="171.75"/>
  <flow id="JF7" begin="0" fromJunction="J4" toJunction="J3" end="1000" vehsPerHour="171.75"/>
  <flow id="JF8" begin="0" fromJunction="J4" toJunction="J5" end="1000" vehsPerHour="171.75"/>
  <flow id="JF9" begin="0" fromJunction="J4" toJunction="J6" end="1000" vehsPerHour="171.75"/>
  <flow id="JF10" begin="0" fromJunction="J5" toJunction="J0" end="1000" vehsPerHour="54.96000000000001"/>
  <flow id="JF11" begin="0" fromJunction="J5" toJunction="J3" end="1000" vehsPerHour="54.96000000000001"/>
  <flow id="JF12" begin="0" fromJunction="J5" toJunction="J4" end="1000" vehsPerHour="54.96000000000001"/>
  <flow id="JF13" begin="0" fromJunction="J5" toJunction="J6" end="1000" vehsPerHour="54.96000000000001"/>
  <flow id="JF14" begin="0" fromJunction="J5" toJunction="J7" end="1000" vehsPerHour="54.96000000000001"/>
  <flow id="JF15" begin="0" fromJunction="J6" toJunction="J3" end="1000" vehsPerHour="687.0"/>
  <flow id="JF16" begin="0" fromJunction="J6" toJunction="J0" end="1000" vehsPerHour="171.75"/>
  <flow id="JF17" begin="0" fromJunction="J6" toJunction="J4" end="1000" vehsPerHour="171.75"/>
  <flow id="JF18" begin="0" fromJunction="J6" toJunction="J5" end="1000" vehsPerHour="171.75"/>
  <flow id="JF19" begin="0" fromJunction="J6" toJunction="J7" end="1000" vehsPerHour="171.75"/>
  <flow id="JF20" begin="0" fromJunction="J7" toJunction="J0" end="1000" vehsPerHour="54.96000000000001"/>
  <flow id="JF21" begin="0" fromJunction="J7" toJunction="J3" end="1000" vehsPerHour="54.96000000000001"/>
  <flow id="JF22" begin="0" fromJunction="J7" toJunction="J4" end="1000" vehsPerHour="54.96000000000001"/>
  <flow id="JF23" begin="0" fromJunction="J7" toJunction="J5" end="1000" vehsPerHour="54.96000000000001"/>
  <flow id="JF24" begin="0" fromJunction="J7" toJunction="J6" end="1000" vehsPerHour="54.96000000000001"/>
  <flow id="JF25" begin="0" fromJunction="J0" toJunction="J3" end="1000" vehsPerHour="109.92000000000002"/>
  <flow id="JF26" begin="0" fromJunction="J0" toJunction="J4" end="1000" vehsPerHour="109.92000000000002"/>
  <flow id="JF27" begin="0" fromJunction="J0" toJunction="J5" end="1000" vehsPerHour="109.92000000000002"/>
  <flow id="JF28" begin="0" fromJunction="J0" toJunction="J6" end="1000" vehsPerHour="109.92000000000002"/>
  <flow id="JF29" begin="0" fromJunction="J0" toJunction="J7" end="1000" vehsPerHour="109.92000000000002"/>
  <flow id="JF30" begin="1000" fromJunction="J3" toJunction="J0" end="2000" vehsPerHour="109.92000000000002"/>
  <flow id="JF31" begin="1000" fromJunction="J3" toJunction="J4" end="2000" vehsPerHour="109.92000000000002"/>
  <flow id="JF32" begin="1000" fromJunction="J3" toJunction="J5" end="2000" vehsPerHour="109.92000000000002"/>
  <flow id="JF33" begin="1000" fromJunction="J3" toJunction="J6" end="2000" vehsPerHour="109.92000000000002"/>
  <flow id="JF34" begin="1000" fromJunction="J3" toJunction="J7" end="2000" vehsPerHour="109.92000000000002"/>
  <flow id="JF35" begin="1000" fromJunction="J4" toJunction="J6" end="2000" vehsPerHour="687.0"/>
  <flow id="JF36" begin="1000" fromJunction="J4" toJunction="J0" end="2000" vehsPerHour="171.75"/>
  <flow id="JF37" begin="1000" fromJunction="J4" toJunction="J3" end="2000" vehsPerHour="171.75"/>
  <flow id="JF38" begin="1000" fromJunction="J4" toJunction="J5" end="2000" vehsPerHour="171.75"/>
  <flow id="JF39" begin="1000" fromJunction="J4" toJunction="J7" end="2000" vehsPerHour="171.75"/>
  <flow id="JF40" begin="1000" fromJunction="J5" toJunction="J0" end="2000" vehsPerHour="499.6363636363636"/>
  <flow id="JF41" begin="1000" fromJunction="J5" toJunction="J4" end="2000" vehsPerHour="499.6363636363636"/>
  <flow id="JF42" begin="1000" fromJunction="J5" toJunction="J3" end="2000" vehsPerHour="124.9090909090909"/>
  <flow id="JF43" begin="1000" fromJunction="J5" toJunction="J6" end="2000" vehsPerHour="124.9090909090909"/>
  <flow id="JF44" begin="1000" fromJunction="J5" toJunction="J7" end="2000" vehsPerHour="124.9090909090909"/>
  <flow id="JF45" begin="1000" fromJunction="J6" toJunction="J0" end="2000" vehsPerHour="54.96000000000001"/>
  <flow id="JF46" begin="1000" fromJunction="J6" toJunction="J3" end="2000" vehsPerHour="54.96000000000001"/>
  <flow id="JF47" begin="1000" fromJunction="J6" toJunction="J4" end="2000" vehsPerHour="54.96000000000001"/>
  <flow id="JF48" begin="1000" fromJunction="J6" toJunction="J5" end="2000" vehsPerHour="54.96000000000001"/>
  <flow id="JF49" begin="1000" fromJunction="J6" toJunction="J7" end="2000" vehsPerHour="54.96000000000001"/>
  <flow id="JF50" begin="1000" fromJunction="J7" toJunction="J0" end="2000" vehsPerHour="54.96000000000001"/>
  <flow id="JF51" begin="1000" fromJunction="J7" toJunction="J3" end="2000" vehsPerHour="54.96000000000001"/>
  <flow id="JF52" begin="1000" fromJunction="J7" toJunction="J4" end="2000" vehsPerHour="54.96000000000001"/>
  <flow id="JF53" begin="1000" fromJunction="J7" toJunction="J5" end="2000" vehsPerHour="54.96000000000001"/>
  <flow id="JF54" begin="1000" fromJunction="J7" toJunction="J6" end="2000" vehsPerHour="54.96000000000001"/>
  <flow id="JF55" begin="1000" fromJunction="J0" toJunction="J3" end="2000" vehsPerHour="109.92000000000002"/>
  <flow id="JF56" begin="1000" fromJunction="J0" toJunction="J4" end="2000" vehsPerHour="109.92000000000002"/>
  <flow id="JF57" begin="1000" fromJunction="J0" toJunction="J5" end="2000" vehsPerHour="109.92000000000002"/>
  <flow id="JF58" begin="1000" fromJunction="J0" toJunction="J6" end="2000" vehsPerHour="109.92000000000002"/>
  <flow id="JF59" begin="1000" fromJunction="J0" toJunction="J7" end="2000" vehsPerHour="109.92000000000002"/>
  <flow id="JF60" begin="2000" fromJunction="J3" toJunction="J6" end="3000" vehsPerHour="1374.0"/>
  <flow id="JF61" begin="2000" fromJunction="J3" toJunction="J0" end="3000" vehsPerHour="343.5"/>
  <flow id="JF62" begin="2000" fromJunction="J3" toJunction="J4" end="3000" vehsPerHour="343.5"/>
  <flow id="JF63" begin="2000" fromJunction="J3" toJunction="J5" end="3000" vehsPerHour="343.5"/>
  <flow id="JF64" begin="2000" fromJunction="J3" toJunction="J7" end="3000" vehsPerHour="343.5"/>
  <flow id="JF65" begin="2000" fromJunction="J4" toJunction="J3" end="3000" vehsPerHour="687.0"/>
  <flow id="JF66" begin="2000" fromJunction="J4" toJunction="J0" end="3000" vehsPerHour="171.75"/>
  <flow id="JF67" begin="2000" fromJunction="J4" toJunction="J5" end="3000" vehsPerHour="171.75"/>
  <flow id="JF68" begin="2000" fromJunction="J4" toJunction="J6" end="3000" vehsPerHour="171.75"/>
  <flow id="JF69" begin="2000" fromJunction="J4" toJunction="J7" end="3000" vehsPerHour="171.75"/>
  <flow id="JF70" begin="2000" fromJunction="J5" toJunction="J7" end="3000" vehsPerHour="687.0"/>
  <flow id="JF71" begin="2000" fromJunction="J5" toJunction="J0" end="3000" vehsPerHour="171.75"/>
  <flow id="JF72" begin="2000" fromJunction="J5" toJunction="J3" end="3000" vehsPerHour="171.75"/>
  <flow id="JF73" begin="2000" fromJunction="J5" toJunction="J4" end="3000" vehsPerHour="171.75"/>
  <flow id="JF74" begin="2000" fromJunction="J5" toJunction="J6" end="3000" vehsPerHour="171.75"/>
  <flow id="JF75" begin="2000" fromJunction="J6" toJunction="J0" end="3000" vehsPerHour="54.96000000000001"/>
  <flow id="JF76" begin="2000" fromJunction="J6" toJunction="J3" end="3000" vehsPerHour="54.96000000000001"/>
  <flow id="JF77" begin="2000" fromJunction="J6" toJunction="J4" end="3000" vehsPerHour="54.96000000000001"/>
  <flow id="JF78" begin="2000" fromJunction="J6" toJunction="J5" end="3000" vehsPerHour="54.96000000000001"/>
  <flow id="JF79" begin="2000" fromJunction="J6" toJunction="J7" end="3000" vehsPerHour="54.96000000000001"/>
  <flow id="JF80" begin="2000" fromJunction="J7" toJunction="J0" end="3000" vehsPerHour="54.96000000000001"/>
  <flow id="JF81" begin="2000" fromJunction="J7" toJunction="J3" end="3000" vehsPerHour="54.96000000000001"/>
  <flow id="JF82" begin="2000" fromJunction="J7" toJunction="J4" end="3000" vehsPerHour="54.96000000000001"/>
  <flow id="JF83" begin="2000" fromJunction="J7" toJunction="J5" end="3000" vehsPerHour="54.96000000000001"/>
  <flow id="JF84" begin="2000" fromJunction="J7" toJunction="J6" end="3000" vehsPerHour="54.96000000000001"/>
  <flow id="JF85" begin="2000" fromJunction="J0" toJunction="J3" end="3000" vehsPerHour="109.92000000000002"/>
  <flow id="JF86" begin="2000" fromJunction="J0" toJunction="J4" end="3000" vehsPerHour="109.92000000000002"/>
  <flow id="JF87" begin="2000" fromJunction="J0" toJunction="J5" end="3000" vehsPerHour="109.92000000000002"/>
  <flow id="JF88" begin="2000" fromJunction="J0" toJunction="J6" end="3000" vehsPerHour="109.92000000000002"/>
  <flow id="JF89" begin="2000" fromJunction="J0" toJunction="J7" end="3000" vehsPerHour="109.92000000000002"/>
  <flow id="JF90" begin="3000" fromJunction="J3" toJunction="J0" end="4000" vehsPerHour="109.92000000000002"/>
  <flow id="JF91" begin="3000" fromJunction="J3" toJunction="J4" end="4000" vehsPerHour="109.92000000000002"/>
  <flow id="JF92" begin="3000" fromJunction="J3" toJunction="J5" end="4000" vehsPerHour="109.92000000000002"/>
  <flow id="JF93" begin="3000" fromJunction="J3" toJunction="J6" end="4000" vehsPerHour="109.92000000000002"/>
  <flow id="JF94" begin="3000" fromJunction="J3" toJunction="J7" end="4000" vehsPerHour="109.92000000000002"/>
  <flow id="JF95" begin="3000" fromJunction="J4" toJunction="J0" end="4000" vehsPerHour="54.96000000000001"/>
  <flow id="JF96" begin="3000" fromJunction="J4" toJunction="J3" end="4000" vehsPerHour="54.96000000000001"/>
  <flow id="JF97" begin="3000" fromJunction="J4" toJunction="J5" end="4000" vehsPerHour="54.96000000000001"/>
  <flow id="JF98" begin="3000" fromJunction="J4" toJunction="J6" end="4000" vehsPerHour="54.96000000000001"/>
  <flow id="JF99" begin="3000" fromJunction="J4" toJunction="J7" end="4000" vehsPerHour="54.96000000000001"/>
  <flow id="JF100" begin="3000" fromJunction="J5" toJunction="J6" end="4000" vehsPerHour="499.6363636363636"/>
  <flow id="JF101" begin="3000" fromJunction="J5" toJunction="J4" end="4000" vehsPerHour="499.6363636363636"/>
  <flow id="JF102" begin="3000" fromJunction="J5" toJunction="J0" end="4000" vehsPerHour="124.9090909090909"/>
  <flow id="JF103" begin="3000" fromJunction="J5" toJunction="J3" end="4000" vehsPerHour="124.9090909090909"/>
  <flow id="JF104" begin="3000" fromJunction="J5" toJunction="J7" end="4000" vehsPerHour="124.9090909090909"/>
  <flow id="JF105" begin="3000" fromJunction="J6" toJunction="J0" end="4000" vehsPerHour="54.96000000000001"/>
  <flow id="JF106" begin="3000" fromJunction="J6" toJunction="J3" end="4000" vehsPerHour="54.96000000000001"/>
  <flow id="JF107" begin="3000" fromJunction="J6" toJunction="J4" end="4000" vehsPerHour="54.96000000000001"/>
  <flow id="JF108" begin="3000" fromJunction="J6" toJunction="J5" end="4000" vehsPerHour="54.96000000000001"/>
  <flow id="JF109" begin="3000" fromJunction="J6" toJunction="J7" end="4000" vehsPerHour="54.96000000000001"/>
  <flow id="JF110" begin="3000" fromJunction="J7" toJunction="J0" end="4000" vehsPerHour="54.96000000000001"/>
  <flow id="JF111" begin="3000" fromJunction="J7" toJunction="J3" end="4000" vehsPerHour="54.96000000000001"/>
  <flow id="JF112" begin="3000" fromJunction="J7" toJunction="J4" end="4000" vehsPerHour="54.96000000000001"/>
  <flow id="JF113" begin="3000" fromJunction="J7" toJunction="J5" end="4000" vehsPerHour="54.96000000000001"/>
  <flow id="JF114" begin="3000" fromJunction="J7" toJunction="J6" end="4000" vehsPerHour="54.96000000000001"/>
  <flow id="JF115" begin="3000" fromJunction="J0" toJunction="J4" end="4000" vehsPerHour="1374.0"/>
  <flow id="JF116" begin="3000" fromJunction="J0" toJunction="J3" end="4000" vehsPerHour="343.5"/>
  <flow id="JF117" begin="3000" fromJunction="J0" toJunction="J5" end="4000" vehsPerHour="343.5"/>
  <flow id="JF118" begin="3000" fromJunction="J0" toJunction="J6" end="4000" vehsPerHour="343.5"/>
  <flow id="JF119" begin="3000" fromJunction="J0" toJunction="J7" end="4000" vehsPerHour="343.5"/>
  <flow id="JF120" begin="4000" fromJunction="J3" toJunction="J0" end="5000" vehsPerHour="999.2727272727273"/>
  <flow id="JF121" begin="4000" fromJunction="J3" toJunction="J7" end="5000" vehsPerHour="999.2727272727273"/>
  <flow id="JF122" begin="4000" fromJunction="J3" toJunction="J4" end="5000" vehsPerHour="249.8181818181818"/>
  <flow id="JF123" begin="4000" fromJunction="J3" toJunction="J5" end="5000" vehsPerHour="249.8181818181818"/>
  <flow id="JF124" begin="4000" fromJunction="J3" toJunction="J6" end="5000" vehsPerHour="249.8181818181818"/>
  <flow id="JF125" begin="4000" fromJunction="J4" toJunction="J0" end="5000" vehsPerHour="54.96000000000001"/>
  <flow id="JF126" begin="4000" fromJunction="J4" toJunction="J3" end="5000" vehsPerHour="54.96000000000001"/>
  <flow id="JF127" begin="4000" fromJunction="J4" toJunction="J5" end="5000" vehsPerHour="54.96000000000001"/>
  <flow id="JF128" begin="4000" fromJunction="J4" toJunction="J6" end="5000" vehsPerHour="54.96000000000001"/>
  <flow id="JF129" begin="4000" fromJunction="J4" toJunction="J7" end="5000" vehsPerHour="54.96000000000001"/>
  <flow id="JF130" begin="4000" fromJunction="J5" toJunction="J0" end="5000" vehsPerHour="687.0"/>
  <flow id="JF131" begin="4000" fromJunction="J5" toJunction="J3" end="5000" vehsPerHour="171.75"/>
  <flow id="JF132" begin="4000" fromJunction="J5" toJunction="J4" end="5000" vehsPerHour="171.75"/>
  <flow id="JF133" begin="4000" fromJunction="J5" toJunction="J6" end="5000" vehsPerHour="171.75"/>
  <flow id="JF134" begin="4000" fromJunction="J5" toJunction="J7" end="5000" vehsPerHour="171.75"/>
  <flow id="JF135" begin="4000" fromJunction="J6" toJunction="J0" end="5000" vehsPerHour="54.96000000000001"/>
  <flow id="JF136" begin="4000" fromJunction="J6" toJunction="J3" end="5000" vehsPerHour="54.96000000000001"/>
  <flow id="JF137" begin="4000" fromJunction="J6" toJunction="J4" end="5000" vehsPerHour="54.96000000000001"/>
  <flow id="JF138" begin="4000" fromJunction="J6" toJunction="J5" end="5000" vehsPerHour="54.96000000000001"/>
  <flow id="JF139" begin="4000" fromJunction="J6" toJunction="J7" end="5000" vehsPerHour="54.96000000000001"/>
  <flow id="JF140" begin="4000" fromJunction="J7" toJunction="J0" end="5000" vehsPerHour="54.96000000000001"/>
  <flow id="JF141" begin="4000" fromJunction="J7" toJunction="J3" end="5000" vehsPerHour="54.96000000000001"/>
  <flow id="JF142" begin="4000" fromJunction="J7" toJunction="J4" end="5000" vehsPerHour="54.96000000000001"/>
  <flow id="JF143" begin="4000" fromJunction="J7" toJunction="J5" end="5000" vehsPerHour="54.96000000000001"/>
  <flow id="JF144" begin="4000" fromJunction="J7" toJunction="J6" end="5000" vehsPerHour="54.96000000000001"/>
  <flow id="JF145" begin="4000" fromJunction="J0" toJunction="J3" end="5000" vehsPerHour="109.92000000000002"/>
  <flow id="JF146" begin="4000" fromJunction="J0" toJunction="J4" end="5000" vehsPerHour="109.92000000000002"/>
  <flow id="JF147" begin="4000" fromJunction="J0" toJunction="J5" end="5000" vehsPerHour="109.92000000000002"/>
  <flow id="JF148" begin="4000" fromJunction="J0" toJunction="J6" end="5000" vehsPerHour="109.92000000000002"/>
  <flow id="JF149" begin="4000" fromJunction="J0" toJunction="J7" end="5000" vehsPerHour="109.92000000000002"/>
  <flow id="JF150" begin="5000" fromJunction="J3" toJunction="J0" end="6000" vehsPerHour="109.92000000000002"/>
  <flow id="JF151" begin="5000" fromJunction="J3" toJunction="J4" end="6000" vehsPerHour="109.92000000000002"/>
  <flow id="JF152" begin="5000" fromJunction="J3" toJunction="J5" end="6000" vehsPerHour="109.92000000000002"/>
  <flow id="JF153" begin="5000" fromJunction="J3" toJunction="J6" end="6000" vehsPerHour="109.92000000000002"/>
  <flow id="JF154" begin="5000" fromJunction="J3" toJunction="J7" end="6000" vehsPerHour="109.92000000000002"/>
  <flow id="JF155" begin="5000" fromJunction="J4" toJunction="J5" end="6000" vehsPerHour="687.0"/>
  <flow id="JF156" begin="5000" fromJunction="J4" toJunction="J0" end="6000" vehsPerHour="171.75"/>
  <flow id="JF157" begin="5000" fromJunction="J4" toJunction="J3" end="6000" vehsPerHour="171.75"/>
  <flow id="JF158" begin="5000" fromJunction="J4" toJunction="J6" end="6000" vehsPerHour="171.75"/>
  <flow id="JF159" begin="5000" fromJunction="J4" toJunction="J7" end="6000" vehsPerHour="171.75"/>
  <flow id="JF160" begin="5000" fromJunction="J5" toJunction="J0" end="6000" vehsPerHour="54.96000000000001"/>
  <flow id="JF161" begin="5000" fromJunction="J5" toJunction="J3" end="6000" vehsPerHour="54.96000000000001"/>
  <flow id="JF162" begin="5000" fromJunction="J5" toJunction="J4" end="6000" vehsPerHour="54.96000000000001"/>
  <flow id="JF163" begin="5000" fromJunction="J5" toJunction="J6" end="6000" vehsPerHour="54.96000000000001"/>
  <flow id="JF164" begin="5000" fromJunction="J5" toJunction="J7" end="6000" vehsPerHour="54.96000000000001"/>
  <flow id="JF165" begin="5000" fromJunction="J6" toJunction="J0" end="6000" vehsPerHour="687.0"/>
  <flow id="JF166" begin="5000" fromJunction="J6" toJunction="J3" end="6000" vehsPerHour="171.75"/>
  <flow id="JF167" begin="5000" fromJunction="J6" toJunction="J4" end="6000" vehsPerHour="171.75"/>
  <flow id="JF168" begin="5000" fromJunction="J6" toJunction="J5" end="6000" vehsPerHour="171.75"/>
  <flow id="JF169" begin="5000" fromJunction="J6" toJunction="J7" end="6000" vehsPerHour="171.75"/>
  <flow id="JF170" begin="5000" fromJunction="J7" toJunction="J0" end="6000" vehsPerHour="687.0"/>
  <flow id="JF171" begin="5000" fromJunction="J7" toJunction="J3" end="6000" vehsPerHour="171.75"/>
  <flow id="JF172" begin="5000" fromJunction="J7" toJunction="J4" end="6000" vehsPerHour="171.75"/>
  <flow id="JF173" begin="5000" fromJunction="J7" toJunction="J5" end="6000" vehsPerHour="171.75"/>
  <flow id="JF174" begin="5000" fromJunction="J7" toJunction="J6" end="6000" vehsPerHour="171.75"/>
  <flow id="JF175" begin="5000" fromJunction="J0" toJunction="J3" end="6000" vehsPerHour="109.92000000000002"/>
  <flow id="JF176" begin="5000" fromJunction="J0" toJunction="J4" end="6000" vehsPerHour="109.92000000000002"/>
  <flow id="JF177" begin="5000" fromJunction="J0" toJunction="J5" end="6000" vehsPerHour="109.92000000000002"/>
  <flow id="JF178" begin="5000" fromJunction="J0" toJunction="J6" end="6000" vehsPerHour="109.92000000000002"/>
  <flow id="JF179" begin="5000" fromJunction="J0" toJunction="J7" end="6000" vehsPerHour="109.92000000000002"/>
  <flow id="JF180" begin="6000" fromJunction="J3" toJunction="J0" end="7000" vehsPerHour="109.92000000000002"/>
  <flow id="JF181" begin="6000" fromJunction="J3" toJunction="J4" end="7000" vehsPerHour="109.92000000000002"/>
  <flow id="JF182" begin="6000" fromJunction="J3" toJunction="J5" end="7000" vehsPerHour="109.92000000000002"/>
  <flow id="JF183" begin="6000" fromJunction="J3" toJunction="J6" end="7000" vehsPerHour="109.92000000000002"/>
  <flow id="JF184" begin="6000" fromJunction="J3" toJunction="J7" end="7000" vehsPerHour="109.92000000000002"/>
  <flow id="JF185" begin="6000" fromJunction="J4" toJunction="J3" end="7000" vehsPerHour="687.0"/>
  <flow id="JF186" begin="6000" fromJunction="J4" toJunction="J0" end="7000" vehsPerHour="171.75"/>
  <flow id="JF187" begin="6000" fromJunction="J4" toJunction="J5" end="7000" vehsPerHour="171.75"/>
  <flow id="JF188" begin="6000" fromJunction="J4" toJunction="J6" end="7000" vehsPerHour="171.75"/>
  <flow id="JF189" begin="6000" fromJunction="J4" toJunction="J7" end="7000" vehsPerHour="171.75"/>
  <flow id="JF190" begin="6000" fromJunction="J5" toJunction="J0" end="7000" vehsPerHour="54.96000000000001"/>
  <flow id="JF191" begin="6000" fromJunction="J5" toJunction="J3" end="7000" vehsPerHour="54.96000000000001"/>
  <flow id="JF192" begin="6000" fromJunction="J5" toJunction="J4" end="7000" vehsPerHour="54.96000000000001"/>
  <flow id="JF193" begin="6000" fromJunction="J5" toJunction="J6" end="7000" vehsPerHour="54.96000000000001"/>
  <flow id="JF194" begin="6000" fromJunction="J5" toJunction="J7" end="7000" vehsPerHour="54.96000000000001"/>
  <flow id="JF195" begin="6000" fromJunction="J6" toJunction="J5" end="7000" vehsPerHour="687.0"/>
  <flow id="JF196" begin="6000" fromJunction="J6" toJunction="J0" end="7000" vehsPerHour="171.75"/>
  <flow id="JF197" begin="6000" fromJunction="J6" toJunction="J3" end="7000" vehsPerHour="171.75"/>
  <flow id="JF198" begin="6000" fromJunction="J6" toJunction="J4" end="7000" vehsPerHour="171.75"/>
  <flow id="JF199" begin="6000" fromJunction="J6" toJunction="J7" end="7000" vehsPerHour="171.75"/>
  <flow id="JF200" begin="6000" fromJunction="J7" toJunction="J0" end="7000" vehsPerHour="687.0"/>
  <flow id="JF201" begin="6000" fromJunction="J7" toJunction="J3" end="7000" vehsPerHour="171.75"/>
  <flow id="JF202" begin="6000" fromJunction="J7" toJunction="J4" end="7000" vehsPerHour="171.75"/>
  <flow id="JF203" begin="6000" fromJunction="J7" toJunction="J5" end="7000" vehsPerHour="171.75"/>
  <flow id="JF204" begin="6000" fromJunction="J7" toJunction="J6" end="7000" vehsPerHour="171.75"/>
  <flow id="JF205" begin="6000" fromJunction="J0" toJunction="J3" end="7000" vehsPerHour="109.92000000000002"/>
  <flow id="JF206" begin="6000" fromJunction="J0" toJunction="J4" end="7000" vehsPerHour="109.92000000000002"/>
  <flow id="JF207" begin="6000" fromJunction="J0" toJunction="J5" end="7000" vehsPerHour="109.92000000000002"/>
  <flow id="JF208" begin="6000" fromJunction="J0" toJunction="J6" end="7000" vehsPerHour="109.92000000000002"/>
  <flow id="JF209" begin="6000" fromJunction="J0" toJunction="J7" end="7000" vehsPerHour="109.92000000000002"/>
  <flow id="JF210" begin="7000" fromJunction="J3" toJunction="J7" end="8000" vehsPerHour="1374.0"/>
  <flow id="JF211" begin="7000" fromJunction="J3" toJunction="J0" end="8000" vehsPerHour="343.5"/>
  <flow id="JF212" begin="7000" fromJunction="J3" toJunction="J4" end="8000" vehsPerHour="343.5"/>
  <flow id="JF213" begin="7000" fromJunction="J3" toJunction="J5" end="8000" vehsPerHour="343.5"/>
  <flow id="JF214" begin="7000" fromJunction="J3" toJunction="J6" end="8000" vehsPerHour="343.5"/>
  <flow id="JF215" begin="7000" fromJunction="J4" toJunction="J0" end="8000" vehsPerHour="54.96000000000001"/>
  <flow id="JF216" begin="7000" fromJunction="J4" toJunction="J3" end="8000" vehsPerHour="54.96000000000001"/>
  <flow id="JF217" begin="7000" fromJunction="J4" toJunction="J5" end="8000" vehsPerHour="54.96000000000001"/>
  <flow id="JF218" begin="7000" fromJunction="J4" toJunction="J6" end="8000" vehsPerHour="54.96000000000001"/>
  <flow id="JF219" begin="7000" fromJunction="J4" toJunction="J7" end="8000" vehsPerHour="54.96000000000001"/>
  <flow id="JF220" begin="7000" fromJunction="J5" toJunction="J0" end="8000" vehsPerHour="54.96000000000001"/>
  <flow id="JF221" begin="7000" fromJunction="J5" toJunction="J3" end="8000" vehsPerHour="54.96000000000001"/>
  <flow id="JF222" begin="7000" fromJunction="J5" toJunction="J4" end="8000" vehsPerHour="54.96000000000001"/>
  <flow id="JF223" begin="7000" fromJunction="J5" toJunction="J6" end="8000" vehsPerHour="54.96000000000001"/>
  <flow id="JF224" begin="7000" fromJunction="J5" toJunction="J7" end="8000" vehsPerHour="54.96000000000001"/>
  <flow id="JF225" begin="7000" fromJunction="J6" toJunction="J0" end="8000" vehsPerHour="687.0"/>
  <flow id="JF226" begin="7000" fromJunction="J6" toJunction="J3" end="8000" vehsPerHour="171.75"/>
  <flow id="JF227" begin="7000" fromJunction="J6" toJunction="J4" end="8000" vehsPerHour="171.75"/>
  <flow id="JF228" begin="7000" fromJunction="J6" toJunction="J5" end="8000" vehsPerHour="171.75"/>
  <flow id="JF229" begin="7000" fromJunction="J6" toJunction="J7" end="8000" vehsPerHour="171.75"/>
  <flow id="JF230" begin="7000" fromJunction="J7" toJunction="J6" end="8000" vehsPerHour="687.0"/>
  <flow id="JF231" begin="7000" fromJunction="J7" toJunction="J0" end="8000" vehsPerHour="171.75"/>
  <flow id="JF232" begin="7000" fromJunction="J7" toJunction="J3" end="8000" vehsPerHour="171.75"/>
  <flow id="JF233" begin="7000" fromJunction="J7" toJunction="J4" end="8000" vehsPerHour="171.75"/>
  <flow id="JF234" begin="7000" fromJunction="J7" toJunction="J5" end="8000" vehsPerHour="171.75"/>
  <flow id="JF235" begin="7000" fromJunction="J0" toJunction="J3" end="8000" vehsPerHour="109.92000000000002"/>
  <flow id="JF236" begin="7000" fromJunction="J0" toJunction="J4" end="8000" vehsPerHour="109.92000000000002"/>
  <flow id="JF237" begin="7000" fromJunction="J0" toJunction="J5" end="8000" vehsPerHour="109.92000000000002"/>
  <flow id="JF238" begin="7000" fromJunction="J0" toJunction="J6" end="8000" vehsPerHour="109.92000000000002"/>
  <flow id="JF239" begin="7000" fromJunction="J0" toJunction="J7" end="8000" vehsPerHour="109.92000000000002"/>
  <flow id="JF240" begin="8000" fromJunction="J3" toJunction="J0" end="9000" vehsPerHour="109.92000000000002"/>
  <flow id="JF241" begin="8000" fromJunction="J3" toJunction="J4" end="9000" vehsPerHour="109.92000000000002"/>
  <flow id="JF242" begin="8000" fromJunction="J3" toJunction="J5" end="9000" vehsPerHour="109.92000000000002"/>
  <flow id="JF243" begin="8000" fromJunction="J3" toJunction="J6" end="9000" vehsPerHour="109.92000000000002"/>
  <flow id="JF244" begin="8000" fromJunction="J3" toJunction="J7" end="9000" vehsPerHour="109.92000000000002"/>
  <flow id="JF245" begin="8000" fromJunction="J4" toJunction="J0" end="9000" vehsPerHour="687.0"/>
  <flow id="JF246" begin="8000" fromJunction="J4" toJunction="J3" end="9000" vehsPerHour="171.75"/>
  <flow id="JF247" begin="8000" fromJunction="J4" toJunction="J5" end="9000" vehsPerHour="171.75"/>
  <flow id="JF248" begin="8000" fromJunction="J4" toJunction="J6" end="9000" vehsPerHour="171.75"/>
  <flow id="JF249" begin="8000" fromJunction="J4" toJunction="J7" end="9000" vehsPerHour="171.75"/>
  <flow id="JF250" begin="8000" fromJunction="J5" toJunction="J3" end="9000" vehsPerHour="499.6363636363636"/>
  <flow id="JF251" begin="8000" fromJunction="J5" toJunction="J7" end="9000" vehsPerHour="499.6363636363636"/>
  <flow id="JF252" begin="8000" fromJunction="J5" toJunction="J0" end="9000" vehsPerHour="124.9090909090909"/>
  <flow id="JF253" begin="8000" fromJunction="J5" toJunction="J4" end="9000" vehsPerHour="124.9090909090909"/>
  <flow id="JF254" begin="8000" fromJunction="J5" toJunction="J6" end="9000" vehsPerHour="124.9090909090909"/>
  <flow id="JF255" begin="8000" fromJunction="J6" toJunction="J0" end="9000" vehsPerHour="54.96000000000001"/>
  <flow id="JF256" begin="8000" fromJunction="J6" toJunction="J3" end="9000" vehsPerHour="54.96000000000001"/>
  <flow id="JF257" begin="8000" fromJunction="J6" toJunction="J4" end="9000" vehsPerHour="54.96000000000001"/>
  <flow id="JF258" begin="8000" fromJunction="J6" toJunction="J5" end="9000" vehsPerHour="54.96000000000001"/>
  <flow id="JF259" begin="8000" fromJunction="J6" toJunction="J7" end="9000" vehsPerHour="54.96000000000001"/>
  <flow id="JF260" begin="8000" fromJunction="J7" toJunction="J0" end="9000" vehsPerHour="54.96000000000001"/>
  <flow id="JF261" begin="8000" fromJunction="J7" toJunction="J3" end="9000" vehsPerHour="54.96000000000001"/>
  <flow id="JF262" begin="8000" fromJunction="J7" toJunction="J4" end="9000" vehsPerHour="54.96000000000001"/>
  <flow id="JF263" begin="8000" fromJunction="J7" toJunction="J5" end="9000" vehsPerHour="54.96000000000001"/>
  <flow id="JF264" begin="8000" fromJunction="J7" toJunction="J6" end="9000" vehsPerHour="54.96000000000001"/>
  <flow id="JF265" begin="8000" fromJunction="J0" toJunction="J3" end="9000" vehsPerHour="109.92000000000002"/>
  <flow id="JF266" begin="8000" fromJunction="J0" toJunction="J4" end="9000" vehsPerHour="109.92000000000002"/>
  <flow id="JF267" begin="8000" fromJunction="J0" toJunction="J5" end="9000" vehsPerHour="109.92000000000002"/>
  <flow id="JF268" begin="8000" fromJunction="J0" toJunction="J6" end="9000" vehsPerHour="109.92000000000002"/>
  <flow id="JF269" begin="8000" fromJunction="J0" toJunction="J7" end="9000" vehsPerHour="109.92000000000002"/>
  <flow id="JF270" begin="9000" fromJunction="J3" toJunction="J0" end="10000" vehsPerHour="109.92000000000002"/>
  <flow id="JF271" begin="9000" fromJunction="J3" toJunction="J4" end="10000" vehsPerHour="109.92000000000002"/>
  <flow id="JF272" begin="9000" fromJunction="J3" toJunction="J5" end="10000" vehsPerHour="109.92000000000002"/>
  <flow id="JF273" begin="9000" fromJunction="J3" toJunction="J6" end="10000" vehsPerHour="109.92000000000002"/>
  <flow id="JF274" begin="9000" fromJunction="J3" toJunction="J7" end="10000" vehsPerHour="109.92000000000002"/>
  <flow id="JF275" begin="9000" fromJunction="J4" toJunction="J0" end="10000" vehsPerHour="54.96000000000001"/>
  <flow id="JF276" begin="9000" fromJunction="J4" toJunction="J3" end="10000" vehsPerHour="54.96000000000001"/>
  <flow id="JF277" begin="9000" fromJunction="J4" toJunction="J5" end="10000" vehsPerHour="54.96000000000001"/>
  <flow id="JF278" begin="9000" fromJunction="J4" toJunction="J6" end="10000" vehsPerHour="54.96000000000001"/>