<?xml version="1.0" encoding="UTF-8"?>
<routes xmlns:xsi="http://www.w3.org/2001/XMLSchema-instance" xsi:noNamespaceSchemaLocation="http://sumo.dlr.de/xsd/routes_file.xsd">
  <flow id="JF600" begin="0" fromJunction="J3" toJunction="J0" end="5000" vehsPerHour="109.92000000000002"/>
  <flow id="JF601" begin="0" fromJunction="J3" toJunction="J4" end="5000" vehsPerHour="109.92000000000002"/>
  <flow id="JF602" begin="0" fromJunction="J3" toJunction="J5" end="5000" vehsPerHour="109.92000000000002"/>
  <flow id="JF603" begin="0" fromJunction="J3" toJunction="J6" end="5000" vehsPerHour="109.92000000000002"/>
  <flow id="JF604" begin="0" fromJunction="J3" toJunction="J7" end="5000" vehsPerHour="109.92000000000002"/>
  <flow id="JF605" begin="0" fromJunction="J4" toJunction="J0" end="5000" vehsPerHour="499.6363636363636"/>
  <flow id="JF606" begin="0" fromJunction="J4" toJunction="J3" end="5000" vehsPerHour="499.6363636363636"/>
  <flow id="JF607" begin="0" fromJunction="J4" toJunction="J5" end="5000" vehsPerHour="124.9090909090909"/>
  <flow id="JF608" begin="0" fromJunction="J4" toJunction="J6" end="5000" vehsPerHour="124.9090909090909"/>
  <flow id="JF609" begin="0" fromJunction="J4" toJunction="J7" end="5000" vehsPerHour="124.9090909090909"/>
  <flow id="JF610" begin="0" fromJunction="J5" toJunction="J0" end="5000" vehsPerHour="54.96000000000001"/>
  <flow id="JF611" begin="0" fromJunction="J5" toJunction="J3" end="5000" vehsPerHour="54.96000000000001"/>
  <flow id="JF612" begin="0" fromJunction="J5" toJunction="J4" end="5000" vehsPerHour="54.96000000000001"/>
  <flow id="JF613" begin="0" fromJunction="J5" toJunction="J6" end="5000" vehsPerHour="54.96000000000001"/>
  <flow id="JF614" begin="0" fromJunction="J5" toJunction="J7" end="5000" vehsPerHour="54.96000000000001"/>
  <flow id="JF615" begin="0" fromJunction="J6" toJunction="J3" end="5000" vehsPerHour="687.0"/>
  <flow id="JF616" begin="0" fromJunction="J6" toJunction="J0" end="5000" vehsPerHour="171.75"/>
  <flow id="JF617" begin="0" fromJunction="J6" toJunction="J4" end="5000" vehsPerHour="171.75"/>
  <flow id="JF618" begin="0" fromJunction="J6" toJunction="J5" end="5000" vehsPerHour="171.75"/>
  <flow id="JF619" begin="0" fromJunction="J6" toJunction="J7" end="5000" vehsPerHour="171.75"/>
  <flow id="JF620" begin="0" fromJunction="J7" toJunction="J0" end="5000" vehsPerHour="54.96000000000001"/>
  <flow id="JF621" begin="0" fromJunction="J7" toJunction="J3" end="5000" vehsPerHour="54.96000000000001"/>
  <flow id="JF622" begin="0" fromJunction="J7" toJunction="J4" end="5000" vehsPerHour="54.96000000000001"/>
  <flow id="JF623" begin="0" fromJunction="J7" toJunction="J5" end="5000" vehsPerHour="54.96000000000001"/>
  <flow id="JF624" begin="0" fromJunction="J7" toJunction="J6" end="5000" vehsPerHour="54.96000000000001"/>
  <flow id="JF625" begin="0" fromJunction="J0" toJunction="J3" end="5000" vehsPerHour="109.92000000000002"/>
  <flow id="JF626" begin="0" fromJunction="J0" toJunction="J4" end="5000" vehsPerHour="109.92000000000002"/>
  <flow id="JF627" begin="0" fromJunction="J0" toJunction="J5" end="5000" vehsPerHour="109.92000000000002"/>
  <flow id="JF628" begin="0" fromJunction="J0" toJunction="J6" end="5000" vehsPerHour="109.92000000000002"/>
  <flow id="JF629" begin="0" fromJunction="J0" toJunction="J7" end="5000" vehsPerHour="109.92000000000002"/>
  <flow id="JF630" begin="10000" fromJunction="J3" toJunction="J0" end="15000" vehsPerHour="109.92000000000002"/>
  <flow id="JF631" begin="10000" fromJunction="J3" toJunction="J4" end="15000" vehsPerHour="109.92000000000002"/>
  <flow id="JF632" begin="10000" fromJunction="J3" toJunction="J5" end="15000" vehsPerHour="109.92000000000002"/>
  <flow id="JF633" begin="10000" fromJunction="J3" toJunction="J6" end="15000" vehsPerHour="109.92000000000002"/>
  <flow id="JF634" begin="10000" fromJunction="J3" toJunction="J7" end="15000" vehsPerHour="109.92000000000002"/>
  <flow id="JF635" begin="10000" fromJunction="J4" toJunction="J6" end="15000" vehsPerHour="687.0"/>
  <flow id="JF636" begin="10000" fromJunction="J4" toJunction="J0" end="15000" vehsPerHour="171.75"/>
  <flow id="JF637" begin="10000" fromJunction="J4" toJunction="J3" end="15000" vehsPerHour="171.75"/>
  <flow id="JF638" begin="10000" fromJunction="J4" toJunction="J5" end="15000" vehsPerHour="171.75"/>
  <flow id="JF639" begin="10000" fromJunction="J4" toJunction="J7" end="15000" vehsPerHour="171.75"/>
  <flow id="JF640" begin="10000" fromJunction="J5" toJunction="J0" end="15000" vehsPerHour="54.96000000000001"/>
  <flow id="JF641" begin="10000" fromJunction="J5" toJunction="J3" end="15000" vehsPerHour="54.96000000000001"/>
  <flow id="JF642" begin="10000" fromJunction="J5" toJunction="J4" end="15000" vehsPerHour="54.96000000000001"/>
  <flow id="JF643" begin="10000" fromJunction="J5" toJunction="J6" end="15000" vehsPerHour="54.96000000000001"/>
  <flow id="JF644" begin="10000" fromJunction="J5" toJunction="J7" end="15000" vehsPerHour="54.96000000000001"/>
  <flow id="JF645" begin="10000" fromJunction="J6" toJunction="J5" end="15000" vehsPerHour="687.0"/>
  <flow id="JF646" begin="10000" fromJunction="J6" toJunction="J0" end="15000" vehsPerHour="171.75"/>
  <flow id="JF647" begin="10000" fromJunction="J6" toJunction="J3" end="15000" vehsPerHour="171.75"/>
  <flow id="JF648" begin="10000" fromJunction="J6" toJunction="J4" end="15000" vehsPerHour="171.75"/>
  <flow id="JF649" begin="10000" fromJunction="J6" toJunction="J7" end="15000" vehsPerHour="171.75"/>
  <flow id="JF650" begin="10000" fromJunction="J7" toJunction="J0" end="15000" vehsPerHour="54.96000000000001"/>
  <flow id="JF651" begin="10000" fromJunction="J7" toJunction="J3" end="15000" vehsPerHour="54.96000000000001"/>
  <flow id="JF652" begin="10000" fromJunction="J7" toJunction="J4" end="15000" vehsPerHour="54.96000000000001"/>
  <flow id="JF653" begin="10000" fromJunction="J7" toJunction="J5" end="15000" vehsPerHour="54.96000000000001"/>
  <flow id="JF654" begin="10000" fromJunction="J7" toJunction="J6" end="15000" vehsPerHour="54.96000000000001"/>
  <flow id="JF655" begin="10000" fromJunction="J0" toJunction="J3" end="15000" vehsPerHour="1374.0"/>
  <flow id="JF656" begin="10000" fromJunction="J0" toJunction="J4" end="15000" vehsPerHour="343.5"/>
  <flow id="JF657" begin="10000" fromJunction="J0" toJunction="J5" end="15000" vehsPerHour="343.5"/>
  <flow id="JF658" begin="10000" fromJunction="J0" toJunction="J6" end="15000" vehsPerHour="343.5"/>
  <flow id="JF659" begin="10000" fromJunction="J0" toJunction="J7" end="15000" vehsPerHour="343.5"/>
  <flow id="JF660" begin="20000" fromJunction="J3" toJunction="J0" end="25000" vehsPerHour="109.92000000000002"/>
  <flow id="JF661" begin="20000" fromJunction="J3" toJunction="J4" end="25000" vehsPerHour="109.92000000000002"/>
  <flow id="JF662" begin="20000" fromJunction="J3" toJunction="J5" end="25000" vehsPerHour="109.92000000000002"/>
  <flow id="JF663" begin="20000" fromJunction="J3" toJunction="J6" end="25000" vehsPerHour="109.92000000000002"/>
  <flow id="JF664" begin="20000" fromJunction="J3" toJunction="J7" end="25000" vehsPerHour="109.92000000000002"/>
  <flow id="JF665" begin="20000" fromJunction="J4" toJunction="J3" end="25000" vehsPerHour="499.6363636363636"/>
  <flow id="JF666" begin="20000" fromJunction="J4" toJunction="J0" end="25000" vehsPerHour="499.6363636363636"/>
  <flow id="JF667" begin="20000" fromJunction="J4" toJunction="J5" end="25000" vehsPerHour="124.9090909090909"/>
  <flow id="JF668" begin="20000" fromJunction="J4" toJunction="J6" end="25000" vehsPerHour="124.9090909090909"/>
  <flow id="JF669" begin="20000" fromJunction="J4" toJunction="J7" end="25000" vehsPerHour="124.9090909090909"/>
  <flow id="JF670" begin="20000" fromJunction="J5" toJunction="J0" end="25000" vehsPerHour="54.96000000000001"/>
  <flow id="JF671" begin="20000" fromJunction="J5" toJunction="J3" end="25000" vehsPerHour="54.96000000000001"/>
  <flow id="JF672" begin="20000" fromJunction="J5" toJunction="J4" end="25000" vehsPerHour="54.96000000000001"/>
  <flow id="JF673" begin="20000" fromJunction="J5" toJunction="J6" end="25000" vehsPerHour="54.96000000000001"/>
  <flow id="JF674" begin="20000" fromJunction="J5" toJunction="J7" end="25000" vehsPerHour="54.96000000000001"/>
  <flow id="JF675" begin="20000" fromJunction="J6" toJunction="J0" end="25000" vehsPerHour="54.96000000000001"/>
  <flow id="JF676" begin="20000" fromJunction="J6" toJunction="J3" end="25000" vehsPerHour="54.96000000000001"/>
  <flow id="JF677" begin="20000" fromJunction="J6" toJunction="J4" end="25000" vehsPerHour="54.96000000000001"/>
  <flow id="JF678" begin="20000" fromJunction="J6" toJunction="J5" end="25000" vehsPerHour="54.96000000000001"/>
  <flow id="JF679" begin="20000" fromJunction="J6" toJunction="J7" end="25000" vehsPerHour="54.96000000000001"/>
  <flow id="JF680" begin="20000" fromJunction="J7" toJunction="J6" end="25000" vehsPerHour="687.0"/>
  <flow id="JF681" begin="20000" fromJunction="J7" toJunction="J0" end="25000" vehsPerHour="171.75"/>
  <flow id="JF682" begin="20000" fromJunction="J7" toJunction="J3" end="25000" vehsPerHour="171.75"/>
  <flow id="JF683" begin="20000" fromJunction="J7" toJunction="J4" end="25000" vehsPerHour="171.75"/>
  <flow id="JF684" begin="20000" fromJunction="J7" toJunction="J5" end="25000" vehsPerHour="171.75"/>
  <flow id="JF685" begin="20000" fromJunction="J0" toJunction="J3" end="25000" vehsPerHour="109.92000000000002"/>
  <flow id="JF686" begin="20000" fromJunction="J0" toJunction="J4" end="25000" vehsPerHour="109.92000000000002"/>
  <flow id="JF687" begin="20000" fromJunction="J0" toJunction="J5" end="25000" vehsPerHour="109.92000000000002"/>
  <flow id="JF688" begin="20000" fromJunction="J0" toJunction="J6" end="25000" vehsPerHour="109.92000000000002"/>
  <flow id="JF689" begin="20000" fromJunction="J0" toJunction="J7" end="25000" vehsPerHour="109.92000000000002"/>
  <flow id="JF690" begin="30000" fromJunction="J3" toJunction="J0" end="35000" vehsPerHour="1374.0"/>
  <flow id="JF691" begin="30000" fromJunction="J3" toJunction="J4" end="35000" vehsPerHour="343.5"/>
  <flow id="JF692" begin="30000" fromJunction="J3" toJunction="J5" end="35000" vehsPerHour="343.5"/>
  <flow id="JF693" begin="30000" fromJunction="J3" toJunction="J6" end="35000" vehsPerHour="343.5"/>
  <flow id="JF694" begin="30000" fromJunction="J3" toJunction="J7" end="35000" vehsPerHour="343.5"/>
  <flow id="JF695" begin="30000" fromJunction="J4" toJunction="J5" end="35000" vehsPerHour="687.0"/>
  <flow id="JF696" begin="30000" fromJunction="J4" toJunction="J0" end="35000" vehsPerHour="171.75"/>
  <flow id="JF697" begin="30000" fromJunction="J4" toJunction="J3" end="35000" vehsPerHour="171.75"/>
  <flow id="JF698" begin="30000" fromJunction="J4" toJunction="J6" end="35000" vehsPerHour="171.75"/>
  <flow id="JF699" begin="30000" fromJunction="J4" toJunction="J7" end="35000" vehsPerHour="171.75"/>
  <flow id="JF700" begin="30000" fromJunction="J5" toJunction="J4" end="35000" vehsPerHour="687.0"/>
  <flow id="JF701" begin="30000" fromJunction="J5" toJunction="J0" end="35000" vehsPerHour="171.75"/>
  <flow id="JF702" begin="30000" fromJunction="J5" toJunction="J3" end="35000" vehsPerHour="171.75"/>
  <flow id="JF703" begin="30000" fromJunction="J5" toJunction="J6" end="35000" vehsPerHour="171.75"/>
  <flow id="JF704" begin="30000" fromJunction="J5" toJunction="J7" end="35000" vehsPerHour="171.75"/>
  <flow id="JF705" begin="30000" fromJunction="J6" toJunction="J0" end="35000" vehsPerHour="54.96000000000001"/>
  <flow id="JF706" begin="30000" fromJunction="J6" toJunction="J3" end="35000" vehsPerHour="54.96000000000001"/>
  <flow id="JF707" begin="30000" fromJunction="J6" toJunction="J4" end="35000" vehsPerHour="54.96000000000001"/>
  <flow id="JF708" begin="30000" fromJunction="J6" toJunction="J5" end="35000" vehsPerHour="54.96000000000001"/>
  <flow id="JF709" begin="30000" fromJunction="J6" toJunction="J7" end="35000" vehsPerHour="54.96000000000001"/>
  <flow id="JF710" begin="30000" fromJunction="J7" toJunction="J0" end="35000" vehsPerHour="54.96000000000001"/>
  <flow id="JF711" begin="30000" fromJunction="J7" toJunction="J3" end="35000" vehsPerHour="54.96000000000001"/>
  <flow id="JF712" begin="30000" fromJunction="J7" toJunction="J4" end="35000" vehsPerHour="54.96000000000001"/>
  <flow id="JF713" begin="30000" fromJunction="J7" toJunction="J5" end="35000" vehsPerHour="54.96000000000001"/>
  <flow id="JF714" begin="30000" fromJunction="J7" toJunction="J6" end="35000" vehsPerHour="54.96000000000001"/>
  <flow id="JF715" begin="30000" fromJunction="J0" toJunction="J3" end="35000" vehsPerHour="109.92000000000002"/>
  <flow id="JF716" begin="30000" fromJunction="J0" toJunction="J4" end="35000" vehsPerHour="109.92000000000002"/>
  <flow id="JF717" begin="30000" fromJunction="J0" toJunction="J5" end="35000" vehsPerHour="109.92000000000002"/>
  <flow id="JF718" begin="30000" fromJunction="J0" toJunction="J6" end="35000" vehsPerHour="109.92000000000002"/>
  <flow id="JF719" begin="30000" fromJunction="J0" toJunction="J7" end="35000" vehsPerHour="109.92000000000002"/>
  <flow id="JF720" begin="40000" fromJunction="J3" toJunction="J0" end="45000" vehsPerHour="109.92000000000002"/>
  <flow id="JF721" begin="40000" fromJunction="J3" toJunction="J4" end="45000" vehsPerHour="109.92000000000002"/>
  <flow id="JF722" begin="40000" fromJunction="J3" toJunction="J5" end="45000" vehsPerHour="109.92000000000002"/>
  <flow id="JF723" begin="40000" fromJunction="J3" toJunction="J6" end="45000" vehsPerHour="109.92000000000002"/>
  <flow id="JF724" begin="40000" fromJunction="J3" toJunction="J7" end="45000" vehsPerHour="109.92000000000002"/>
  <flow id="JF725" begin="40000" fromJunction="J4" toJunction="J7" end="45000" vehsPerHour="687.0"/>
  <flow id="JF726" begin="40000" fromJunction="J4" toJunction="J0" end="45000" vehsPerHour="171.75"/>
  <flow id="JF727" begin="40000" fromJunction="J4" toJunction="J3" end="45000" vehsPerHour="171.75"/>
  <flow id="JF728" begin="40000" fromJunction="J4" toJunction="J5" end="45000" vehsPerHour="171.75"/>
  <flow id="JF729" begin="40000" fromJunction="J4" toJunction="J6" end="45000" vehsPerHour="171.75"/>
  <flow id="JF730" begin="40000" fromJunction="J5" toJunction="J6" end="45000" vehsPerHour="687.0"/>
  <flow id="JF731" begin="40000" fromJunction="J5" toJunction="J0" end="45000" vehsPerHour="171.75"/>
  <flow id="JF732" begin="40000" fromJunction="J5" toJunction="J3" end="45000" vehsPerHour="171.75"/>
  <flow id="JF733" begin="40000" fromJunction="J5" toJunction="J4" end="45000" vehsPerHour="171.75"/>
  <flow id="JF734" begin="40000" fromJunction="J5" toJunction="J7" end="45000" vehsPerHour="171.75"/>
  <flow id="JF735" begin="40000" fromJunction="J6" toJunction="J4" end="45000" vehsPerHour="687.0"/>
  <flow id="JF736" begin="40000" fromJunction="J6" toJunction="J0" end="45000" vehsPerHour="171.75"/>
  <flow id="JF737" begin="40000" fromJunction="J6" toJunction="J3" end="45000" vehsPerHour="171.75"/>
  <flow id="JF738" begin="40000" fromJunction="J6" toJunction="J5" end="45000" vehsPerHour="171.75"/>
  <flow id="JF739" begin="40000" fromJunction="J6" toJunction="J7" end="45000" vehsPerHour="171.75"/>
  <flow id="JF740" begin="40000" fromJunction="J7" toJunction="J0" end="45000" vehsPerHour="54.96000000000001"/>
  <flow id="JF741" begin="40000" fromJunction="J7" toJunction="J3" end="45000" vehsPerHour="54.96000000000001"/>
  <flow id="JF742" begin="40000" fromJunction="J7" toJunction="J4" end="45000" vehsPerHour="54.96000000000001"/>
  <flow id="JF743" begin="40000" fromJunction="J7" toJunction="J5" end="45000" vehsPerHour="54.96000000000001"/>
  <flow id="JF744" begin="40000" fromJunction="J7" toJunction="J6" end="45000" vehsPerHour="54.96000000000001"/>
  <flow id="JF745" begin="40000" fromJunction="J0" toJunction="J3" end="45000" vehsPerHour="109.92000000000002"/>
  <flow id="JF746" begin="40000" fromJunction="J0" toJunction="J4" end="45000" vehsPerHour="109.92000000000002"/>
  <flow id="JF747" begin="40000" fromJunction="J0" toJunction="J5" end="45000" vehsPerHour="109.92000000000002"/>
  <flow id="JF748" begin="40000" fromJunction="J0" toJunction="J6" end="45000" vehsPerHour="109.92000000000002"/>
  <flow id="JF749" begin="40000" fromJunction="J0" toJunction="J7" end="45000" vehsPerHour="109.92000000000002"/>
</routes>