<?xml version="1.0" encoding="UTF-8"?>
<routes xmlns:xsi="http://www.w3.org/2001/XMLSchema-instance" xsi:noNamespaceSchemaLocation="http://sumo.dlr.de/xsd/routes_file.xsd">
  <flow id="JF300" begin="0" fromJunction="J3" toJunction="J4" end="1000" vehsPerHour="1374.0"/>
  <flow id="JF301" begin="0" fromJunction="J3" toJunction="J0" end="1000" vehsPerHour="343.5"/>
  <flow id="JF302" begin="0" fromJunction="J3" toJunction="J5" end="1000" vehsPerHour="343.5"/>
  <flow id="JF303" begin="0" fromJunction="J3" toJunction="J6" end="1000" vehsPerHour="343.5"/>
  <flow id="JF304" begin="0" fromJunction="J3" toJunction="J7" end="1000" vehsPerHour="343.5"/>
  <flow id="JF305" begin="0" fromJunction="J4" toJunction="J0" end="1000" vehsPerHour="54.96000000000001"/>
  <flow id="JF306" begin="0" fromJunction="J4" toJunction="J3" end="1000" vehsPerHour="54.96000000000001"/>
  <flow id="JF307" begin="0" fromJunction="J4" toJunction="J5" end="1000" vehsPerHour="54.96000000000001"/>
  <flow id="JF308" begin="0" fromJunction="J4" toJunction="J6" end="1000" vehsPerHour="54.96000000000001"/>
  <flow id="JF309" begin="0" fromJunction="J4" toJunction="J7" end="1000" vehsPerHour="54.96000000000001"/>
  <flow id="JF310" begin="0" fromJunction="J5" toJunction="J0" end="1000" vehsPerHour="54.96000000000001"/>
  <flow id="JF311" begin="0" fromJunction="J5" toJunction="J3" end="1000" vehsPerHour="54.96000000000001"/>
  <flow id="JF312" begin="0" fromJunction="J5" toJunction="J4" end="1000" vehsPerHour="54.96000000000001"/>
  <flow id="JF313" begin="0" fromJunction="J5" toJunction="J6" end="1000" vehsPerHour="54.96000000000001"/>
  <flow id="JF314" begin="0" fromJunction="J5" toJunction="J7" end="1000" vehsPerHour="54.96000000000001"/>
  <flow id="JF315" begin="0" fromJunction="J6" toJunction="J0" end="1000" vehsPerHour="54.96000000000001"/>
  <flow id="JF316" begin="0" fromJunction="J6" toJunction="J3" end="1000" vehsPerHour="54.96000000000001"/>
  <flow id="JF317" begin="0" fromJunction="J6" toJunction="J4" end="1000" vehsPerHour="54.96000000000001"/>
  <flow id="JF318" begin="0" fromJunction="J6" toJunction="J5" end="1000" vehsPerHour="54.96000000000001"/>
  <flow id="JF319" begin="0" fromJunction="J6" toJunction="J7" end="1000" vehsPerHour="54.96000000000001"/>
  <flow id="JF320" begin="0" fromJunction="J7" toJunction="J0" end="1000" vehsPerHour="687.0"/>
  <flow id="JF321" begin="0" fromJunction="J7" toJunction="J3" end="1000" vehsPerHour="171.75"/>
  <flow id="JF322" begin="0" fromJunction="J7" toJunction="J4" end="1000" vehsPerHour="171.75"/>
  <flow id="JF323" begin="0" fromJunction="J7" toJunction="J5" end="1000" vehsPerHour="171.75"/>
  <flow id="JF324" begin="0" fromJunction="J7" toJunction="J6" end="1000" vehsPerHour="171.75"/>
  <flow id="JF325" begin="0" fromJunction="J0" toJunction="J5" end="1000" vehsPerHour="1374.0"/>
  <flow id="JF326" begin="0" fromJunction="J0" toJunction="J3" end="1000" vehsPerHour="343.5"/>
  <flow id="JF327" begin="0" fromJunction="J0" toJunction="J4" end="1000" vehsPerHour="343.5"/>
  <flow id="JF328" begin="0" fromJunction="J0" toJunction="J6" end="1000" vehsPerHour="343.5"/>
  <flow id="JF329" begin="0" fromJunction="J0" toJunction="J7" end="1000" vehsPerHour="343.5"/>
  <flow id="JF330" begin="1000" fromJunction="J3" toJunction="J4" end="2000" vehsPerHour="1374.0"/>
  <flow id="JF331" begin="1000" fromJunction="J3" toJunction="J0" end="2000" vehsPerHour="343.5"/>
  <flow id="JF332" begin="1000" fromJunction="J3" toJunction="J5" end="2000" vehsPerHour="343.5"/>
  <flow id="JF333" begin="1000" fromJunction="J3" toJunction="J6" end="2000" vehsPerHour="343.5"/>
  <flow id="JF334" begin="1000" fromJunction="J3" toJunction="J7" end="2000" vehsPerHour="343.5"/>
  <flow id="JF335" begin="1000" fromJunction="J4" toJunction="J0" end="2000" vehsPerHour="54.96000000000001"/>
  <flow id="JF336" begin="1000" fromJunction="J4" toJunction="J3" end="2000" vehsPerHour="54.96000000000001"/>
  <flow id="JF337" begin="1000" fromJunction="J4" toJunction="J5" end="2000" vehsPerHour="54.96000000000001"/>
  <flow id="JF338" begin="1000" fromJunction="J4" toJunction="J6" end="2000" vehsPerHour="54.96000000000001"/>
  <flow id="JF339" begin="1000" fromJunction="J4" toJunction="J7" end="2000" vehsPerHour="54.96000000000001"/>
  <flow id="JF340" begin="1000" fromJunction="J5" toJunction="J0" end="2000" vehsPerHour="54.96000000000001"/>
  <flow id="JF341" begin="1000" fromJunction="J5" toJunction="J3" end="2000" vehsPerHour="54.96000000000001"/>
  <flow id="JF342" begin="1000" fromJunction="J5" toJunction="J4" end="2000" vehsPerHour="54.96000000000001"/>
  <flow id="JF343" begin="1000" fromJunction="J5" toJunction="J6" end="2000" vehsPerHour="54.96000000000001"/>
  <flow id="JF344" begin="1000" fromJunction="J5" toJunction="J7" end="2000" vehsPerHour="54.96000000000001"/>
  <flow id="JF345" begin="1000" fromJunction="J6" toJunction="J5" end="2000" vehsPerHour="687.0"/>
  <flow id="JF346" begin="1000" fromJunction="J6" toJunction="J0" end="2000" vehsPerHour="171.75"/>
  <flow id="JF347" begin="1000" fromJunction="J6" toJunction="J3" end="2000" vehsPerHour="171.75"/>
  <flow id="JF348" begin="1000" fromJunction="J6" toJunction="J4" end="2000" vehsPerHour="171.75"/>
  <flow id="JF349" begin="1000" fromJunction="J6" toJunction="J7" end="2000" vehsPerHour="171.75"/>
  <flow id="JF350" begin="1000" fromJunction="J7" toJunction="J0" end="2000" vehsPerHour="54.96000000000001"/>
  <flow id="JF351" begin="1000" fromJunction="J7" toJunction="J3" end="2000" vehsPerHour="54.96000000000001"/>
  <flow id="JF352" begin="1000" fromJunction="J7" toJunction="J4" end="2000" vehsPerHour="54.96000000000001"/>
  <flow id="JF353" begin="1000" fromJunction="J7" toJunction="J5" end="2000" vehsPerHour="54.96000000000001"/>
  <flow id="JF354" begin="1000" fromJunction="J7" toJunction="J6" end="2000" vehsPerHour="54.96000000000001"/>
  <flow id="JF355" begin="1000" fromJunction="J0" toJunction="J6" end="2000" vehsPerHour="1374.0"/>
  <flow id="JF356" begin="1000" fromJunction="J0" toJunction="J3" end="2000" vehsPerHour="343.5"/>
  <flow id="JF357" begin="1000" fromJunction="J0" toJunction="J4" end="2000" vehsPerHour="343.5"/>
  <flow id="JF358" begin="1000" fromJunction="J0" toJunction="J5" end="2000" vehsPerHour="343.5"/>
  <flow id="JF359" begin="1000" fromJunction="J0" toJunction="J7" end="2000" vehsPerHour="343.5"/>
  <flow id="JF360" begin="2000" fromJunction="J3" toJunction="J4" end="3000" vehsPerHour="1374.0"/>
  <flow id="JF361" begin="2000" fromJunction="J3" toJunction="J0" end="3000" vehsPerHour="343.5"/>
  <flow id="JF362" begin="2000" fromJunction="J3" toJunction="J5" end="3000" vehsPerHour="343.5"/>
  <flow id="JF363" begin="2000" fromJunction="J3" toJunction="J6" end="3000" vehsPerHour="343.5"/>
  <flow id="JF364" begin="2000" fromJunction="J3" toJunction="J7" end="3000" vehsPerHour="343.5"/>
  <flow id="JF365" begin="2000" fromJunction="J4" toJunction="J0" end="3000" vehsPerHour="54.96000000000001"/>
  <flow id="JF366" begin="2000" fromJunction="J4" toJunction="J3" end="3000" vehsPerHour="54.96000000000001"/>
  <flow id="JF367" begin="2000" fromJunction="J4" toJunction="J5" end="3000" vehsPerHour="54.96000000000001"/>
  <flow id="JF368" begin="2000" fromJunction="J4" toJunction="J6" end="3000" vehsPerHour="54.96000000000001"/>
  <flow id="JF369" begin="2000" fromJunction="J4" toJunction="J7" end="3000" vehsPerHour="54.96000000000001"/>
  <flow id="JF370" begin="2000" fromJunction="J5" toJunction="J0" end="3000" vehsPerHour="54.96000000000001"/>
  <flow id="JF371" begin="2000" fromJunction="J5" toJunction="J3" end="3000" vehsPerHour="54.96000000000001"/>
  <flow id="JF372" begin="2000" fromJunction="J5" toJunction="J4" end="3000" vehsPerHour="54.96000000000001"/>
  <flow id="JF373" begin="2000" fromJunction="J5" toJunction="J6" end="3000" vehsPerHour="54.96000000000001"/>
  <flow id="JF374" begin="2000" fromJunction="J5" toJunction="J7" end="3000" vehsPerHour="54.96000000000001"/>
  <flow id="JF375" begin="2000" fromJunction="J6" toJunction="J7" end="3000" vehsPerHour="687.0"/>
  <flow id="JF376" begin="2000" fromJunction="J6" toJunction="J0" end="3000" vehsPerHour="171.75"/>
  <flow id="JF377" begin="2000" fromJunction="J6" toJunction="J3" end="3000" vehsPerHour="171.75"/>
  <flow id="JF378" begin="2000" fromJunction="J6" toJunction="J4" end="3000" vehsPerHour="171.75"/>
  <flow id="JF379" begin="2000" fromJunction="J6" toJunction="J5" end="3000" vehsPerHour="171.75"/>
  <flow id="JF380" begin="2000" fromJunction="J7" toJunction="J3" end="3000" vehsPerHour="687.0"/>
  <flow id="JF381" begin="2000" fromJunction="J7" toJunction="J0" end="3000" vehsPerHour="171.75"/>
  <flow id="JF382" begin="2000" fromJunction="J7" toJunction="J4" end="3000" vehsPerHour="171.75"/>
  <flow id="JF383" begin="2000" fromJunction="J7" toJunction="J5" end="3000" vehsPerHour="171.75"/>
  <flow id="JF384" begin="2000" fromJunction="J7" toJunction="J6" end="3000" vehsPerHour="171.75"/>
  <flow id="JF385" begin="2000" fromJunction="J0" toJunction="J3" end="3000" vehsPerHour="109.92000000000002"/>
  <flow id="JF386" begin="2000" fromJunction="J0" toJunction="J4" end="3000" vehsPerHour="109.92000000000002"/>
  <flow id="JF387" begin="2000" fromJunction="J0" toJunction="J5" end="3000" vehsPerHour="109.92000000000002"/>
  <flow id="JF388" begin="2000" fromJunction="J0" toJunction="J6" end="3000" vehsPerHour="109.92000000000002"/>
  <flow id="JF389" begin="2000" fromJunction="J0" toJunction="J7" end="3000" vehsPerHour="109.92000000000002"/>
  <flow id="JF390" begin="3000" fromJunction="J3" toJunction="J0" end="4000" vehsPerHour="109.92000000000002"/>
  <flow id="JF391" begin="3000" fromJunction="J3" toJunction="J4" end="4000" vehsPerHour="109.92000000000002"/>
  <flow id="JF392" begin="3000" fromJunction="J3" toJunction="J5" end="4000" vehsPerHour="109.92000000000002"/>
  <flow id="JF393" begin="3000" fromJunction="J3" toJunction="J6" end="4000" vehsPerHour="109.92000000000002"/>
  <flow id="JF394" begin="3000" fromJunction="J3" toJunction="J7" end="4000" vehsPerHour="109.92000000000002"/>
  <flow id="JF395" begin="3000" fromJunction="J4" toJunction="J6" end="4000" vehsPerHour="499.6363636363636"/>
  <flow id="JF396" begin="3000" fromJunction="J4" toJunction="J5" end="4000" vehsPerHour="499.6363636363636"/>
  <flow id="JF397" begin="3000" fromJunction="J4" toJunction="J0" end="4000" vehsPerHour="124.9090909090909"/>
  <flow id="JF398" begin="3000" fromJunction="J4" toJunction="J3" end="4000" vehsPerHour="124.9090909090909"/>
  <flow id="JF399" begin="3000" fromJunction="J4" toJunction="J7" end="4000" vehsPerHour="124.9090909090909"/>
  <flow id="JF400" begin="3000" fromJunction="J5" toJunction="J0" end="4000" vehsPerHour="54.96000000000001"/>
  <flow id="JF401" begin="3000" fromJunction="J5" toJunction="J3" end="4000" vehsPerHour="54.96000000000001"/>
  <flow id="JF402" begin="3000" fromJunction="J5" toJunction="J4" end="4000" vehsPerHour="54.96000000000001"/>
  <flow id="JF403" begin="3000" fromJunction="J5" toJunction="J6" end="4000" vehsPerHour="54.96000000000001"/>
  <flow id="JF404" begin="3000" fromJunction="J5" toJunction="J7" end="4000" vehsPerHour="54.96000000000001"/>
  <flow id="JF405" begin="3000" fromJunction="J6" toJunction="J0" end="4000" vehsPerHour="54.96000000000001"/>
  <flow id="JF406" begin="3000" fromJunction="J6" toJunction="J3" end="4000" vehsPerHour="54.96000000000001"/>
  <flow id="JF407" begin="3000" fromJunction="J6" toJunction="J4" end="4000" vehsPerHour="54.96000000000001"/>
  <flow id="JF408" begin="3000" fromJunction="J6" toJunction="J5" end="4000" vehsPerHour="54.96000000000001"/>
  <flow id="JF409" begin="3000" fromJunction="J6" toJunction="J7" end="4000" vehsPerHour="54.96000000000001"/>
  <flow id="JF410" begin="3000" fromJunction="J7" toJunction="J4" end="4000" vehsPerHour="687.0"/>
  <flow id="JF411" begin="3000" fromJunction="J7" toJunction="J0" end="4000" vehsPerHour="171.75"/>
  <flow id="JF412" begin="3000" fromJunction="J7" toJunction="J3" end="4000" vehsPerHour="171.75"/>
  <flow id="JF413" begin="3000" fromJunction="J7" toJunction="J5" end="4000" vehsPerHour="171.75"/>
  <flow id="JF414" begin="3000" fromJunction="J7" toJunction="J6" end="4000" vehsPerHour="171.75"/>
  <flow id="JF415" begin="3000" fromJunction="J0" toJunction="J3" end="4000" vehsPerHour="109.92000000000002"/>
  <flow id="JF416" begin="3000" fromJunction="J0" toJunction="J4" end="4000" vehsPerHour="109.92000000000002"/>
  <flow id="JF417" begin="3000" fromJunction="J0" toJunction="J5" end="4000" vehsPerHour="109.92000000000002"/>
  <flow id="JF418" begin="3000" fromJunction="J0" toJunction="J6" end="4000" vehsPerHour="109.92000000000002"/>
  <flow id="JF419" begin="3000" fromJunction="J0" toJunction="J7" end="4000" vehsPerHour="109.92000000000002"/>
  <flow id="JF420" begin="4000" fromJunction="J3" toJunction="J5" end="5000" vehsPerHour="1374.0"/>
  <flow id="JF421" begin="4000" fromJunction="J3" toJunction="J0" end="5000" vehsPerHour="343.5"/>
  <flow id="JF422" begin="4000" fromJunction="J3" toJunction="J4" end="5000" vehsPerHour="343.5"/>
  <flow id="JF423" begin="4000" fromJunction="J3" toJunction="J6" end="5000" vehsPerHour="343.5"/>
  <flow id="JF424" begin="4000" fromJunction="J3" toJunction="J7" end="5000" vehsPerHour="343.5"/>
  <flow id="JF425" begin="4000" fromJunction="J4" toJunction="J0" end="5000" vehsPerHour="54.96000000000001"/>
  <flow id="JF426" begin="4000" fromJunction="J4" toJunction="J3" end="5000" vehsPerHour="54.96000000000001"/>
  <flow id="JF427" begin="4000" fromJunction="J4" toJunction="J5" end="5000" vehsPerHour="54.96000000000001"/>
  <flow id="JF428" begin="4000" fromJunction="J4" toJunction="J6" end="5000" vehsPerHour="54.96000000000001"/>
  <flow id="JF429" begin="4000" fromJunction="J4" toJunction="J7" end="5000" vehsPerHour="54.96000000000001"/>
  <flow id="JF430" begin="4000" fromJunction="J5" toJunction="J3" end="5000" vehsPerHour="687.0"/>
  <flow id="JF431" begin="4000" fromJunction="J5" toJunction="J0" end="5000" vehsPerHour="171.75"/>
  <flow id="JF432" begin="4000" fromJunction="J5" toJunction="J4" end="5000" vehsPerHour="171.75"/>
  <flow id="JF433" begin="4000" fromJunction="J5" toJunction="J6" end="5000" vehsPerHour="171.75"/>
  <flow id="JF434" begin="4000" fromJunction="J5" toJunction="J7" end="5000" vehsPerHour="171.75"/>
  <flow id="JF435" begin="4000" fromJunction="J6" toJunction="J0" end="5000" vehsPerHour="54.96000000000001"/>
  <flow id="JF436" begin="4000" fromJunction="J6" toJunction="J3" end="5000" vehsPerHour="54.96000000000001"/>
  <flow id="JF437" begin="4000" fromJunction="J6" toJunction="J4" end="5000" vehsPerHour="54.96000000000001"/>
  <flow id="JF438" begin="4000" fromJunction="J6" toJunction="J5" end="5000" vehsPerHour="54.96000000000001"/>
  <flow id="JF439" begin="4000" fromJunction="J6" toJunction="J7" end="5000" vehsPerHour="54.96000000000001"/>
  <flow id="JF440" begin="4000" fromJunction="J7" toJunction="J4" end="5000" vehsPerHour="687.0"/>
  <flow id="JF441" begin="4000" fromJunction="J7" toJunction="J0" end="5000" vehsPerHour="171.75"/>
  <flow id="JF442" begin="4000" fromJunction="J7" toJunction="J3" end="5000" vehsPerHour="171.75"/>
  <flow id="JF443" begin="4000" fromJunction="J7" toJunction="J5" end="5000" vehsPerHour="171.75"/>
  <flow id="JF444" begin="4000" fromJunction="J7" toJunction="J6" end="5000" vehsPerHour="171.75"/>
  <flow id="JF445" begin="4000" fromJunction="J0" toJunction="J3" end="5000" vehsPerHour="109.92000000000002"/>
  <flow id="JF446" begin="4000" fromJunction="J0" toJunction="J4" end="5000" vehsPerHour="109.92000000000002"/>
  <flow id="JF447" begin="4000" fromJunction="J0" toJunction="J5" end="5000" vehsPerHour="109.92000000000002"/>
  <flow id="JF448" begin="4000" fromJunction="J0" toJunction="J6" end="5000" vehsPerHour="109.92000000000002"/>
  <flow id="JF449" begin="4000" fromJunction="J0" toJunction="J7" end="5000" vehsPerHour="109.92000000000002"/>
  <flow id="JF450" begin="5000" fromJunction="J3" toJunction="J0" end="6000" vehsPerHour="109.92000000000002"/>
  <flow id="JF451" begin="5000" fromJunction="J3" toJunction="J4" end="6000" vehsPerHour="109.92000000000002"/>
  <flow id="JF452" begin="5000" fromJunction="J3" toJunction="J5" end="6000" vehsPerHour="109.92000000000002"/>
  <flow id="JF453" begin="5000" fromJunction="J3" toJunction="J6" end="6000" vehsPerHour="109.92000000000002"/>
  <flow id="JF454" begin="5000" fromJunction="J3" toJunction="J7" end="6000" vehsPerHour="109.92000000000002"/>
  <flow id="JF455" begin="5000" fromJunction="J4" toJunction="J0" end="6000" vehsPerHour="54.96000000000001"/>
  <flow id="JF456" begin="5000" fromJunction="J4" toJunction="J3" end="6000" vehsPerHour="54.96000000000001"/>
  <flow id="JF457" begin="5000" fromJunction="J4" toJunction="J5" end="6000" vehsPerHour="54.96000000000001"/>
  <flow id="JF458" begin="5000" fromJunction="J4" toJunction="J6" end="6000" vehsPerHour="54.96000000000001"/>
  <flow id="JF459" begin="5000" fromJunction="J4" toJunction="J7" end="6000" vehsPerHour="54.96000000000001"/>
  <flow id="JF460" begin="5000" fromJunction="J5" toJunction="J3" end="6000" vehsPerHour="687.0"/>
  <flow id="JF461" begin="5000" fromJunction="J5" toJunction="J0" end="6000" vehsPerHour="171.75"/>
  <flow id="JF462" begin="5000" fromJunction="J5" toJunction="J4" end="6000" vehsPerHour="171.75"/>
  <flow id="JF463" begin="5000" fromJunction="J5" toJunction="J6" end="6000" vehsPerHour="171.75"/>
  <flow id="JF464" begin="5000" fromJunction="J5" toJunction="J7" end="6000" vehsPerHour="171.75"/>
  <flow id="JF465" begin="5000" fromJunction="J6" toJunction="J0" end="6000" vehsPerHour="54.96000000000001"/>
  <flow id="JF466" begin="5000" fromJunction="J6" toJunction="J3" end="6000" vehsPerHour="54.96000000000001"/>
  <flow id="JF467" begin="5000" fromJunction="J6" toJunction="J4" end="6000" vehsPerHour="54.96000000000001"/>
  <flow id="JF468" begin="5000" fromJunction="J6" toJunction="J5" end="6000" vehsPerHour="54.96000000000001"/>
  <flow id="JF469" begin="5000" fromJunction="J6" toJunction="J7" end="6000" vehsPerHour="54.96000000000001"/>
  <flow id="JF470" begin="5000" fromJunction="J7" toJunction="J6" end="6000" vehsPerHour="687.0"/>
  <flow id="JF471" begin="5000" fromJunction="J7" toJunction="J0" end="6000" vehsPerHour="171.75"/>
  <flow id="JF472" begin="5000" fromJunction="J7" toJunction="J3" end="6000" vehsPerHour="171.75"/>
  <flow id="JF473" begin="5000" fromJunction="J7" toJunction="J4" end="6000" vehsPerHour="171.75"/>
  <flow id="JF474" begin="5000" fromJunction="J7" toJunction="J5" end="6000" vehsPerHour="171.75"/>
  <flow id="JF475" begin="5000" fromJunction="J0" toJunction="J5" end="6000" vehsPerHour="1374.0"/>
  <flow id="JF476" begin="5000" fromJunction="J0" toJunction="J3" end="6000" vehsPerHour="343.5"/>
  <flow id="JF477" begin="5000" fromJunction="J0" toJunction="J4" end="6000" vehsPerHour="343.5"/>
  <flow id="JF478" begin="5000" fromJunction="J0" toJunction="J6" end="6000" vehsPerHour="343.5"/>
  <flow id="JF479" begin="5000" fromJunction="J0" toJunction="J7" end="6000" vehsPerHour="343.5"/>
  <flow id="JF480" begin="6000" fromJunction="J3" toJunction="J0" end="7000" vehsPerHour="109.92000000000002"/>
  <flow id="JF481" begin="6000" fromJunction="J3" toJunction="J4" end="7000" vehsPerHour="109.92000000000002"/>
  <flow id="JF482" begin="6000" fromJunction="J3" toJunction="J5" end="7000" vehsPerHour="109.92000000000002"/>
  <flow id="JF483" begin="6000" fromJunction="J3" toJunction="J6" end="7000" vehsPerHour="109.92000000000002"/>
  <flow id="JF484" begin="6000" fromJunction="J3" toJunction="J7" end="7000" vehsPerHour="109.92000000000002"/>
  <flow id="JF485" begin="6000" fromJunction="J4" toJunction="J6" end="7000" vehsPerHour="687.0"/>
  <flow id="JF486" begin="6000" fromJunction="J4" toJunction="J0" end="7000" vehsPerHour="171.75"/>
  <flow id="JF487" begin="6000" fromJunction="J4" toJunction="J3" end="7000" vehsPerHour="171.75"/>
  <flow id="JF488" begin="6000" fromJunction="J4" toJunction="J5" end="7000" vehsPerHour="171.75"/>
  <flow id="JF489" begin="6000" fromJunction="J4" toJunction="J7" end="7000" vehsPerHour="171.75"/>
  <flow id="JF490" begin="6000" fromJunction="J5" toJunction="J6" end="7000" vehsPerHour="687.0"/>
  <flow id="JF491" begin="6000" fromJunction="J5" toJunction="J0" end="7000" vehsPerHour="171.75"/>
  <flow id="JF492" begin="6000" fromJunction="J5" toJunction="J3" end="7000" vehsPerHour="171.75"/>
  <flow id="JF493" begin="6000" fromJunction="J5" toJunction="J4" end="7000" vehsPerHour="171.75"/>
  <flow id="JF494" begin="6000" fromJunction="J5" toJunction="J7" end="7000" vehsPerHour="171.75"/>
  <flow id="JF495" begin="6000" fromJunction="J6" toJunction="J0" end="7000" vehsPerHour="54.96000000000001"/>
  <flow id="JF496" begin="6000" fromJunction="J6" toJunction="J3" end="7000" vehsPerHour="54.96000000000001"/>
  <flow id="JF497" begin="6000" fromJunction="J6" toJunction="J4" end="7000" vehsPerHour="54.96000000000001"/>
  <flow id="JF498" begin="6000" fromJunction="J6" toJunction="J5" end="7000" vehsPerHour="54.96000000000001"/>
  <flow id="JF499" begin="6000" fromJunction="J6" toJunction="J7" end="7000" vehsPerHour="54.96000000000001"/>
  <flow id="JF500" begin="6000" fromJunction="J7" toJunction="J4" end="7000" vehsPerHour="687.0"/>
  <flow id="JF501" begin="6000" fromJunction="J7" toJunction="J0" end="7000" vehsPerHour="171.75"/>
  <flow id="JF502" begin="6000" fromJunction="J7" toJunction="J3" end="7000" vehsPerHour="171.75"/>
  <flow id="JF503" begin="6000" fromJunction="J7" toJunction="J5" end="7000" vehsPerHour="171.75"/>
  <flow id="JF504" begin="6000" fromJunction="J7" toJunction="J6" end="7000" vehsPerHour="171.75"/>
  <flow id="JF505" begin="6000" fromJunction="J0" toJunction="J3" end="7000" vehsPerHour="109.92000000000002"/>
  <flow id="JF506" begin="6000" fromJunction="J0" toJunction="J4" end="7000" vehsPerHour="109.92000000000002"/>
  <flow id="JF507" begin="6000" fromJunction="J0" toJunction="J5" end="7000" vehsPerHour="109.92000000000002"/>
  <flow id="JF508" begin="6000" fromJunction="J0" toJunction="J6" end="7000" vehsPerHour="109.92000000000002"/>
  <flow id="JF509" begin="6000" fromJunction="J0" toJunction="J7" end="7000" vehsPerHour="109.92000000000002"/>
  <flow id="JF510" begin="7000" fromJunction="J3" toJunction="J0" end="8000" vehsPerHour="109.92000000000002"/>
  <flow id="JF511" begin="7000" fromJunction="J3" toJunction="J4" end="8000" vehsPerHour="109.92000000000002"/>
  <flow id="JF512" begin="7000" fromJunction="J3" toJunction="J5" end="8000" vehsPerHour="109.92000000000002"/>
  <flow id="JF513" begin="7000" fromJunction="J3" toJunction="J6" end="8000" vehsPerHour="109.92000000000002"/>
  <flow id="JF514" begin="7000" fromJunction="J3" toJunction="J7" end="8000" vehsPerHour="109.92000000000002"/>
  <flow id="JF515" begin="7000" fromJunction="J4" toJunction="J0" end="8000" vehsPerHour="54.96000000000001"/>
  <flow id="JF516" begin="7000" fromJunction="J4" toJunction="J3" end="8000" vehsPerHour="54.96000000000001"/>
  <flow id="JF517" begin="7000" fromJunction="J4" toJunction="J5" end="8000" vehsPerHour="54.96000000000001"/>
  <flow id="JF518" begin="7000" fromJunction="J4" toJunction="J6" end="8000" vehsPerHour="54.96000000000001"/>
  <flow id="JF519" begin="7000" fromJunction="J4" toJunction="J7" end="8000" vehsPerHour="54.96000000000001"/>
  <flow id="JF520" begin="7000" fromJunction="J5" toJunction="J7" end="8000" vehsPerHour="687.0"/>
  <flow id="JF521" begin="7000" fromJunction="J5" toJunction="J0" end="8000" vehsPerHour="171.75"/>
  <flow id="JF522" begin="7000" fromJunction="J5" toJunction="J3" end="8000" vehsPerHour="171.75"/>
  <flow id="JF523" begin="7000" fromJunction="J5" toJunction="J4" end="8000" vehsPerHour="171.75"/>
  <flow id="JF524" begin="7000" fromJunction="J5" toJunction="J6" end="8000" vehsPerHour="171.75"/>
  <flow id="JF525" begin="7000" fromJunction="J6" toJunction="J5" end="8000" vehsPerHour="499.6363636363636"/>
  <flow id="JF526" begin="7000" fromJunction="J6" toJunction="J7" end="8000" vehsPerHour="499.6363636363636"/>
  <flow id="JF527" begin="7000" fromJunction="J6" toJunction="J0" end="8000" vehsPerHour="124.9090909090909"/>
  <flow id="JF528" begin="7000" fromJunction="J6" toJunction="J3" end="8000" vehsPerHour="124.9090909090909"/>
  <flow id="JF529" begin="7000" fromJunction="J6" toJunction="J4" end="8000" vehsPerHour="124.9090909090909"/>
  <flow id="JF530" begin="7000" fromJunction="J7" toJunction="J0" end="8000" vehsPerHour="54.96000000000001"/>
  <flow id="JF531" begin="7000" fromJunction="J7" toJunction="J3" end="8000" vehsPerHour="54.96000000000001"/>
  <flow id="JF532" begin="7000" fromJunction="J7" toJunction="J4" end="8000" vehsPerHour="54.96000000000001"/>
  <flow id="JF533" begin="7000" fromJunction="J7" toJunction="J5" end="8000" vehsPerHour="54.96000000000001"/>
  <flow id="JF534" begin="7000" fromJunction="J7" toJunction="J6" end="8000" vehsPerHour="54.96000000000001"/>
  <flow id="JF535" begin="7000" fromJunction="J0" toJunction="J3" end="8000" vehsPerHour="109.92000000000002"/>
  <flow id="JF536" begin="7000" fromJunction="J0" toJunction="J4" end="8000" vehsPerHour="109.92000000000002"/>
  <flow id="JF537" begin="7000" fromJunction="J0" toJunction="J5" end="8000" vehsPerHour="109.92000000000002"/>
  <flow id="JF538" begin="7000" fromJunction="J0" toJunction="J6" end="8000" vehsPerHour="109.92000000000002"/>
  <flow id="JF539" begin="7000" fromJunction="J0" toJunction="J7" end="8000" vehsPerHour="109.92000000000002"/>
  <flow id="JF540" begin="8000" fromJunction="J3" toJunction="J0" end="9000" vehsPerHour="109.92000000000002"/>
  <flow id="JF541" begin="8000" fromJunction="J3" toJunction="J4" end="9000" vehsPerHour="109.92000000000002"/>
  <flow id="JF542" begin="8000" fromJunction="J3" toJunction="J5" end="9000" vehsPerHour="109.92000000000002"/>
  <flow id="JF543" begin="8000" fromJunction="J3" toJunction="J6" end="9000" vehsPerHour="109.92000000000002"/>
  <flow id="JF544" begin="8000" fromJunction="J3" toJunction="J7" end="9000" vehsPerHour="109.92000000000002"/>
  <flow id="JF545" begin="8000" fromJunction="J4" toJunction="J0" end="9000" vehsPerHour="687.0"/>
  <flow id="JF546" begin="8000" fromJunction="J4" toJunction="J3" end="9000" vehsPerHour="171.75"/>
  <flow id="JF547" begin="8000" fromJunction="J4" toJunction="J5" end="9000" vehsPerHour="171.75"/>
  <flow id="JF548" begin="8000" fromJunction="J4" toJunction="J6" end="9000" vehsPerHour="171.75"/>
  <flow id="JF549" begin="8000" fromJunction="J4" toJunction="J7" end="9000" vehsPerHour="171.75"/>
  <flow id="JF550" begin="8000" fromJunction="J5" toJunction="J0" end="9000" vehsPerHour="54.96000000000001"/>
  <flow id="JF551" begin="8000" fromJunction="J5" toJunction="J3" end="9000" vehsPerHour="54.96000000000001"/>
  <flow id="JF552" begin="8000" fromJunction="J5" toJunction="J4" end="9000" vehsPerHour="54.96000000000001"/>
  <flow id="JF553" begin="8000" fromJunction="J5" toJunction="J6" end="9000" vehsPerHour="54.96000000000001"/>
  <flow id="JF554" begin="8000" fromJunction="J5" toJunction="J7" end="9000" vehsPerHour="54.96000000000001"/>
  <flow id="JF555" begin="8000" fromJunction="J6" toJunction="J0" end="9000" vehsPerHour="687.0"/>
  <flow id="JF556" begin="8000" fromJunction="J6" toJunction="J3" end="9000" vehsPerHour="171.75"/>
  <flow id="JF557" begin="8000" fromJunction="J6" toJunction="J4" end="9000" vehsPerHour="171.75"/>
  <flow id="JF558" begin="8000" fromJunction="J6" toJunction="J5" end="9000" vehsPerHour="171.75"/>
  <flow id="JF559" begin="8000" fromJunction="J6" toJunction="J7" end="9000" vehsPerHour="171.75"/>
  <flow id="JF560" begin="8000" fromJunction="J7" toJunction="J0" end="9000" vehsPerHour="687.0"/>
  <flow id="JF561" begin="8000" fromJunction="J7" toJunction="J3" end="9000" vehsPerHour="171.75"/>
  <flow id="JF562" begin="8000" fromJunction="J7" toJunction="J4" end="9000" vehsPerHour="171.75"/>
  <flow id="JF563" begin="8000" fromJunction="J7" toJunction="J5" end="9000" vehsPerHour="171.75"/>
  <flow id="JF564" begin="8000" fromJunction="J7" toJunction="J6" end="9000" vehsPerHour="171.75"/>
  <flow id="JF565" begin="8000" fromJunction="J0" toJunction="J3" end="9000" vehsPerHour="109.92000000000002"/>
  <flow id="JF566" begin="8000" fromJunction="J0" toJunction="J4" end="9000" vehsPerHour="109.92000000000002"/>
  <flow id="JF567" begin="8000" fromJunction="J0" toJunction="J5" end="9000" vehsPerHour="109.92000000000002"/>
  <flow id="JF568" begin="8000" fromJunction="J0" toJunction="J6" end="9000" vehsPerHour="109.92000000000002"/>
  <flow id="JF569" begin="8000" fromJunction="J0" toJunction="J7" end="9000" vehsPerHour="109.92000000000002"/>
  <flow id="JF570" begin="9000" fromJunction="J3" toJunction="J0" end="10000" vehsPerHour="1374.0"/>
  <flow id="JF571" begin="9000" fromJunction="J3" toJunction="J4" end="10000" vehsPerHour="343.5"/>
  <flow id="JF572" begin="9000" fromJunction="J3" toJunction="J5" end="10000" vehsPerHour="343.5"/>
  <flow id="JF573" begin="9000" fromJunction="J3" toJunction="J6" end="10000" vehsPerHour="343.5"/>
  <flow id="JF574" begin="9000" fromJunction="J3" toJunction="J7" end="10000" vehsPerHour="343.5"/>
  <flow id="JF575" begin="9000" fromJunction="J4" toJunction="J0" end="10000" vehsPerHour="54.96000000000001"/>
  <flow id="JF576" begin="9000" fromJunction="J4" toJunction="J3" end="10000" vehsPerHour="54.96000000000001"/>
  <flow id="JF577" begin="9000" fromJunction="J4" toJunction="J5" end="10000" vehsPerHour="54.96000000000001"/>
  <flow id="JF578" begin="9000" fromJunction="J4" toJunction="J6" end="10000" vehsPerHour="54.96000000000001"/>
  <flow id="JF579" begin="9000" fromJunction="J4" toJunction="J7" end="10000" vehsPerHour="54.96000000000001"/>
  <flow id="JF580" begin="9000" fromJunction="J5" toJunction="J0" end="10000" vehsPerHour="54.96000000000001"/>