<?xml version="1.0" encoding="UTF-8"?>
<routes xmlns:xsi="http://www.w3.org/2001/XMLSchema-instance" xsi:noNamespaceSchemaLocation="http://sumo.dlr.de/xsd/routes_file.xsd">
  <flow id="JF15491" begin="0" fromJunction="J0" toJunction="J12" end="360" vehsPerHour="22.300514577603604" departLane="free" arrivalSpeed="0.0"/>
  <flow id="JF15492" begin="0" fromJunction="J0" toJunction="J13" end="360" vehsPerHour="61.503717533052566" departLane="free" arrivalSpeed="0.0"/>
  <flow id="JF15493" begin="0" fromJunction="J0" toJunction="J14" end="360" vehsPerHour="44.704876517591075" departLane="free" arrivalSpeed="0.0"/>
  <flow id="JF15494" begin="0" fromJunction="J0" toJunction="J15" end="360" vehsPerHour="62.25708904465135" departLane="free" arrivalSpeed="0.0"/>
  <flow id="JF15495" begin="0" fromJunction="J0" toJunction="J16" end="360" vehsPerHour="1.0419780493082875" departLane="free" arrivalSpeed="0.0"/>
  <flow id="JF15496" begin="0" fromJunction="J0" toJunction="J2" end="360" vehsPerHour="11.442765579376614" departLane="free" arrivalSpeed="0.0"/>
  <flow id="JF15497" begin="0" fromJunction="J0" toJunction="J3" end="360" vehsPerHour="40.82084725074933" departLane="free" arrivalSpeed="0.0"/>
  <flow id="JF15498" begin="0" fromJunction="J0" toJunction="J7" end="360" vehsPerHour="1.9083936820700032" departLane="free" arrivalSpeed="0.0"/>
  <flow id="JF15499" begin="0" fromJunction="J12" toJunction="J0" end="360" vehsPerHour="40.31356753664878" departLane="free" arrivalSpeed="0.0"/>
  <flow id="JF15500" begin="0" fromJunction="J12" toJunction="J15" end="360" vehsPerHour="4.133154822151551" departLane="free" arrivalSpeed="0.0"/>
  <flow id="JF15501" begin="0" fromJunction="J12" toJunction="J16" end="360" vehsPerHour="17.99235028068183" departLane="free" arrivalSpeed="0.0"/>
  <flow id="JF15502" begin="0" fromJunction="J12" toJunction="J2" end="360" vehsPerHour="58.14552805243203" departLane="free" arrivalSpeed="0.0"/>
  <flow id="JF15503" begin="0" fromJunction="J12" toJunction="J3" end="360" vehsPerHour="60.518637097373784" departLane="free" arrivalSpeed="0.0"/>
  <flow id="JF15504" begin="0" fromJunction="J12" toJunction="J6" end="360" vehsPerHour="45.078857238291306" departLane="free" arrivalSpeed="0.0"/>
  <flow id="JF15505" begin="0" fromJunction="J12" toJunction="J7" end="360" vehsPerHour="2.1149448329051372" departLane="free" arrivalSpeed="0.0"/>
  <flow id="JF15506" begin="0" fromJunction="J12" toJunction="J9" end="360" vehsPerHour="33.17241067765631" departLane="free" arrivalSpeed="0.0"/>
  <flow id="JF15507" begin="0" fromJunction="J13" toJunction="J0" end="360" vehsPerHour="42.357733954755005" departLane="free" arrivalSpeed="0.0"/>
  <flow id="JF15508" begin="0" fromJunction="J13" toJunction="J12" end="360" vehsPerHour="57.375766341424615" departLane="free" arrivalSpeed="0.0"/>
  <flow id="JF15509" begin="0" fromJunction="J13" toJunction="J14" end="360" vehsPerHour="35.98718999071217" departLane="free" arrivalSpeed="0.0"/>
  <flow id="JF15510" begin="0" fromJunction="J13" toJunction="J15" end="360" vehsPerHour="32.61916294081895" departLane="free" arrivalSpeed="0.0"/>
  <flow id="JF15511" begin="0" fromJunction="J13" toJunction="J16" end="360" vehsPerHour="6.148342479915892" departLane="free" arrivalSpeed="0.0"/>
  <flow id="JF15512" begin="0" fromJunction="J13" toJunction="J2" end="360" vehsPerHour="58.606131942367256" departLane="free" arrivalSpeed="0.0"/>
  <flow id="JF15513" begin="0" fromJunction="J13" toJunction="J6" end="360" vehsPerHour="63.97626386975119" departLane="free" arrivalSpeed="0.0"/>
  <flow id="JF15514" begin="0" fromJunction="J13" toJunction="J7" end="360" vehsPerHour="57.376768989521985" departLane="free" arrivalSpeed="0.0"/>
  <flow id="JF15515" begin="0" fromJunction="J13" toJunction="J8" end="360" vehsPerHour="46.60866009409289" departLane="free" arrivalSpeed="0.0"/>
  <flow id="JF15516" begin="0" fromJunction="J14" toJunction="J0" end="360" vehsPerHour="25.24011416868227" departLane="free" arrivalSpeed="0.0"/>
  <flow id="JF15517" begin="0" fromJunction="J14" toJunction="J12" end="360" vehsPerHour="27.93266212309895" departLane="free" arrivalSpeed="0.0"/>
  <flow id="JF15518" begin="0" fromJunction="J14" toJunction="J2" end="360" vehsPerHour="33.340679118513314" departLane="free" arrivalSpeed="0.0"/>
  <flow id="JF15519" begin="0" fromJunction="J14" toJunction="J3" end="360" vehsPerHour="36.986993639278985" departLane="free" arrivalSpeed="0.0"/>
  <flow id="JF15520" begin="0" fromJunction="J14" toJunction="J6" end="360" vehsPerHour="48.03611946265494" departLane="free" arrivalSpeed="0.0"/>
  <flow id="JF15521" begin="0" fromJunction="J14" toJunction="J7" end="360" vehsPerHour="45.966407678356504" departLane="free" arrivalSpeed="0.0"/>
  <flow id="JF15522" begin="0" fromJunction="J14" toJunction="J8" end="360" vehsPerHour="11.836522851010196" departLane="free" arrivalSpeed="0.0"/>
  <flow id="JF15523" begin="0" fromJunction="J14" toJunction="J9" end="360" vehsPerHour="11.294424491218152" departLane="free" arrivalSpeed="0.0"/>
  <flow id="JF15524" begin="0" fromJunction="J15" toJunction="J12" end="360" vehsPerHour="24.217994234290366" departLane="free" arrivalSpeed="0.0"/>
  <flow id="JF15525" begin="0" fromJunction="J15" toJunction="J14" end="360" vehsPerHour="64.84483265405368" departLane="free" arrivalSpeed="0.0"/>
  <flow id="JF15526" begin="0" fromJunction="J15" toJunction="J16" end="360" vehsPerHour="18.832945189179735" departLane="free" arrivalSpeed="0.0"/>
  <flow id="JF15527" begin="0" fromJunction="J15" toJunction="J2" end="360" vehsPerHour="49.80941585745467" departLane="free" arrivalSpeed="0.0"/>
  <flow id="JF15528" begin="0" fromJunction="J15" toJunction="J3" end="360" vehsPerHour="30.650953190947387" departLane="free" arrivalSpeed="0.0"/>
  <flow id="JF15529" begin="0" fromJunction="J15" toJunction="J8" end="360" vehsPerHour="41.50749611360177" departLane="free" arrivalSpeed="0.0"/>
  <flow id="JF15530" begin="0" fromJunction="J15" toJunction="J9" end="360" vehsPerHour="27.789762434455067" departLane="free" arrivalSpeed="0.0"/>
  <flow id="JF15531" begin="0" fromJunction="J16" toJunction="J12" end="360" vehsPerHour="74.31723097935743" departLane="free" arrivalSpeed="0.0"/>
  <flow id="JF15532" begin="0" fromJunction="J16" toJunction="J14" end="360" vehsPerHour="103.26518677021771" departLane="free" arrivalSpeed="0.0"/>
  <flow id="JF15533" begin="0" fromJunction="J16" toJunction="J6" end="360" vehsPerHour="72.26834565096881" departLane="free" arrivalSpeed="0.0"/>
  <flow id="JF15534" begin="0" fromJunction="J16" toJunction="J7" end="360" vehsPerHour="73.20991989529726" departLane="free" arrivalSpeed="0.0"/>
  <flow id="JF15535" begin="0" fromJunction="J16" toJunction="J8" end="360" vehsPerHour="0.4130750300594605" departLane="free" arrivalSpeed="0.0"/>
  <flow id="JF15536" begin="0" fromJunction="J2" toJunction="J0" end="360" vehsPerHour="109.96582375414053" departLane="free" arrivalSpeed="0.0"/>
  <flow id="JF15537" begin="0" fromJunction="J2" toJunction="J12" end="360" vehsPerHour="0.6658149009122206" departLane="free" arrivalSpeed="0.0"/>
  <flow id="JF15538" begin="0" fromJunction="J2" toJunction="J14" end="360" vehsPerHour="94.66248882252063" departLane="free" arrivalSpeed="0.0"/>
  <flow id="JF15539" begin="0" fromJunction="J2" toJunction="J3" end="360" vehsPerHour="41.36074268098409" departLane="free" arrivalSpeed="0.0"/>
  <flow id="JF15540" begin="0" fromJunction="J2" toJunction="J6" end="360" vehsPerHour="100.08534344820195" departLane="free" arrivalSpeed="0.0"/>
  <flow id="JF15541" begin="0" fromJunction="J3" toJunction="J0" end="360" vehsPerHour="32.27806217604152" departLane="free" arrivalSpeed="0.0"/>
  <flow id="JF15542" begin="0" fromJunction="J3" toJunction="J13" end="360" vehsPerHour="68.01449627395147" departLane="free" arrivalSpeed="0.0"/>
  <flow id="JF15543" begin="0" fromJunction="J3" toJunction="J2" end="360" vehsPerHour="14.611619353699444" departLane="free" arrivalSpeed="0.0"/>
  <flow id="JF15544" begin="0" fromJunction="J3" toJunction="J7" end="360" vehsPerHour="64.02462693509432" departLane="free" arrivalSpeed="0.0"/>
  <flow id="JF15545" begin="0" fromJunction="J3" toJunction="J8" end="360" vehsPerHour="27.727334933189802" departLane="free" arrivalSpeed="0.0"/>
  <flow id="JF15546" begin="0" fromJunction="J3" toJunction="J9" end="360" vehsPerHour="15.988809673270893" departLane="free" arrivalSpeed="0.0"/>
  <flow id="JF15547" begin="0" fromJunction="J6" toJunction="J0" end="360" vehsPerHour="35.27113020313342" departLane="free" arrivalSpeed="0.0"/>
  <flow id="JF15548" begin="0" fromJunction="J6" toJunction="J12" end="360" vehsPerHour="68.00903498500809" departLane="free" arrivalSpeed="0.0"/>
  <flow id="JF15549" begin="0" fromJunction="J6" toJunction="J13" end="360" vehsPerHour="40.84256409854725" departLane="free" arrivalSpeed="0.0"/>
  <flow id="JF15550" begin="0" fromJunction="J6" toJunction="J15" end="360" vehsPerHour="48.17397751681097" departLane="free" arrivalSpeed="0.0"/>
  <flow id="JF15551" begin="0" fromJunction="J6" toJunction="J16" end="360" vehsPerHour="20.967358018169296" departLane="free" arrivalSpeed="0.0"/>
  <flow id="JF15552" begin="0" fromJunction="J6" toJunction="J3" end="360" vehsPerHour="59.209896901838874" departLane="free" arrivalSpeed="0.0"/>
  <flow id="JF15553" begin="0" fromJunction="J6" toJunction="J8" end="360" vehsPerHour="21.914108181080188" departLane="free" arrivalSpeed="0.0"/>
  <flow id="JF15554" begin="0" fromJunction="J6" toJunction="J9" end="360" vehsPerHour="26.826010076962067" departLane="free" arrivalSpeed="0.0"/>
  <flow id="JF15555" begin="0" fromJunction="J7" toJunction="J0" end="360" vehsPerHour="31.133486043921046" departLane="free" arrivalSpeed="0.0"/>
  <flow id="JF15556" begin="0" fromJunction="J7" toJunction="J12" end="360" vehsPerHour="27.000001142208415" departLane="free" arrivalSpeed="0.0"/>
  <flow id="JF15557" begin="0" fromJunction="J7" toJunction="J13" end="360" vehsPerHour="57.568740390027294" departLane="free" arrivalSpeed="0.0"/>
  <flow id="JF15558" begin="0" fromJunction="J7" toJunction="J15" end="360" vehsPerHour="64.93582103055193" departLane="free" arrivalSpeed="0.0"/>
  <flow id="JF15559" begin="0" fromJunction="J7" toJunction="J16" end="360" vehsPerHour="44.161772271382915" departLane="free" arrivalSpeed="0.0"/>
  <flow id="JF15560" begin="0" fromJunction="J7" toJunction="J2" end="360" vehsPerHour="64.56961508667604" departLane="free" arrivalSpeed="0.0"/>
  <flow id="JF15561" begin="0" fromJunction="J7" toJunction="J3" end="360" vehsPerHour="55.40975881371385" departLane="free" arrivalSpeed="0.0"/>
  <flow id="JF15562" begin="0" fromJunction="J7" toJunction="J6" end="360" vehsPerHour="30.07534379844636" departLane="free" arrivalSpeed="0.0"/>
  <flow id="JF15563" begin="0" fromJunction="J7" toJunction="J8" end="360" vehsPerHour="44.62692054652759" departLane="free" arrivalSpeed="0.0"/>
  <flow id="JF15564" begin="0" fromJunction="J7" toJunction="J9" end="360" vehsPerHour="39.79556279962357" departLane="free" arrivalSpeed="0.0"/>
  <flow id="JF15565" begin="0" fromJunction="J8" toJunction="J0" end="360" vehsPerHour="53.82394981275037" departLane="free" arrivalSpeed="0.0"/>
  <flow id="JF15566" begin="0" fromJunction="J8" toJunction="J12" end="360" vehsPerHour="58.69451118218805" departLane="free" arrivalSpeed="0.0"/>
  <flow id="JF15567" begin="0" fromJunction="J8" toJunction="J13" end="360" vehsPerHour="9.456112821352328" departLane="free" arrivalSpeed="0.0"/>
  <flow id="JF15568" begin="0" fromJunction="J8" toJunction="J14" end="360" vehsPerHour="31.358378186860325" departLane="free" arrivalSpeed="0.0"/>
  <flow id="JF15569" begin="0" fromJunction="J8" toJunction="J16" end="360" vehsPerHour="5.3529861589542636" departLane="free" arrivalSpeed="0.0"/>
  <flow id="JF15570" begin="0" fromJunction="J8" toJunction="J2" end="360" vehsPerHour="0.39327794943896976" departLane="free" arrivalSpeed="0.0"/>
  <flow id="JF15571" begin="0" fromJunction="J8" toJunction="J3" end="360" vehsPerHour="10.107816338060957" departLane="free" arrivalSpeed="0.0"/>
  <flow id="JF15572" begin="0" fromJunction="J8" toJunction="J6" end="360" vehsPerHour="5.38820629372106" departLane="free" arrivalSpeed="0.0"/>
  <flow id="JF15573" begin="0" fromJunction="J8" toJunction="J7" end="360" vehsPerHour="53.9419026318302" departLane="free" arrivalSpeed="0.0"/>
  <flow id="JF15574" begin="0" fromJunction="J8" toJunction="J9" end="360" vehsPerHour="63.39523956575875" departLane="free" arrivalSpeed="0.0"/>
  <flow id="JF15575" begin="0" fromJunction="J9" toJunction="J12" end="360" vehsPerHour="52.282806600513325" departLane="free" arrivalSpeed="0.0"/>
  <flow id="JF15576" begin="0" fromJunction="J9" toJunction="J13" end="360" vehsPerHour="45.1453278732821" departLane="free" arrivalSpeed="0.0"/>
  <flow id="JF15577" begin="0" fromJunction="J9" toJunction="J14" end="360" vehsPerHour="63.88873780583139" departLane="free" arrivalSpeed="0.0"/>
  <flow id="JF15578" begin="0" fromJunction="J9" toJunction="J15" end="360" vehsPerHour="1.6774218325735293" departLane="free" arrivalSpeed="0.0"/>
  <flow id="JF15579" begin="0" fromJunction="J9" toJunction="J2" end="360" vehsPerHour="67.98247901815287" departLane="free" arrivalSpeed="0.0"/>
  <flow id="JF15580" begin="0" fromJunction="J9" toJunction="J6" end="360" vehsPerHour="37.803690190686204" departLane="free" arrivalSpeed="0.0"/>
  <flow id="JF15581" begin="0" fromJunction="J9" toJunction="J7" end="360" vehsPerHour="37.391433339122884" departLane="free" arrivalSpeed="0.0"/>
  <flow id="JF15582" begin="360" fromJunction="J0" toJunction="J13" end="720" vehsPerHour="45.208445046034285" departLane="free" arrivalSpeed="0.0"/>
  <flow id="JF15583" begin="360" fromJunction="J0" toJunction="J14" end="720" vehsPerHour="1.8882001187930373" departLane="free" arrivalSpeed="0.0"/>
  <flow id="JF15584" begin="360" fromJunction="J0" toJunction="J15" end="720" vehsPerHour="62.04417718033367" departLane="free" arrivalSpeed="0.0"/>
  <flow id="JF15585" begin="360" fromJunction="J0" toJunction="J16" end="720" vehsPerHour="54.8731856561379" departLane="free" arrivalSpeed="0.0"/>
  <flow id="JF15586" begin="360" fromJunction="J0" toJunction="J2" end="720" vehsPerHour="16.717388487045216" departLane="free" arrivalSpeed="0.0"/>
  <flow id="JF15587" begin="360" fromJunction="J0" toJunction="J3" end="720" vehsPerHour="49.843427916947554" departLane="free" arrivalSpeed="0.0"/>
  <flow id="JF15588" begin="360" fromJunction="J0" toJunction="J6" end="720" vehsPerHour="7.5499271201696665" departLane="free" arrivalSpeed="0.0"/>
  <flow id="JF15589" begin="360" fromJunction="J0" toJunction="J7" end="720" vehsPerHour="32.5759493445943" departLane="free" arrivalSpeed="0.0"/>
  <flow id="JF15590" begin="360" fromJunction="J12" toJunction="J13" end="720" vehsPerHour="43.58403701459122" departLane="free" arrivalSpeed="0.0"/>
  <flow id="JF15591" begin="360" fromJunction="J12" toJunction="J2" end="720" vehsPerHour="6.838845587729678" departLane="free" arrivalSpeed="0.0"/>
  <flow id="JF15592" begin="360" fromJunction="J12" toJunction="J6" end="720" vehsPerHour="44.1158840083759" departLane="free" arrivalSpeed="0.0"/>
  <flow id="JF15593" begin="360" fromJunction="J12" toJunction="J7" end="720" vehsPerHour="0.9636635919603925" departLane="free" arrivalSpeed="0.0"/>
  <flow id="JF15594" begin="360" fromJunction="J12" toJunction="J8" end="720" vehsPerHour="36.07258155838285" departLane="free" arrivalSpeed="0.0"/>
  <flow id="JF15595" begin="360" fromJunction="J12" toJunction="J9" end="720" vehsPerHour="61.61578892668878" departLane="free" arrivalSpeed="0.0"/>
  <flow id="JF15596" begin="360" fromJunction="J13" toJunction="J0" end="720" vehsPerHour="51.53621434184706" departLane="free" arrivalSpeed="0.0"/>
  <flow id="JF15597" begin="360" fromJunction="J13" toJunction="J12" end="720" vehsPerHour="32.75472945997426" departLane="free" arrivalSpeed="0.0"/>
  <flow id="JF15598" begin="360" fromJunction="J13" toJunction="J14" end="720" vehsPerHour="23.01733177047106" departLane="free" arrivalSpeed="0.0"/>
  <flow id="JF15599" begin="360" fromJunction="J13" toJunction="J16" end="720" vehsPerHour="24.990030526361654" departLane="free" arrivalSpeed="0.0"/>
  <flow id="JF15600" begin="360" fromJunction="J13" toJunction="J2" end="720" vehsPerHour="16.717633886847736" departLane="free" arrivalSpeed="0.0"/>
  <flow id="JF15601" begin="360" fromJunction="J13" toJunction="J3" end="720" vehsPerHour="7.831519427987638" departLane="free" arrivalSpeed="0.0"/>
  <flow id="JF15602" begin="360" fromJunction="J13" toJunction="J6" end="720" vehsPerHour="38.642978321989524" departLane="free" arrivalSpeed="0.0"/>
  <flow id="JF15603" begin="360" fromJunction="J13" toJunction="J7" end="720" vehsPerHour="63.768873032768525" departLane="free" arrivalSpeed="0.0"/>
  <flow id="JF15604" begin="360" fromJunction="J13" toJunction="J8" end="720" vehsPerHour="53.26432737212786" departLane="free" arrivalSpeed="0.0"/>
  <flow id="JF15605" begin="360" fromJunction="J13" toJunction="J9" end="720" vehsPerHour="40.49687888858808" departLane="free" arrivalSpeed="0.0"/>
  <flow id="JF15606" begin="360" fromJunction="J14" toJunction="J12" end="720" vehsPerHour="1.2937174569693028" departLane="free" arrivalSpeed="0.0"/>
  <flow id="JF15607" begin="360" fromJunction="J14" toJunction="J13" end="720" vehsPerHour="51.699813648835075" departLane="free" arrivalSpeed="0.0"/>
  <flow id="JF15608" begin="360" fromJunction="J14" toJunction="J15" end="720" vehsPerHour="47.7263308284905" departLane="free" arrivalSpeed="0.0"/>
  <flow id="JF15609" begin="360" fromJunction="J14" toJunction="J16" end="720" vehsPerHour="68.1011124736054" departLane="free" arrivalSpeed="0.0"/>
  <flow id="JF15610" begin="360" fromJunction="J14" toJunction="J2" end="720" vehsPerHour="55.371514964795345" departLane="free" arrivalSpeed="0.0"/>
  <flow id="JF15611" begin="360" fromJunction="J14" toJunction="J3" end="720" vehsPerHour="38.65418204802347" departLane="free" arrivalSpeed="0.0"/>
  <flow id="JF15612" begin="360" fromJunction="J14" toJunction="J6" end="720" vehsPerHour="64.9598430130339" departLane="free" arrivalSpeed="0.0"/>
  <flow id="JF15613" begin="360" fromJunction="J14" toJunction="J7" end="720" vehsPerHour="22.028592251956134" departLane="free" arrivalSpeed="0.0"/>
  <flow id="JF15614" begin="360" fromJunction="J14" toJunction="J8" end="720" vehsPerHour="32.48583017497459" departLane="free" arrivalSpeed="0.0"/>
  <flow id="JF15615" begin="360" fromJunction="J14" toJunction="J9" end="720" vehsPerHour="17.69225751782013" departLane="free" arrivalSpeed="0.0"/>
  <flow id="JF15616" begin="360" fromJunction="J15" toJunction="J0" end="720" vehsPerHour="0.29643662062908127" departLane="free" arrivalSpeed="0.0"/>
  <flow id="JF15617" begin="360" fromJunction="J15" toJunction="J12" end="720" vehsPerHour="5.624350803900085" departLane="free" arrivalSpeed="0.0"/>
  <flow id="JF15618" begin="360" fromJunction="J15" toJunction="J13" end="720" vehsPerHour="48.321504962390904" departLane="free" arrivalSpeed="0.0"/>
  <flow id="JF15619" begin="360" fromJunction="J15" toJunction="J16" end="720" vehsPerHour="8.545905914781398" departLane="free" arrivalSpeed="0.0"/>
  <flow id="JF15620" begin="360" fromJunction="J15" toJunction="J2" end="720" vehsPerHour="1.9880208745999706" departLane="free" arrivalSpeed="0.0"/>
  <flow id="JF15621" begin="360" fromJunction="J15" toJunction="J3" end="720" vehsPerHour="67.44693206469077" departLane="free" arrivalSpeed="0.0"/>
  <flow id="JF15622" begin="360" fromJunction="J15" toJunction="J6" end="720" vehsPerHour="59.573281659820296" departLane="free" arrivalSpeed="0.0"/>
  <flow id="JF15623" begin="360" fromJunction="J15" toJunction="J7" end="720" vehsPerHour="30.503768997080563" departLane="free" arrivalSpeed="0.0"/>
  <flow id="JF15624" begin="360" fromJunction="J15" toJunction="J9" end="720" vehsPerHour="65.25700066819132" departLane="free" arrivalSpeed="0.0"/>
  <flow id="JF15625" begin="360" fromJunction="J16" toJunction="J12" end="720" vehsPerHour="95.57749753124114" departLane="free" arrivalSpeed="0.0"/>
  <flow id="JF15626" begin="360" fromJunction="J16" toJunction="J13" end="720" vehsPerHour="117.30438257307117" departLane="free" arrivalSpeed="0.0"/>
  <flow id="JF15627" begin="360" fromJunction="J16" toJunction="J15" end="720" vehsPerHour="80.30907310561955" departLane="free" arrivalSpeed="0.0"/>
  <flow id="JF15628" begin="360" fromJunction="J16" toJunction="J3" end="720" vehsPerHour="55.5956902755934" departLane="free" arrivalSpeed="0.0"/>
  <flow id="JF15629" begin="360" fromJunction="J16" toJunction="J6" end="720" vehsPerHour="123.68029827071105" departLane="free" arrivalSpeed="0.0"/>
  <flow id="JF15630" begin="360" fromJunction="J16" toJunction="J7" end="720" vehsPerHour="122.20245678077443" departLane="free" arrivalSpeed="0.0"/>
  <flow id="JF15631" begin="360" fromJunction="J16" toJunction="J8" end="720" vehsPerHour="8.964635666291624" departLane="free" arrivalSpeed="0.0"/>
  <flow id="JF15632" begin="360" fromJunction="J16" toJunction="J9" end="720" vehsPerHour="89.42238627985664" departLane="free" arrivalSpeed="0.0"/>
  <flow id="JF15633" begin="360" fromJunction="J2" toJunction="J0" end="720" vehsPerHour="90.13692197698336" departLane="free" arrivalSpeed="0.0"/>
  <flow id="JF15634" begin="360" fromJunction="J2" toJunction="J13" end="720" vehsPerHour="90.33852782793177" departLane="free" arrivalSpeed="0.0"/>
  <flow id="JF15635" begin="360" fromJunction="J2" toJunction="J15" end="720" vehsPerHour="18.218896278157914" departLane="free" arrivalSpeed="0.0"/>
  <flow id="JF15636" begin="360" fromJunction="J3" toJunction="J0" end="720" vehsPerHour="48.36783055566244" departLane="free" arrivalSpeed="0.0"/>
  <flow id="JF15637" begin="360" fromJunction="J3" toJunction="J12" end="720" vehsPerHour="14.721197785421873" departLane="free" arrivalSpeed="0.0"/>
  <flow id="JF15638" begin="360" fromJunction="J3" toJunction="J13" end="720" vehsPerHour="54.482018317583254" departLane="free" arrivalSpeed="0.0"/>
  <flow id="JF15639" begin="360" fromJunction="J3" toJunction="J14" end="720" vehsPerHour="15.427893767397137" departLane="free" arrivalSpeed="0.0"/>
  <flow id="JF15640" begin="360" fromJunction="J3" toJunction="J15" end="720" vehsPerHour="46.26353928308046" departLane="free" arrivalSpeed="0.0"/>
  <flow id="JF15641" begin="360" fromJunction="J3" toJunction="J16" end="720" vehsPerHour="17.595376324317122" departLane="free" arrivalSpeed="0.0"/>
  <flow id="JF15642" begin="360" fromJunction="J3" toJunction="J2" end="720" vehsPerHour="49.42564187892538" departLane="free" arrivalSpeed="0.0"/>
  <flow id="JF15643" begin="360" fromJunction="J3" toJunction="J6" end="720" vehsPerHour="11.988643748964266" departLane="free" arrivalSpeed="0.0"/>
  <flow id="JF15644" begin="360" fromJunction="J3" toJunction="J8" end="720" vehsPerHour="28.905157645919886" departLane="free" arrivalSpeed="0.0"/>
  <flow id="JF15645" begin="360" fromJunction="J6" toJunction="J0" end="720" vehsPerHour="41.583074535118655" departLane="free" arrivalSpeed="0.0"/>
  <flow id="JF15646" begin="360" fromJunction="J6" toJunction="J12" end="720" vehsPerHour="54.029809033131" departLane="free" arrivalSpeed="0.0"/>
  <flow id="JF15647" begin="360" fromJunction="J6" toJunction="J13" end="720" vehsPerHour="17.456221502714538" departLane="free" arrivalSpeed="0.0"/>
  <flow id="JF15648" begin="360" fromJunction="J6" toJunction="J16" end="720" vehsPerHour="29.91236782777274" departLane="free" arrivalSpeed="0.0"/>
  <flow id="JF15649" begin="360" fromJunction="J6" toJunction="J2" end="720" vehsPerHour="59.68415279816417" departLane="free" arrivalSpeed="0.0"/>
  <flow id="JF15650" begin="360" fromJunction="J6" toJunction="J3" end="720" vehsPerHour="10.295037855696782" departLane="free" arrivalSpeed="0.0"/>
  <flow id="JF15651" begin="360" fromJunction="J6" toJunction="J7" end="720" vehsPerHour="4.905862940714574" departLane="free" arrivalSpeed="0.0"/>
  <flow id="JF15652" begin="360" fromJunction="J6" toJunction="J8" end="720" vehsPerHour="34.49569427575713" departLane="free" arrivalSpeed="0.0"/>
  <flow id="JF15653" begin="360" fromJunction="J6" toJunction="J9" end="720" vehsPerHour="37.40026084334034" departLane="free" arrivalSpeed="0.0"/>
  <flow id="JF15654" begin="360" fromJunction="J7" toJunction="J0" end="720" vehsPerHour="52.14978270335794" departLane="free" arrivalSpeed="0.0"/>
  <flow id="JF15655" begin="360" fromJunction="J7" toJunction="J13" end="720" vehsPerHour="35.74801487852536" departLane="free" arrivalSpeed="0.0"/>
  <flow id="JF15656" begin="360" fromJunction="J7" toJunction="J14" end="720" vehsPerHour="22.06436844406568" departLane="free" arrivalSpeed="0.0"/>
  <flow id="JF15657" begin="360" fromJunction="J7" toJunction="J15" end="720" vehsPerHour="39.198201627450246" departLane="free" arrivalSpeed="0.0"/>
  <flow id="JF15658" begin="360" fromJunction="J7" toJunction="J16" end="720" vehsPerHour="13.426305435363124" departLane="free" arrivalSpeed="0.0"/>
  <flow id="JF15659" begin="360" fromJunction="J7" toJunction="J3" end="720" vehsPerHour="62.396803816113355" departLane="free" arrivalSpeed="0.0"/>
  <flow id="JF15660" begin="360" fromJunction="J7" toJunction="J8" end="720" vehsPerHour="39.02623850797828" departLane="free" arrivalSpeed="0.0"/>
  <flow id="JF15661" begin="360" fromJunction="J8" toJunction="J0" end="720" vehsPerHour="2.59491368243485" departLane="free" arrivalSpeed="0.0"/>
  <flow id="JF15662" begin="360" fromJunction="J8" toJunction="J12" end="720" vehsPerHour="60.46483904220402" departLane="free" arrivalSpeed="0.0"/>
  <flow id="JF15663" begin="360" fromJunction="J8" toJunction="J13" end="720" vehsPerHour="59.116561623394226" departLane="free" arrivalSpeed="0.0"/>
  <flow id="JF15664" begin="360" fromJunction="J8" toJunction="J14" end="720" vehsPerHour="57.51733448224003" departLane="free" arrivalSpeed="0.0"/>
  <flow id="JF15665" begin="360" fromJunction="J8" toJunction="J15" end="720" vehsPerHour="56.21552871157149" departLane="free" arrivalSpeed="0.0"/>
  <flow id="JF15666" begin="360" fromJunction="J8" toJunction="J16" end="720" vehsPerHour="68.6861108420986" departLane="free" arrivalSpeed="0.0"/>
  <flow id="JF15667" begin="360" fromJunction="J8" toJunction="J2" end="720" vehsPerHour="12.572697677519699" departLane="free" arrivalSpeed="0.0"/>
  <flow id="JF15668" begin="360" fromJunction="J8" toJunction="J3" end="720" vehsPerHour="3.350173548412089" departLane="free" arrivalSpeed="0.0"/>
  <flow id="JF15669" begin="360" fromJunction="J8" toJunction="J6" end="720" vehsPerHour="41.469456751080955" departLane="free" arrivalSpeed="0.0"/>
  <flow id="JF15670" begin="360" fromJunction="J9" toJunction="J0" end="720" vehsPerHour="52.57552617873178" departLane="free" arrivalSpeed="0.0"/>
  <flow id="JF15671" begin="360" fromJunction="J9" toJunction="J12" end="720" vehsPerHour="57.25455037915526" departLane="free" arrivalSpeed="0.0"/>
  <flow id="JF15672" begin="360" fromJunction="J9" toJunction="J13" end="720" vehsPerHour="17.227422981114852" departLane="free" arrivalSpeed="0.0"/>
  <flow id="JF15673" begin="360" fromJunction="J9" toJunction="J15" end="720" vehsPerHour="63.16408694047145" departLane="free" arrivalSpeed="0.0"/>
  <flow id="JF15674" begin="360" fromJunction="J9" toJunction="J16" end="720" vehsPerHour="40.681127072869614" departLane="free" arrivalSpeed="0.0"/>
  <flow id="JF15675" begin="360" fromJunction="J9" toJunction="J2" end="720" vehsPerHour="51.992664533390915" departLane="free" arrivalSpeed="0.0"/>
  <flow id="JF15676" begin="360" fromJunction="J9" toJunction="J3" end="720" vehsPerHour="37.37142464827684" departLane="free" arrivalSpeed="0.0"/>
  <flow id="JF15677" begin="360" fromJunction="J9" toJunction="J7" end="720" vehsPerHour="13.477722952096835" departLane="free" arrivalSpeed="0.0"/>
  <flow id="JF15678" begin="360" fromJunction="J9" toJunction="J8" end="720" vehsPerHour="56.58035036226751" departLane="free" arrivalSpeed="0.0"/>
  <flow id="JF15679" begin="720" fromJunction="J0" toJunction="J12" end="1080" vehsPerHour="63.42486441708528" departLane="free" arrivalSpeed="0.0"/>
  <flow id="JF15680" begin="720" fromJunction="J0" toJunction="J13" end="1080" vehsPerHour="5.854879939928835" departLane="free" arrivalSpeed="0.0"/>
  <flow id="JF15681" begin="720" fromJunction="J0" toJunction="J14" end="1080" vehsPerHour="37.94686740596781" departLane="free" arrivalSpeed="0.0"/>
  <flow id="JF15682" begin="720" fromJunction="J0" toJunction="J16" end="1080" vehsPerHour="22.80265105355895" departLane="free" arrivalSpeed="0.0"/>
  <flow id="JF15683" begin="720" fromJunction="J0" toJunction="J2" end="1080" vehsPerHour="17.479560047209677" departLane="free" arrivalSpeed="0.0"/>
  <flow id="JF15684" begin="720" fromJunction="J0" toJunction="J3" end="1080" vehsPerHour="43.48936942001414" departLane="free" arrivalSpeed="0.0"/>
  <flow id="JF15685" begin="720" fromJunction="J0" toJunction="J6" end="1080" vehsPerHour="11.486181717653272" departLane="free" arrivalSpeed="0.0"/>
  <flow id="JF15686" begin="720" fromJunction="J0" toJunction="J7" end="1080" vehsPerHour="12.25228849192057" departLane="free" arrivalSpeed="0.0"/>
  <flow id="JF15687" begin="720" fromJunction="J0" toJunction="J8" end="1080" vehsPerHour="60.63229302628363" departLane="free" arrivalSpeed="0.0"/>
  <flow id="JF15688" begin="720" fromJunction="J12" toJunction="J0" end="1080" vehsPerHour="14.700368868396072" departLane="free" arrivalSpeed="0.0"/>
  <flow id="JF15689" begin="720" fromJunction="J12" toJunction="J14" end="1080" vehsPerHour="24.235984827836585" departLane="free" arrivalSpeed="0.0"/>
  <flow id="JF15690" begin="720" fromJunction="J12" toJunction="J2" end="1080" vehsPerHour="45.09247660246131" departLane="free" arrivalSpeed="0.0"/>
  <flow id="JF15691" begin="720" fromJunction="J12" toJunction="J6" end="1080" vehsPerHour="54.94366028053991" departLane="free" arrivalSpeed="0.0"/>