<?xml version="1.0" encoding="UTF-8"?>
<routes xmlns:xsi="http://www.w3.org/2001/XMLSchema-instance" xsi:noNamespaceSchemaLocation="http://sumo.dlr.de/xsd/routes_file.xsd">
  <flow id="JF3534" begin="0" fromJunction="J0" toJunction="J3" end="360" vehsPerHour="82.09191479285995" departLane="free"/>
  <flow id="JF3535" begin="0" fromJunction="J0" toJunction="J4" end="360" vehsPerHour="17.2166878339719" departLane="free"/>
  <flow id="JF3536" begin="0" fromJunction="J0" toJunction="J5" end="360" vehsPerHour="15.060167527984941" departLane="free"/>
  <flow id="JF3537" begin="0" fromJunction="J0" toJunction="J6" end="360" vehsPerHour="15.729379750110603" departLane="free"/>
  <flow id="JF3538" begin="0" fromJunction="J3" toJunction="J0" end="360" vehsPerHour="79.88079419158119" departLane="free"/>
  <flow id="JF3539" begin="0" fromJunction="J3" toJunction="J4" end="360" vehsPerHour="32.85543275789961" departLane="free"/>
  <flow id="JF3540" begin="0" fromJunction="J3" toJunction="J5" end="360" vehsPerHour="108.5227349073128" departLane="free"/>
  <flow id="JF3541" begin="0" fromJunction="J3" toJunction="J6" end="360" vehsPerHour="90.34052826439581" departLane="free"/>
  <flow id="JF3542" begin="0" fromJunction="J4" toJunction="J0" end="360" vehsPerHour="45.81504646985615" departLane="free"/>
  <flow id="JF3543" begin="0" fromJunction="J4" toJunction="J3" end="360" vehsPerHour="31.15812905361142" departLane="free"/>
  <flow id="JF3544" begin="0" fromJunction="J4" toJunction="J5" end="360" vehsPerHour="18.273519807475537" departLane="free"/>
  <flow id="JF3545" begin="0" fromJunction="J4" toJunction="J7" end="360" vehsPerHour="33.272753818329456" departLane="free"/>
  <flow id="JF3546" begin="0" fromJunction="J5" toJunction="J0" end="360" vehsPerHour="50.07171324018955" departLane="free"/>
  <flow id="JF3547" begin="0" fromJunction="J5" toJunction="J3" end="360" vehsPerHour="67.82054571298183" departLane="free"/>
  <flow id="JF3548" begin="0" fromJunction="J5" toJunction="J4" end="360" vehsPerHour="51.88873203190247" departLane="free"/>
  <flow id="JF3549" begin="0" fromJunction="J5" toJunction="J6" end="360" vehsPerHour="11.243373564412998" departLane="free"/>
  <flow id="JF3550" begin="0" fromJunction="J6" toJunction="J3" end="360" vehsPerHour="13.244942748699867" departLane="free"/>
  <flow id="JF3551" begin="0" fromJunction="J6" toJunction="J4" end="360" vehsPerHour="55.040366896428864" departLane="free"/>
  <flow id="JF3552" begin="0" fromJunction="J6" toJunction="J7" end="360" vehsPerHour="25.620228252266426" departLane="free"/>
  <flow id="JF3553" begin="0" fromJunction="J7" toJunction="J3" end="360" vehsPerHour="25.09477754174662" departLane="free"/>
  <flow id="JF3554" begin="0" fromJunction="J7" toJunction="J5" end="360" vehsPerHour="0.3456856692172189" departLane="free"/>
  <flow id="JF3555" begin="0" fromJunction="J7" toJunction="J6" end="360" vehsPerHour="45.38322214547376" departLane="free"/>
  <flow id="JF3556" begin="360" fromJunction="J0" toJunction="J3" end="720" vehsPerHour="31.0489587423097" departLane="free"/>
  <flow id="JF3557" begin="360" fromJunction="J0" toJunction="J4" end="720" vehsPerHour="64.2709897864728" departLane="free"/>
  <flow id="JF3558" begin="360" fromJunction="J0" toJunction="J7" end="720" vehsPerHour="7.89625680737798" departLane="free"/>
  <flow id="JF3559" begin="360" fromJunction="J3" toJunction="J4" end="720" vehsPerHour="82.90895107719503" departLane="free"/>
  <flow id="JF3560" begin="360" fromJunction="J3" toJunction="J5" end="720" vehsPerHour="70.62957585065396" departLane="free"/>
  <flow id="JF3561" begin="360" fromJunction="J3" toJunction="J6" end="720" vehsPerHour="115.39806717592207" departLane="free"/>
  <flow id="JF3562" begin="360" fromJunction="J4" toJunction="J5" end="720" vehsPerHour="38.22266650147035" departLane="free"/>
  <flow id="JF3563" begin="360" fromJunction="J4" toJunction="J6" end="720" vehsPerHour="14.052122739612424" departLane="free"/>
  <flow id="JF3564" begin="360" fromJunction="J4" toJunction="J7" end="720" vehsPerHour="60.97703304596318" departLane="free"/>
  <flow id="JF3565" begin="360" fromJunction="J5" toJunction="J0" end="720" vehsPerHour="34.7496941847298" departLane="free"/>
  <flow id="JF3566" begin="360" fromJunction="J5" toJunction="J4" end="720" vehsPerHour="44.26175706782806" departLane="free"/>
  <flow id="JF3567" begin="360" fromJunction="J5" toJunction="J7" end="720" vehsPerHour="4.141529880777387" departLane="free"/>
  <flow id="JF3568" begin="360" fromJunction="J6" toJunction="J3" end="720" vehsPerHour="50.30599519701734" departLane="free"/>
  <flow id="JF3569" begin="360" fromJunction="J6" toJunction="J4" end="720" vehsPerHour="5.826639803860791" departLane="free"/>
  <flow id="JF3570" begin="360" fromJunction="J6" toJunction="J5" end="720" vehsPerHour="58.00479807476026" departLane="free"/>
  <flow id="JF3571" begin="360" fromJunction="J7" toJunction="J3" end="720" vehsPerHour="5.25689093852458" departLane="free"/>
  <flow id="JF3572" begin="360" fromJunction="J7" toJunction="J5" end="720" vehsPerHour="66.50574539330088" departLane="free"/>
  <flow id="JF3573" begin="360" fromJunction="J7" toJunction="J6" end="720" vehsPerHour="63.3476595988721" departLane="free"/>
  <flow id="JF3574" begin="720" fromJunction="J0" toJunction="J3" end="1080" vehsPerHour="26.99180024519833" departLane="free"/>
  <flow id="JF3575" begin="720" fromJunction="J0" toJunction="J4" end="1080" vehsPerHour="93.38475841598337" departLane="free"/>
  <flow id="JF3576" begin="720" fromJunction="J0" toJunction="J6" end="1080" vehsPerHour="114.58529511478896" departLane="free"/>
  <flow id="JF3577" begin="720" fromJunction="J3" toJunction="J0" end="1080" vehsPerHour="55.96887002875002" departLane="free"/>
  <flow id="JF3578" begin="720" fromJunction="J3" toJunction="J4" end="1080" vehsPerHour="116.32446961332043" departLane="free"/>
  <flow id="JF3579" begin="720" fromJunction="J4" toJunction="J3" end="1080" vehsPerHour="54.50533402399959" departLane="free"/>
  <flow id="JF3580" begin="720" fromJunction="J4" toJunction="J7" end="1080" vehsPerHour="31.40081873490809" departLane="free"/>
  <flow id="JF3581" begin="720" fromJunction="J5" toJunction="J0" end="1080" vehsPerHour="31.97304451756963" departLane="free"/>
  <flow id="JF3582" begin="720" fromJunction="J5" toJunction="J3" end="1080" vehsPerHour="57.676876274332734" departLane="free"/>
  <flow id="JF3583" begin="720" fromJunction="J5" toJunction="J4" end="1080" vehsPerHour="60.92816141642798" departLane="free"/>
  <flow id="JF3584" begin="720" fromJunction="J6" toJunction="J3" end="1080" vehsPerHour="3.0281571872116317" departLane="free"/>
  <flow id="JF3585" begin="720" fromJunction="J6" toJunction="J4" end="1080" vehsPerHour="35.35010630877196" departLane="free"/>
  <flow id="JF3586" begin="720" fromJunction="J6" toJunction="J5" end="1080" vehsPerHour="11.595336862194603" departLane="free"/>
  <flow id="JF3587" begin="720" fromJunction="J7" toJunction="J0" end="1080" vehsPerHour="41.7018627738971" departLane="free"/>
  <flow id="JF3588" begin="720" fromJunction="J7" toJunction="J3" end="1080" vehsPerHour="34.065596727583774" departLane="free"/>
  <flow id="JF3589" begin="720" fromJunction="J7" toJunction="J4" end="1080" vehsPerHour="2.0561449084544217" departLane="free"/>
  <flow id="JF3590" begin="720" fromJunction="J7" toJunction="J5" end="1080" vehsPerHour="33.96788229123514" departLane="free"/>
  <flow id="JF3591" begin="720" fromJunction="J7" toJunction="J6" end="1080" vehsPerHour="41.01686530626793" departLane="free"/>
  <flow id="JF3592" begin="1080" fromJunction="J0" toJunction="J5" end="1440" vehsPerHour="119.4303736443874" departLane="free"/>
  <flow id="JF3593" begin="1080" fromJunction="J0" toJunction="J6" end="1440" vehsPerHour="56.629701220532496" departLane="free"/>
  <flow id="JF3594" begin="1080" fromJunction="J0" toJunction="J7" end="1440" vehsPerHour="60.70828718333747" departLane="free"/>
  <flow id="JF3595" begin="1080" fromJunction="J3" toJunction="J0" end="1440" vehsPerHour="46.22525521150799" departLane="free"/>
  <flow id="JF3596" begin="1080" fromJunction="J3" toJunction="J6" end="1440" vehsPerHour="21.986525532594566" departLane="free"/>
  <flow id="JF3597" begin="1080" fromJunction="J3" toJunction="J7" end="1440" vehsPerHour="98.83451727032335" departLane="free"/>
  <flow id="JF3598" begin="1080" fromJunction="J4" toJunction="J0" end="1440" vehsPerHour="38.01926039758726" departLane="free"/>
  <flow id="JF3599" begin="1080" fromJunction="J4" toJunction="J3" end="1440" vehsPerHour="10.930629920566584" departLane="free"/>
  <flow id="JF3600" begin="1080" fromJunction="J4" toJunction="J6" end="1440" vehsPerHour="32.92639222875472" departLane="free"/>
  <flow id="JF3601" begin="1080" fromJunction="J5" toJunction="J0" end="1440" vehsPerHour="50.81047104905999" departLane="free"/>
  <flow id="JF3602" begin="1080" fromJunction="J5" toJunction="J4" end="1440" vehsPerHour="11.358599561061883" departLane="free"/>
  <flow id="JF3603" begin="1080" fromJunction="J5" toJunction="J6" end="1440" vehsPerHour="18.918084106206667" departLane="free"/>
  <flow id="JF3604" begin="1080" fromJunction="J5" toJunction="J7" end="1440" vehsPerHour="26.50921700283853" departLane="free"/>
  <flow id="JF3605" begin="1080" fromJunction="J6" toJunction="J4" end="1440" vehsPerHour="5.735992547585791" departLane="free"/>
  <flow id="JF3606" begin="1080" fromJunction="J6" toJunction="J7" end="1440" vehsPerHour="34.703590448136566" departLane="free"/>
  <flow id="JF3607" begin="1080" fromJunction="J7" toJunction="J0" end="1440" vehsPerHour="24.308441382234925" departLane="free"/>
  <flow id="JF3608" begin="1080" fromJunction="J7" toJunction="J4" end="1440" vehsPerHour="31.34595086264914" departLane="free"/>
  <flow id="JF3609" begin="1080" fromJunction="J7" toJunction="J6" end="1440" vehsPerHour="26.74238811641575" departLane="free"/>
  <flow id="JF3610" begin="1440" fromJunction="J0" toJunction="J3" end="1800" vehsPerHour="30.59674800328456" departLane="free"/>
  <flow id="JF3611" begin="1440" fromJunction="J0" toJunction="J4" end="1800" vehsPerHour="93.70636289657962" departLane="free"/>
  <flow id="JF3612" begin="1440" fromJunction="J0" toJunction="J6" end="1800" vehsPerHour="20.518404245028464" departLane="free"/>
  <flow id="JF3613" begin="1440" fromJunction="J0" toJunction="J7" end="1800" vehsPerHour="78.64401644635416" departLane="free"/>
  <flow id="JF3614" begin="1440" fromJunction="J3" toJunction="J0" end="1800" vehsPerHour="95.73956933341175" departLane="free"/>
  <flow id="JF3615" begin="1440" fromJunction="J3" toJunction="J4" end="1800" vehsPerHour="51.48669934372242" departLane="free"/>
  <flow id="JF3616" begin="1440" fromJunction="J3" toJunction="J5" end="1800" vehsPerHour="92.91710308404771" departLane="free"/>
  <flow id="JF3617" begin="1440" fromJunction="J3" toJunction="J6" end="1800" vehsPerHour="36.1125672403591" departLane="free"/>
  <flow id="JF3618" begin="1440" fromJunction="J3" toJunction="J7" end="1800" vehsPerHour="114.13214438773863" departLane="free"/>
  <flow id="JF3619" begin="1440" fromJunction="J4" toJunction="J0" end="1800" vehsPerHour="20.607408248758034" departLane="free"/>
  <flow id="JF3620" begin="1440" fromJunction="J4" toJunction="J3" end="1800" vehsPerHour="59.2467623210579" departLane="free"/>
  <flow id="JF3621" begin="1440" fromJunction="J4" toJunction="J6" end="1800" vehsPerHour="22.599427232155204" departLane="free"/>
  <flow id="JF3622" begin="1440" fromJunction="J4" toJunction="J7" end="1800" vehsPerHour="67.31298234845528" departLane="free"/>
  <flow id="JF3623" begin="1440" fromJunction="J5" toJunction="J0" end="1800" vehsPerHour="32.32714493838515" departLane="free"/>
  <flow id="JF3624" begin="1440" fromJunction="J5" toJunction="J3" end="1800" vehsPerHour="35.45618157167732" departLane="free"/>
  <flow id="JF3625" begin="1440" fromJunction="J5" toJunction="J4" end="1800" vehsPerHour="64.22024041986288" departLane="free"/>
  <flow id="JF3626" begin="1440" fromJunction="J5" toJunction="J6" end="1800" vehsPerHour="23.65569629986876" departLane="free"/>
  <flow id="JF3627" begin="1440" fromJunction="J6" toJunction="J0" end="1800" vehsPerHour="29.580642697896817" departLane="free"/>
  <flow id="JF3628" begin="1440" fromJunction="J6" toJunction="J3" end="1800" vehsPerHour="31.852872585129948" departLane="free"/>
  <flow id="JF3629" begin="1440" fromJunction="J6" toJunction="J7" end="1800" vehsPerHour="55.55973737891584" departLane="free"/>
  <flow id="JF3630" begin="1440" fromJunction="J7" toJunction="J0" end="1800" vehsPerHour="60.777432258229695" departLane="free"/>
  <flow id="JF3631" begin="1440" fromJunction="J7" toJunction="J4" end="1800" vehsPerHour="59.7657643678924" departLane="free"/>
  <flow id="JF3632" begin="1440" fromJunction="J7" toJunction="J5" end="1800" vehsPerHour="39.687519019861426" departLane="free"/>
  <flow id="JF3633" begin="1800" fromJunction="J0" toJunction="J3" end="2160" vehsPerHour="82.78488450204878" departLane="free"/>
  <flow id="JF3634" begin="1800" fromJunction="J0" toJunction="J4" end="2160" vehsPerHour="130.3264334882758" departLane="free"/>
  <flow id="JF3635" begin="1800" fromJunction="J0" toJunction="J6" end="2160" vehsPerHour="8.688619946679635" departLane="free"/>
  <flow id="JF3636" begin="1800" fromJunction="J0" toJunction="J7" end="2160" vehsPerHour="28.91404724182585" departLane="free"/>
  <flow id="JF3637" begin="1800" fromJunction="J3" toJunction="J4" end="2160" vehsPerHour="91.87778462909141" departLane="free"/>
  <flow id="JF3638" begin="1800" fromJunction="J3" toJunction="J5" end="2160" vehsPerHour="57.785043851892205" departLane="free"/>
  <flow id="JF3639" begin="1800" fromJunction="J3" toJunction="J6" end="2160" vehsPerHour="110.09894855160756" departLane="free"/>
  <flow id="JF3640" begin="1800" fromJunction="J3" toJunction="J7" end="2160" vehsPerHour="74.59030902544252" departLane="free"/>
  <flow id="JF3641" begin="1800" fromJunction="J4" toJunction="J0" end="2160" vehsPerHour="3.6470816207892076" departLane="free"/>
  <flow id="JF3642" begin="1800" fromJunction="J4" toJunction="J3" end="2160" vehsPerHour="39.92345438811917" departLane="free"/>
  <flow id="JF3643" begin="1800" fromJunction="J4" toJunction="J5" end="2160" vehsPerHour="30.975167248772077" departLane="free"/>
  <flow id="JF3644" begin="1800" fromJunction="J4" toJunction="J7" end="2160" vehsPerHour="22.32907634570823" departLane="free"/>
  <flow id="JF3645" begin="1800" fromJunction="J5" toJunction="J3" end="2160" vehsPerHour="31.48883844820752" departLane="free"/>
  <flow id="JF3646" begin="1800" fromJunction="J5" toJunction="J4" end="2160" vehsPerHour="39.77971608652354" departLane="free"/>
  <flow id="JF3647" begin="1800" fromJunction="J5" toJunction="J6" end="2160" vehsPerHour="51.69250186933488" departLane="free"/>
  <flow id="JF3648" begin="1800" fromJunction="J5" toJunction="J7" end="2160" vehsPerHour="10.238674879833875" departLane="free"/>
  <flow id="JF3649" begin="1800" fromJunction="J6" toJunction="J0" end="2160" vehsPerHour="60.16449795509918" departLane="free"/>
  <flow id="JF3650" begin="1800" fromJunction="J6" toJunction="J3" end="2160" vehsPerHour="25.570619291888278" departLane="free"/>
  <flow id="JF3651" begin="1800" fromJunction="J7" toJunction="J5" end="2160" vehsPerHour="13.946272539427538" departLane="free"/>
  <flow id="JF3652" begin="1800" fromJunction="J7" toJunction="J6" end="2160" vehsPerHour="21.68186404033545" departLane="free"/>
  <flow id="JF3653" begin="2160" fromJunction="J0" toJunction="J6" end="2520" vehsPerHour="26.810208216156415" departLane="free"/>
  <flow id="JF3654" begin="2160" fromJunction="J0" toJunction="J7" end="2520" vehsPerHour="80.20866278384797" departLane="free"/>
  <flow id="JF3655" begin="2160" fromJunction="J3" toJunction="J0" end="2520" vehsPerHour="111.39622953566695" departLane="free"/>
  <flow id="JF3656" begin="2160" fromJunction="J3" toJunction="J4" end="2520" vehsPerHour="46.07775940976522" departLane="free"/>
  <flow id="JF3657" begin="2160" fromJunction="J3" toJunction="J6" end="2520" vehsPerHour="17.64088683340022" departLane="free"/>
  <flow id="JF3658" begin="2160" fromJunction="J4" toJunction="J0" end="2520" vehsPerHour="22.965161826793587" departLane="free"/>
  <flow id="JF3659" begin="2160" fromJunction="J4" toJunction="J3" end="2520" vehsPerHour="8.734220588920142" departLane="free"/>
  <flow id="JF3660" begin="2160" fromJunction="J4" toJunction="J5" end="2520" vehsPerHour="8.41475461995797" departLane="free"/>
  <flow id="JF3661" begin="2160" fromJunction="J5" toJunction="J3" end="2520" vehsPerHour="65.90431869207023" departLane="free"/>
  <flow id="JF3662" begin="2160" fromJunction="J5" toJunction="J4" end="2520" vehsPerHour="33.25263668432121" departLane="free"/>
  <flow id="JF3663" begin="2160" fromJunction="J5" toJunction="J7" end="2520" vehsPerHour="67.0415529280283" departLane="free"/>
  <flow id="JF3664" begin="2160" fromJunction="J6" toJunction="J0" end="2520" vehsPerHour="1.4260266619929034" departLane="free"/>
  <flow id="JF3665" begin="2160" fromJunction="J6" toJunction="J3" end="2520" vehsPerHour="20.72463833097882" departLane="free"/>
  <flow id="JF3666" begin="2160" fromJunction="J6" toJunction="J5" end="2520" vehsPerHour="33.986799126257544" departLane="free"/>
  <flow id="JF3667" begin="2160" fromJunction="J6" toJunction="J7" end="2520" vehsPerHour="46.77633711274317" departLane="free"/>
  <flow id="JF3668" begin="2160" fromJunction="J7" toJunction="J3" end="2520" vehsPerHour="7.28435860792248" departLane="free"/>
  <flow id="JF3669" begin="2160" fromJunction="J7" toJunction="J4" end="2520" vehsPerHour="46.97802273233894" departLane="free"/>
  <flow id="JF3670" begin="2160" fromJunction="J7" toJunction="J6" end="2520" vehsPerHour="55.62199400749531" departLane="free"/>
  <flow id="JF3671" begin="2520" fromJunction="J0" toJunction="J3" end="2880" vehsPerHour="73.43161396492589" departLane="free"/>
  <flow id="JF3672" begin="2520" fromJunction="J0" toJunction="J4" end="2880" vehsPerHour="14.83025512837735" departLane="free"/>
  <flow id="JF3673" begin="2520" fromJunction="J0" toJunction="J5" end="2880" vehsPerHour="28.142806114773734" departLane="free"/>
  <flow id="JF3674" begin="2520" fromJunction="J0" toJunction="J7" end="2880" vehsPerHour="67.05759656106335" departLane="free"/>
  <flow id="JF3675" begin="2520" fromJunction="J3" toJunction="J4" end="2880" vehsPerHour="46.20644768049643" departLane="free"/>
  <flow id="JF3676" begin="2520" fromJunction="J3" toJunction="J6" end="2880" vehsPerHour="21.479880406738527" departLane="free"/>
  <flow id="JF3677" begin="2520" fromJunction="J3" toJunction="J7" end="2880" vehsPerHour="7.421720889373231" departLane="free"/>
  <flow id="JF3678" begin="2520" fromJunction="J4" toJunction="J0" end="2880" vehsPerHour="40.86232436744622" departLane="free"/>
  <flow id="JF3679" begin="2520" fromJunction="J4" toJunction="J6" end="2880" vehsPerHour="42.24475252625075" departLane="free"/>
  <flow id="JF3680" begin="2520" fromJunction="J4" toJunction="J7" end="2880" vehsPerHour="33.49727929387181" departLane="free"/>
  <flow id="JF3681" begin="2520" fromJunction="J5" toJunction="J0" end="2880" vehsPerHour="64.13336273564835" departLane="free"/>
  <flow id="JF3682" begin="2520" fromJunction="J5" toJunction="J3" end="2880" vehsPerHour="5.4829763466953905" departLane="free"/>
  <flow id="JF3683" begin="2520" fromJunction="J5" toJunction="J6" end="2880" vehsPerHour="22.62468065967974" departLane="free"/>
  <flow id="JF3684" begin="2520" fromJunction="J5" toJunction="J7" end="2880" vehsPerHour="33.3583627859921" departLane="free"/>
  <flow id="JF3685" begin="2520" fromJunction="J6" toJunction="J3" end="2880" vehsPerHour="12.098008584121553" departLane="free"/>
  <flow id="JF3686" begin="2520" fromJunction="J6" toJunction="J4" end="2880" vehsPerHour="17.601931246113256" departLane="free"/>
  <flow id="JF3687" begin="2520" fromJunction="J6" toJunction="J5" end="2880" vehsPerHour="15.719625735828854" departLane="free"/>
  <flow id="JF3688" begin="2520" fromJunction="J7" toJunction="J0" end="2880" vehsPerHour="36.79621390682857" departLane="free"/>
  <flow id="JF3689" begin="2520" fromJunction="J7" toJunction="J3" end="2880" vehsPerHour="17.935110217699528" departLane="free"/>
  <flow id="JF3690" begin="2520" fromJunction="J7" toJunction="J5" end="2880" vehsPerHour="56.78886273019245" departLane="free"/>
  <flow id="JF3691" begin="2520" fromJunction="J7" toJunction="J6" end="2880" vehsPerHour="60.068378622346096" departLane="free"/>
  <flow id="JF3692" begin="2880" fromJunction="J0" toJunction="J4" end="3240" vehsPerHour="91.71701186354792" departLane="free"/>
  <flow id="JF3693" begin="2880" fromJunction="J0" toJunction="J7" end="3240" vehsPerHour="86.89929179695385" departLane="free"/>
  <flow id="JF3694" begin="2880" fromJunction="J3" toJunction="J0" end="3240" vehsPerHour="114.97639677573109" departLane="free"/>
  <flow id="JF3695" begin="2880" fromJunction="J3" toJunction="J5" end="3240" vehsPerHour="102.42309278273615" departLane="free"/>
  <flow id="JF3696" begin="2880" fromJunction="J3" toJunction="J6" end="3240" vehsPerHour="54.629141337185544" departLane="free"/>
  <flow id="JF3697" begin="2880" fromJunction="J4" toJunction="J3" end="3240" vehsPerHour="41.972482830243905" departLane="free"/>
  <flow id="JF3698" begin="2880" fromJunction="J4" toJunction="J5" end="3240" vehsPerHour="24.53006328214133" departLane="free"/>
  <flow id="JF3699" begin="2880" fromJunction="J4" toJunction="J7" end="3240" vehsPerHour="18.8256274396617" departLane="free"/>
  <flow id="JF3700" begin="2880" fromJunction="J5" toJunction="J0" end="3240" vehsPerHour="10.161289580941048" departLane="free"/>
  <flow id="JF3701" begin="2880" fromJunction="J5" toJunction="J3" end="3240" vehsPerHour="5.361952573662496" departLane="free"/>
  <flow id="JF3702" begin="2880" fromJunction="J5" toJunction="J4" end="3240" vehsPerHour="65.28362631474971" departLane="free"/>
  <flow id="JF3703" begin="2880" fromJunction="J5" toJunction="J6" end="3240" vehsPerHour="43.75586706329666" departLane="free"/>
  <flow id="JF3704" begin="2880" fromJunction="J5" toJunction="J7" end="3240" vehsPerHour="22.599771475387605" departLane="free"/>
  <flow id="JF3705" begin="2880" fromJunction="J6" toJunction="J5" end="3240" vehsPerHour="12.025719806537413" departLane="free"/>
  <flow id="JF3706" begin="2880" fromJunction="J6" toJunction="J7" end="3240" vehsPerHour="20.45912648343193" departLane="free"/>
  <flow id="JF3707" begin="2880" fromJunction="J7" toJunction="J3" end="3240" vehsPerHour="32.95819183361271" departLane="free"/>
  <flow id="JF3708" begin="2880" fromJunction="J7" toJunction="J4" end="3240" vehsPerHour="50.092188866102695" departLane="free"/>
  <flow id="JF3709" begin="2880" fromJunction="J7" toJunction="J5" end="3240" vehsPerHour="61.22332987952748" departLane="free"/>
  <flow id="JF3710" begin="2880" fromJunction="J7" toJunction="J6" end="3240" vehsPerHour="2.5947059082957993" departLane="free"/>
  <flow id="JF3711" begin="3240" fromJunction="J0" toJunction="J4" end="3600" vehsPerHour="132.90867849275355" departLane="free"/>
  <flow id="JF3712" begin="3240" fromJunction="J0" toJunction="J5" end="3600" vehsPerHour="1.026636893712247" departLane="free"/>
  <flow id="JF3713" begin="3240" fromJunction="J0" toJunction="J6" end="3600" vehsPerHour="130.582822014835" departLane="free"/>
  <flow id="JF3714" begin="3240" fromJunction="J3" toJunction="J0" end="3600" vehsPerHour="87.56119768327858" departLane="free"/>
  <flow id="JF3715" begin="3240" fromJunction="J3" toJunction="J4" end="3600" vehsPerHour="92.11720238126769" departLane="free"/>
  <flow id="JF3716" begin="3240" fromJunction="J3" toJunction="J5" end="3600" vehsPerHour="134.9970515308192" departLane="free"/>
  <flow id="JF3717" begin="3240" fromJunction="J3" toJunction="J7" end="3600" vehsPerHour="89.62869986722801" departLane="free"/>
  <flow id="JF3718" begin="3240" fromJunction="J4" toJunction="J3" end="3600" vehsPerHour="65.88911411950404" departLane="free"/>
  <flow id="JF3719" begin="3240" fromJunction="J4" toJunction="J5" end="3600" vehsPerHour="14.258675080644807" departLane="free"/>
  <flow id="JF3720" begin="3240" fromJunction="J5" toJunction="J3" end="3600" vehsPerHour="65.636512626888" departLane="free"/>
  <flow id="JF3721" begin="3240" fromJunction="J5" toJunction="J6" end="3600" vehsPerHour="58.430095519180824" departLane="free"/>
  <flow id="JF3722" begin="3240" fromJunction="J5" toJunction="J7" end="3600" vehsPerHour="30.135636800707374" departLane="free"/>
  <flow id="JF3723" begin="3240" fromJunction="J6" toJunction="J0" end="3600" vehsPerHour="58.27914788415308" departLane="free"/>
  <flow id="JF3724" begin="3240" fromJunction="J6" toJunction="J3" end="3600" vehsPerHour="17.671015656264085" departLane="free"/>
  <flow id="JF3725" begin="3240" fromJunction="J6" toJunction="J4" end="3600" vehsPerHour="1.874038660796995" departLane="free"/>
  <flow id="JF3726" begin="3240" fromJunction="J6" toJunction="J5" end="3600" vehsPerHour="3.7656399969369563" departLane="free"/>
  <flow id="JF3727" begin="3240" fromJunction="J7" toJunction="J0" end="3600" vehsPerHour="0.2945961620041907" departLane="free"/>
  <flow id="JF3728" begin="3240" fromJunction="J7" toJunction="J3" end="3600" vehsPerHour="50.58936779999657" departLane="free"/>
  <flow id="JF3729" begin="3240" fromJunction="J7" toJunction="J5" end="3600" vehsPerHour="57.75870000016546" departLane="free"/>
  <flow id="JF3730" begin="3600" fromJunction="J0" toJunction="J3" end="3960" vehsPerHour="55.55615347412889" departLane="free"/>
  <flow id="JF3731" begin="3600" fromJunction="J0" toJunction="J5" end="3960" vehsPerHour="61.81961163723616" departLane="free"/>
  <flow id="JF3732" begin="3600" fromJunction="J3" toJunction="J0" end="3960" vehsPerHour="115.39893101351629" departLane="free"/>
  <flow id="JF3733" begin="3600" fromJunction="J3" toJunction="J4" end="3960" vehsPerHour="24.29465612535788" departLane="free"/>
  <flow id="JF3734" begin="3600" fromJunction="J3" toJunction="J6" end="3960" vehsPerHour="13.395329764699431" departLane="free"/>
  <flow id="JF3735" begin="3600" fromJunction="J3" toJunction="J7" end="3960" vehsPerHour="59.34461693350623" departLane="free"/>
  <flow id="JF3736" begin="3600" fromJunction="J4" toJunction="J0" end="3960" vehsPerHour="46.77735952756064" departLane="free"/>
  <flow id="JF3737" begin="3600" fromJunction="J4" toJunction="J3" end="3960" vehsPerHour="56.17236148575775" departLane="free"/>
  <flow id="JF3738" begin="3600" fromJunction="J4" toJunction="J5" end="3960" vehsPerHour="32.949838054140784" departLane="free"/>
  <flow id="JF3739" begin="3600" fromJunction="J4" toJunction="J6" end="3960" vehsPerHour="49.110954293440884" departLane="free"/>
  <flow id="JF3740" begin="3600" fromJunction="J4" toJunction="J7" end="3960" vehsPerHour="22.964509808846987" departLane="free"/>
  <flow id="JF3741" begin="3600" fromJunction="J5" toJunction="J0" end="3960" vehsPerHour="46.22445733228265" departLane="free"/>
  <flow id="JF3742" begin="3600" fromJunction="J5" toJunction="J3" end="3960" vehsPerHour="19.25825110161621" departLane="free"/>
  <flow id="JF3743" begin="3600" fromJunction="J5" toJunction="J4" end="3960" vehsPerHour="18.425056218867407" departLane="free"/>
  <flow id="JF3744" begin="3600" fromJunction="J5" toJunction="J6" end="3960" vehsPerHour="57.34657494181595" departLane="free"/>
  <flow id="JF3745" begin="3600" fromJunction="J5" toJunction="J7" end="3960" vehsPerHour="6.730729368179625" departLane="free"/>
  <flow id="JF3746" begin="3600" fromJunction="J6" toJunction="J0" end="3960" vehsPerHour="13.287591389245982" departLane="free"/>
  <flow id="JF3747" begin="3600" fromJunction="J6" toJunction="J3" end="3960" vehsPerHour="19.775549856963142" departLane="free"/>
  <flow id="JF3748" begin="3600" fromJunction="J6" toJunction="J7" end="3960" vehsPerHour="12.573172406066984" departLane="free"/>
  <flow id="JF3749" begin="3600" fromJunction="J7" toJunction="J3" end="3960" vehsPerHour="14.129923557145284" departLane="free"/>
  <flow id="JF3750" begin="3600" fromJunction="J7" toJunction="J4" end="3960" vehsPerHour="50.93255693836734" departLane="free"/>
  <flow id="JF3751" begin="3600" fromJunction="J7" toJunction="J6" end="3960" vehsPerHour="32.43194577956846" departLane="free"/>
  <flow id="JF3752" begin="3960" fromJunction="J0" toJunction="J3" end="4320" vehsPerHour="76.29815684257962" departLane="free"/>
  <flow id="JF3753" begin="3960" fromJunction="J0" toJunction="J4" end="4320" vehsPerHour="113.44679925815471" departLane="free"/>
  <flow id="JF3754" begin="3960" fromJunction="J0" toJunction="J5" end="4320" vehsPerHour="87.71955973970041" departLane="free"/>
  <flow id="JF3755" begin="3960" fromJunction="J0" toJunction="J7" end="4320" vehsPerHour="2.4152592385806795" departLane="free"/>
  <flow id="JF3756" begin="3960" fromJunction="J3" toJunction="J0" end="4320" vehsPerHour="91.01280180563727" departLane="free"/>
  <flow id="JF3757" begin="3960" fromJunction="J3" toJunction="J4" end="4320" vehsPerHour="39.85702193890389" departLane="free"/>
  <flow id="JF3758" begin="3960" fromJunction="J3" toJunction="J5" end="4320" vehsPerHour="54.77865579746869" departLane="free"/>
  <flow id="JF3759" begin="3960" fromJunction="J3" toJunction="J6" end="4320" vehsPerHour="33.400920126665085" departLane="free"/>
  <flow id="JF3760" begin="3960" fromJunction="J3" toJunction="J7" end="4320" vehsPerHour="55.657084478159696" departLane="free"/>
  <flow id="JF3761" begin="3960" fromJunction="J4" toJunction="J5" end="4320" vehsPerHour="22.374272490985415" departLane="free"/>
  <flow id="JF3762" begin="3960" fromJunction="J4" toJunction="J6" end="4320" vehsPerHour="46.8554559914651" departLane="free"/>
  <flow id="JF3763" begin="3960" fromJunction="J4" toJunction="J7" end="4320" vehsPerHour="6.467279644963075" departLane="free"/>