<?xml version="1.0" encoding="UTF-8"?>
<routes xmlns:xsi="http://www.w3.org/2001/XMLSchema-instance" xsi:noNamespaceSchemaLocation="http://sumo.dlr.de/xsd/routes_file.xsd">
  <flow id="JF13297" begin="0" fromJunction="J0" toJunction="J3" end="360" vehsPerHour="28.537674511377485" departLane="free"/>
  <flow id="JF13298" begin="0" fromJunction="J0" toJunction="J5" end="360" vehsPerHour="64.5378700139505" departLane="free"/>
  <flow id="JF13299" begin="0" fromJunction="J0" toJunction="J6" end="360" vehsPerHour="65.43552224591998" departLane="free"/>
  <flow id="JF13300" begin="0" fromJunction="J0" toJunction="J7" end="360" vehsPerHour="41.809569896362746" departLane="free"/>
  <flow id="JF13301" begin="0" fromJunction="J3" toJunction="J0" end="360" vehsPerHour="66.45417029301233" departLane="free"/>
  <flow id="JF13302" begin="0" fromJunction="J3" toJunction="J4" end="360" vehsPerHour="90.1630183342206" departLane="free"/>
  <flow id="JF13303" begin="0" fromJunction="J3" toJunction="J5" end="360" vehsPerHour="86.74188340797252" departLane="free"/>
  <flow id="JF13304" begin="0" fromJunction="J3" toJunction="J6" end="360" vehsPerHour="39.590502108610806" departLane="free"/>
  <flow id="JF13305" begin="0" fromJunction="J3" toJunction="J7" end="360" vehsPerHour="82.07960997601086" departLane="free"/>
  <flow id="JF13306" begin="0" fromJunction="J4" toJunction="J0" end="360" vehsPerHour="63.99768477332346" departLane="free"/>
  <flow id="JF13307" begin="0" fromJunction="J4" toJunction="J5" end="360" vehsPerHour="19.58248437149568" departLane="free"/>
  <flow id="JF13308" begin="0" fromJunction="J4" toJunction="J6" end="360" vehsPerHour="14.059278666881287" departLane="free"/>
  <flow id="JF13309" begin="0" fromJunction="J5" toJunction="J0" end="360" vehsPerHour="48.77571474999678" departLane="free"/>
  <flow id="JF13310" begin="0" fromJunction="J5" toJunction="J3" end="360" vehsPerHour="54.868045962037776" departLane="free"/>
  <flow id="JF13311" begin="0" fromJunction="J5" toJunction="J4" end="360" vehsPerHour="64.08150280967276" departLane="free"/>
  <flow id="JF13312" begin="0" fromJunction="J5" toJunction="J6" end="360" vehsPerHour="18.74190043302961" departLane="free"/>
  <flow id="JF13313" begin="0" fromJunction="J6" toJunction="J0" end="360" vehsPerHour="32.08499512344" departLane="free"/>
  <flow id="JF13314" begin="0" fromJunction="J6" toJunction="J3" end="360" vehsPerHour="10.238417445538241" departLane="free"/>
  <flow id="JF13315" begin="0" fromJunction="J6" toJunction="J4" end="360" vehsPerHour="9.36377166715205" departLane="free"/>
  <flow id="JF13316" begin="0" fromJunction="J6" toJunction="J5" end="360" vehsPerHour="60.81386176488023" departLane="free"/>
  <flow id="JF13317" begin="0" fromJunction="J7" toJunction="J3" end="360" vehsPerHour="30.68259506492662" departLane="free"/>
  <flow id="JF13318" begin="0" fromJunction="J7" toJunction="J5" end="360" vehsPerHour="63.90865794937499" departLane="free"/>
  <flow id="JF13319" begin="0" fromJunction="J7" toJunction="J6" end="360" vehsPerHour="31.99802335552501" departLane="free"/>
  <flow id="JF13320" begin="360" fromJunction="J3" toJunction="J0" end="720" vehsPerHour="0.483346261498966" departLane="free"/>
  <flow id="JF13321" begin="360" fromJunction="J3" toJunction="J5" end="720" vehsPerHour="33.9174194176124" departLane="free"/>
  <flow id="JF13322" begin="360" fromJunction="J3" toJunction="J6" end="720" vehsPerHour="127.99273189322302" departLane="free"/>
  <flow id="JF13323" begin="360" fromJunction="J3" toJunction="J7" end="720" vehsPerHour="96.52070666984471" departLane="free"/>
  <flow id="JF13324" begin="360" fromJunction="J4" toJunction="J3" end="720" vehsPerHour="16.100924946507693" departLane="free"/>
  <flow id="JF13325" begin="360" fromJunction="J4" toJunction="J6" end="720" vehsPerHour="30.910256723406164" departLane="free"/>
  <flow id="JF13326" begin="360" fromJunction="J4" toJunction="J7" end="720" vehsPerHour="22.014134869357008" departLane="free"/>
  <flow id="JF13327" begin="360" fromJunction="J5" toJunction="J0" end="720" vehsPerHour="46.00610258126949" departLane="free"/>
  <flow id="JF13328" begin="360" fromJunction="J5" toJunction="J4" end="720" vehsPerHour="12.131582602723553" departLane="free"/>
  <flow id="JF13329" begin="360" fromJunction="J5" toJunction="J7" end="720" vehsPerHour="46.95649094061549" departLane="free"/>
  <flow id="JF13330" begin="360" fromJunction="J6" toJunction="J0" end="720" vehsPerHour="21.741886698312225" departLane="free"/>
  <flow id="JF13331" begin="360" fromJunction="J6" toJunction="J3" end="720" vehsPerHour="30.00450321611476" departLane="free"/>
  <flow id="JF13332" begin="360" fromJunction="J6" toJunction="J4" end="720" vehsPerHour="44.98325691554019" departLane="free"/>
  <flow id="JF13333" begin="360" fromJunction="J6" toJunction="J5" end="720" vehsPerHour="36.67426551911019" departLane="free"/>
  <flow id="JF13334" begin="360" fromJunction="J6" toJunction="J7" end="720" vehsPerHour="19.261694135366053" departLane="free"/>
  <flow id="JF13335" begin="360" fromJunction="J7" toJunction="J0" end="720" vehsPerHour="55.43739039860658" departLane="free"/>
  <flow id="JF13336" begin="360" fromJunction="J7" toJunction="J3" end="720" vehsPerHour="11.768944512351839" departLane="free"/>
  <flow id="JF13337" begin="360" fromJunction="J7" toJunction="J4" end="720" vehsPerHour="7.439495286304572" departLane="free"/>
  <flow id="JF13338" begin="360" fromJunction="J7" toJunction="J5" end="720" vehsPerHour="58.34716227015435" departLane="free"/>
  <flow id="JF13339" begin="360" fromJunction="J7" toJunction="J6" end="720" vehsPerHour="42.096684122843435" departLane="free"/>
  <flow id="JF13340" begin="720" fromJunction="J0" toJunction="J4" end="1080" vehsPerHour="53.05953786184664" departLane="free"/>
  <flow id="JF13341" begin="720" fromJunction="J0" toJunction="J6" end="1080" vehsPerHour="56.97517790327797" departLane="free"/>
  <flow id="JF13342" begin="720" fromJunction="J3" toJunction="J0" end="1080" vehsPerHour="36.14769891350635" departLane="free"/>
  <flow id="JF13343" begin="720" fromJunction="J3" toJunction="J5" end="1080" vehsPerHour="39.43842201568256" departLane="free"/>
  <flow id="JF13344" begin="720" fromJunction="J3" toJunction="J6" end="1080" vehsPerHour="73.45502410131921" departLane="free"/>
  <flow id="JF13345" begin="720" fromJunction="J3" toJunction="J7" end="1080" vehsPerHour="41.37924099680802" departLane="free"/>
  <flow id="JF13346" begin="720" fromJunction="J4" toJunction="J3" end="1080" vehsPerHour="0.7715987841701274" departLane="free"/>
  <flow id="JF13347" begin="720" fromJunction="J4" toJunction="J5" end="1080" vehsPerHour="7.202373638598078" departLane="free"/>
  <flow id="JF13348" begin="720" fromJunction="J4" toJunction="J6" end="1080" vehsPerHour="28.87429735082316" departLane="free"/>
  <flow id="JF13349" begin="720" fromJunction="J4" toJunction="J7" end="1080" vehsPerHour="29.255951556651453" departLane="free"/>
  <flow id="JF13350" begin="720" fromJunction="J5" toJunction="J3" end="1080" vehsPerHour="16.932655360208685" departLane="free"/>
  <flow id="JF13351" begin="720" fromJunction="J5" toJunction="J7" end="1080" vehsPerHour="32.02865756319877" departLane="free"/>
  <flow id="JF13352" begin="720" fromJunction="J6" toJunction="J3" end="1080" vehsPerHour="58.229066271787374" departLane="free"/>
  <flow id="JF13353" begin="720" fromJunction="J6" toJunction="J4" end="1080" vehsPerHour="66.94115126286349" departLane="free"/>
  <flow id="JF13354" begin="720" fromJunction="J6" toJunction="J5" end="1080" vehsPerHour="27.412448071597566" departLane="free"/>
  <flow id="JF13355" begin="720" fromJunction="J7" toJunction="J0" end="1080" vehsPerHour="3.2004027466054703" departLane="free"/>
  <flow id="JF13356" begin="720" fromJunction="J7" toJunction="J3" end="1080" vehsPerHour="62.051109803144975" departLane="free"/>
  <flow id="JF13357" begin="720" fromJunction="J7" toJunction="J4" end="1080" vehsPerHour="10.46594170539741" departLane="free"/>
  <flow id="JF13358" begin="720" fromJunction="J7" toJunction="J5" end="1080" vehsPerHour="64.08633864143656" departLane="free"/>
  <flow id="JF13359" begin="720" fromJunction="J7" toJunction="J6" end="1080" vehsPerHour="61.23720922165686" departLane="free"/>
  <flow id="JF13360" begin="1080" fromJunction="J0" toJunction="J3" end="1440" vehsPerHour="111.42979570396763" departLane="free"/>
  <flow id="JF13361" begin="1080" fromJunction="J0" toJunction="J4" end="1440" vehsPerHour="4.506497355137934" departLane="free"/>
  <flow id="JF13362" begin="1080" fromJunction="J0" toJunction="J6" end="1440" vehsPerHour="41.02915758306177" departLane="free"/>
  <flow id="JF13363" begin="1080" fromJunction="J3" toJunction="J4" end="1440" vehsPerHour="133.83616749233414" departLane="free"/>
  <flow id="JF13364" begin="1080" fromJunction="J3" toJunction="J5" end="1440" vehsPerHour="32.82673395084794" departLane="free"/>
  <flow id="JF13365" begin="1080" fromJunction="J3" toJunction="J6" end="1440" vehsPerHour="70.40957312263583" departLane="free"/>
  <flow id="JF13366" begin="1080" fromJunction="J3" toJunction="J7" end="1440" vehsPerHour="86.45357269550469" departLane="free"/>
  <flow id="JF13367" begin="1080" fromJunction="J4" toJunction="J0" end="1440" vehsPerHour="16.956141487898133" departLane="free"/>
  <flow id="JF13368" begin="1080" fromJunction="J4" toJunction="J3" end="1440" vehsPerHour="37.50022328869371" departLane="free"/>
  <flow id="JF13369" begin="1080" fromJunction="J4" toJunction="J5" end="1440" vehsPerHour="16.839514613723303" departLane="free"/>
  <flow id="JF13370" begin="1080" fromJunction="J4" toJunction="J6" end="1440" vehsPerHour="68.21658714695802" departLane="free"/>
  <flow id="JF13371" begin="1080" fromJunction="J4" toJunction="J7" end="1440" vehsPerHour="17.444478293821582" departLane="free"/>
  <flow id="JF13372" begin="1080" fromJunction="J5" toJunction="J0" end="1440" vehsPerHour="63.142125155991394" departLane="free"/>
  <flow id="JF13373" begin="1080" fromJunction="J5" toJunction="J4" end="1440" vehsPerHour="37.58531421186184" departLane="free"/>
  <flow id="JF13374" begin="1080" fromJunction="J5" toJunction="J6" end="1440" vehsPerHour="58.40621255782928" departLane="free"/>
  <flow id="JF13375" begin="1080" fromJunction="J5" toJunction="J7" end="1440" vehsPerHour="22.851775114974956" departLane="free"/>
  <flow id="JF13376" begin="1080" fromJunction="J6" toJunction="J0" end="1440" vehsPerHour="65.7144532228965" departLane="free"/>
  <flow id="JF13377" begin="1080" fromJunction="J6" toJunction="J3" end="1440" vehsPerHour="25.23863068757831" departLane="free"/>
  <flow id="JF13378" begin="1080" fromJunction="J6" toJunction="J4" end="1440" vehsPerHour="50.92456045527998" departLane="free"/>
  <flow id="JF13379" begin="1080" fromJunction="J7" toJunction="J0" end="1440" vehsPerHour="37.42941358161001" departLane="free"/>
  <flow id="JF13380" begin="1080" fromJunction="J7" toJunction="J3" end="1440" vehsPerHour="6.005824541754136" departLane="free"/>
  <flow id="JF13381" begin="1440" fromJunction="J0" toJunction="J3" end="1800" vehsPerHour="68.11217545044016" departLane="free"/>
  <flow id="JF13382" begin="1440" fromJunction="J0" toJunction="J5" end="1800" vehsPerHour="109.93676054960352" departLane="free"/>
  <flow id="JF13383" begin="1440" fromJunction="J0" toJunction="J6" end="1800" vehsPerHour="53.069745887309075" departLane="free"/>
  <flow id="JF13384" begin="1440" fromJunction="J0" toJunction="J7" end="1800" vehsPerHour="133.87021638202458" departLane="free"/>
  <flow id="JF13385" begin="1440" fromJunction="J3" toJunction="J0" end="1800" vehsPerHour="58.045136698294684" departLane="free"/>
  <flow id="JF13386" begin="1440" fromJunction="J3" toJunction="J4" end="1800" vehsPerHour="90.95219108781745" departLane="free"/>
  <flow id="JF13387" begin="1440" fromJunction="J3" toJunction="J5" end="1800" vehsPerHour="125.85804258427208" departLane="free"/>
  <flow id="JF13388" begin="1440" fromJunction="J3" toJunction="J7" end="1800" vehsPerHour="101.03018715051181" departLane="free"/>
  <flow id="JF13389" begin="1440" fromJunction="J4" toJunction="J0" end="1800" vehsPerHour="22.23809791890029" departLane="free"/>
  <flow id="JF13390" begin="1440" fromJunction="J4" toJunction="J3" end="1800" vehsPerHour="30.89382013049147" departLane="free"/>
  <flow id="JF13391" begin="1440" fromJunction="J4" toJunction="J5" end="1800" vehsPerHour="56.12272615859754" departLane="free"/>
  <flow id="JF13392" begin="1440" fromJunction="J4" toJunction="J6" end="1800" vehsPerHour="16.947608737963183" departLane="free"/>
  <flow id="JF13393" begin="1440" fromJunction="J4" toJunction="J7" end="1800" vehsPerHour="55.71716003986678" departLane="free"/>
  <flow id="JF13394" begin="1440" fromJunction="J5" toJunction="J0" end="1800" vehsPerHour="66.86597865065016" departLane="free"/>
  <flow id="JF13395" begin="1440" fromJunction="J5" toJunction="J3" end="1800" vehsPerHour="16.75000267697076" departLane="free"/>
  <flow id="JF13396" begin="1440" fromJunction="J5" toJunction="J4" end="1800" vehsPerHour="54.62342863036324" departLane="free"/>
  <flow id="JF13397" begin="1440" fromJunction="J5" toJunction="J6" end="1800" vehsPerHour="1.9096265202349463" departLane="free"/>
  <flow id="JF13398" begin="1440" fromJunction="J5" toJunction="J7" end="1800" vehsPerHour="29.510598945551713" departLane="free"/>
  <flow id="JF13399" begin="1440" fromJunction="J6" toJunction="J0" end="1800" vehsPerHour="6.993298542725543" departLane="free"/>
  <flow id="JF13400" begin="1440" fromJunction="J6" toJunction="J7" end="1800" vehsPerHour="22.647206862880296" departLane="free"/>
  <flow id="JF13401" begin="1440" fromJunction="J7" toJunction="J0" end="1800" vehsPerHour="53.59456816178397" departLane="free"/>
  <flow id="JF13402" begin="1440" fromJunction="J7" toJunction="J3" end="1800" vehsPerHour="19.807912103642494" departLane="free"/>
  <flow id="JF13403" begin="1440" fromJunction="J7" toJunction="J4" end="1800" vehsPerHour="59.24800333847016" departLane="free"/>
  <flow id="JF13404" begin="1440" fromJunction="J7" toJunction="J6" end="1800" vehsPerHour="21.62584201886058" departLane="free"/>
  <flow id="JF13405" begin="1800" fromJunction="J0" toJunction="J3" end="2160" vehsPerHour="131.75664519190104" departLane="free"/>
  <flow id="JF13406" begin="1800" fromJunction="J0" toJunction="J5" end="2160" vehsPerHour="74.42023808376702" departLane="free"/>
  <flow id="JF13407" begin="1800" fromJunction="J0" toJunction="J6" end="2160" vehsPerHour="20.346265865353345" departLane="free"/>
  <flow id="JF13408" begin="1800" fromJunction="J0" toJunction="J7" end="2160" vehsPerHour="84.01200707507927" departLane="free"/>
  <flow id="JF13409" begin="1800" fromJunction="J3" toJunction="J0" end="2160" vehsPerHour="92.60119405424219" departLane="free"/>
  <flow id="JF13410" begin="1800" fromJunction="J3" toJunction="J5" end="2160" vehsPerHour="1.2744156963441857" departLane="free"/>
  <flow id="JF13411" begin="1800" fromJunction="J3" toJunction="J6" end="2160" vehsPerHour="82.48884154599952" departLane="free"/>
  <flow id="JF13412" begin="1800" fromJunction="J3" toJunction="J7" end="2160" vehsPerHour="45.51465582090085" departLane="free"/>
  <flow id="JF13413" begin="1800" fromJunction="J4" toJunction="J3" end="2160" vehsPerHour="35.23257664214054" departLane="free"/>
  <flow id="JF13414" begin="1800" fromJunction="J4" toJunction="J5" end="2160" vehsPerHour="2.637353642014936" departLane="free"/>
  <flow id="JF13415" begin="1800" fromJunction="J5" toJunction="J0" end="2160" vehsPerHour="21.91979267567235" departLane="free"/>
  <flow id="JF13416" begin="1800" fromJunction="J5" toJunction="J3" end="2160" vehsPerHour="60.35792781363688" departLane="free"/>
  <flow id="JF13417" begin="1800" fromJunction="J5" toJunction="J4" end="2160" vehsPerHour="7.2905639049972635" departLane="free"/>
  <flow id="JF13418" begin="1800" fromJunction="J5" toJunction="J6" end="2160" vehsPerHour="17.143337049015162" departLane="free"/>
  <flow id="JF13419" begin="1800" fromJunction="J6" toJunction="J0" end="2160" vehsPerHour="57.91884711738132" departLane="free"/>
  <flow id="JF13420" begin="1800" fromJunction="J6" toJunction="J4" end="2160" vehsPerHour="49.96546521002277" departLane="free"/>
  <flow id="JF13421" begin="1800" fromJunction="J6" toJunction="J5" end="2160" vehsPerHour="51.361480327506584" departLane="free"/>
  <flow id="JF13422" begin="1800" fromJunction="J7" toJunction="J0" end="2160" vehsPerHour="53.28770493698262" departLane="free"/>
  <flow id="JF13423" begin="1800" fromJunction="J7" toJunction="J3" end="2160" vehsPerHour="49.3635113795879" departLane="free"/>
  <flow id="JF13424" begin="1800" fromJunction="J7" toJunction="J4" end="2160" vehsPerHour="61.79242913590519" departLane="free"/>
  <flow id="JF13425" begin="1800" fromJunction="J7" toJunction="J5" end="2160" vehsPerHour="19.341473676499913" departLane="free"/>
  <flow id="JF13426" begin="1800" fromJunction="J7" toJunction="J6" end="2160" vehsPerHour="60.0815011137448" departLane="free"/>
  <flow id="JF13427" begin="2160" fromJunction="J0" toJunction="J3" end="2520" vehsPerHour="47.310792752657065" departLane="free"/>
  <flow id="JF13428" begin="2160" fromJunction="J0" toJunction="J4" end="2520" vehsPerHour="52.83503672694819" departLane="free"/>
  <flow id="JF13429" begin="2160" fromJunction="J0" toJunction="J5" end="2520" vehsPerHour="25.880964384582608" departLane="free"/>
  <flow id="JF13430" begin="2160" fromJunction="J0" toJunction="J6" end="2520" vehsPerHour="0.17479131834165484" departLane="free"/>
  <flow id="JF13431" begin="2160" fromJunction="J0" toJunction="J7" end="2520" vehsPerHour="126.62690639641781" departLane="free"/>
  <flow id="JF13432" begin="2160" fromJunction="J3" toJunction="J4" end="2520" vehsPerHour="16.873431996673602" departLane="free"/>
  <flow id="JF13433" begin="2160" fromJunction="J3" toJunction="J5" end="2520" vehsPerHour="66.41945510068584" departLane="free"/>
  <flow id="JF13434" begin="2160" fromJunction="J3" toJunction="J6" end="2520" vehsPerHour="102.42591953466098" departLane="free"/>
  <flow id="JF13435" begin="2160" fromJunction="J3" toJunction="J7" end="2520" vehsPerHour="61.95353153803928" departLane="free"/>
  <flow id="JF13436" begin="2160" fromJunction="J4" toJunction="J0" end="2520" vehsPerHour="51.63946482201328" departLane="free"/>
  <flow id="JF13437" begin="2160" fromJunction="J4" toJunction="J5" end="2520" vehsPerHour="34.07191690352063" departLane="free"/>
  <flow id="JF13438" begin="2160" fromJunction="J4" toJunction="J6" end="2520" vehsPerHour="6.1526556729715045" departLane="free"/>
  <flow id="JF13439" begin="2160" fromJunction="J4" toJunction="J7" end="2520" vehsPerHour="56.42657797370025" departLane="free"/>
  <flow id="JF13440" begin="2160" fromJunction="J5" toJunction="J0" end="2520" vehsPerHour="52.71460615321307" departLane="free"/>
  <flow id="JF13441" begin="2160" fromJunction="J5" toJunction="J3" end="2520" vehsPerHour="20.501603419961857" departLane="free"/>
  <flow id="JF13442" begin="2160" fromJunction="J5" toJunction="J6" end="2520" vehsPerHour="47.24585452699435" departLane="free"/>
  <flow id="JF13443" begin="2160" fromJunction="J5" toJunction="J7" end="2520" vehsPerHour="9.361361149057645" departLane="free"/>
  <flow id="JF13444" begin="2160" fromJunction="J6" toJunction="J5" end="2520" vehsPerHour="26.64705291203155" departLane="free"/>
  <flow id="JF13445" begin="2160" fromJunction="J6" toJunction="J7" end="2520" vehsPerHour="25.891056085736754" departLane="free"/>
  <flow id="JF13446" begin="2160" fromJunction="J7" toJunction="J0" end="2520" vehsPerHour="54.12434872060375" departLane="free"/>
  <flow id="JF13447" begin="2160" fromJunction="J7" toJunction="J4" end="2520" vehsPerHour="7.8133798913942165" departLane="free"/>
  <flow id="JF13448" begin="2160" fromJunction="J7" toJunction="J5" end="2520" vehsPerHour="36.58876263004073" departLane="free"/>
  <flow id="JF13449" begin="2160" fromJunction="J7" toJunction="J6" end="2520" vehsPerHour="10.750292257290274" departLane="free"/>
  <flow id="JF13450" begin="2520" fromJunction="J0" toJunction="J3" end="2880" vehsPerHour="62.810284298383166" departLane="free"/>
  <flow id="JF13451" begin="2520" fromJunction="J0" toJunction="J4" end="2880" vehsPerHour="48.30640441213088" departLane="free"/>
  <flow id="JF13452" begin="2520" fromJunction="J0" toJunction="J5" end="2880" vehsPerHour="10.515008127704883" departLane="free"/>
  <flow id="JF13453" begin="2520" fromJunction="J3" toJunction="J4" end="2880" vehsPerHour="47.15798035892973" departLane="free"/>
  <flow id="JF13454" begin="2520" fromJunction="J3" toJunction="J5" end="2880" vehsPerHour="54.59756119834294" departLane="free"/>
  <flow id="JF13455" begin="2520" fromJunction="J3" toJunction="J6" end="2880" vehsPerHour="70.23556483923754" departLane="free"/>
  <flow id="JF13456" begin="2520" fromJunction="J3" toJunction="J7" end="2880" vehsPerHour="130.0973900798977" departLane="free"/>
  <flow id="JF13457" begin="2520" fromJunction="J4" toJunction="J0" end="2880" vehsPerHour="41.86358984856604" departLane="free"/>
  <flow id="JF13458" begin="2520" fromJunction="J4" toJunction="J5" end="2880" vehsPerHour="28.971859352912748" departLane="free"/>
  <flow id="JF13459" begin="2520" fromJunction="J4" toJunction="J6" end="2880" vehsPerHour="23.156206885776378" departLane="free"/>
  <flow id="JF13460" begin="2520" fromJunction="J4" toJunction="J7" end="2880" vehsPerHour="37.48555591885701" departLane="free"/>
  <flow id="JF13461" begin="2520" fromJunction="J5" toJunction="J0" end="2880" vehsPerHour="19.1915874237815" departLane="free"/>
  <flow id="JF13462" begin="2520" fromJunction="J5" toJunction="J3" end="2880" vehsPerHour="42.27185953537488" departLane="free"/>
  <flow id="JF13463" begin="2520" fromJunction="J5" toJunction="J4" end="2880" vehsPerHour="56.300683692769795" departLane="free"/>
  <flow id="JF13464" begin="2520" fromJunction="J5" toJunction="J6" end="2880" vehsPerHour="62.17674910395945" departLane="free"/>
  <flow id="JF13465" begin="2520" fromJunction="J6" toJunction="J0" end="2880" vehsPerHour="11.534223884999179" departLane="free"/>
  <flow id="JF13466" begin="2520" fromJunction="J6" toJunction="J4" end="2880" vehsPerHour="19.53568668629855" departLane="free"/>
  <flow id="JF13467" begin="2520" fromJunction="J6" toJunction="J7" end="2880" vehsPerHour="18.235321065004914" departLane="free"/>
  <flow id="JF13468" begin="2520" fromJunction="J7" toJunction="J0" end="2880" vehsPerHour="18.307987035649845" departLane="free"/>
  <flow id="JF13469" begin="2520" fromJunction="J7" toJunction="J5" end="2880" vehsPerHour="27.371643983367463" departLane="free"/>
  <flow id="JF13470" begin="2520" fromJunction="J7" toJunction="J6" end="2880" vehsPerHour="11.092172051447779" departLane="free"/>
  <flow id="JF13471" begin="2880" fromJunction="J0" toJunction="J3" end="3240" vehsPerHour="68.4074694399849" departLane="free"/>
  <flow id="JF13472" begin="2880" fromJunction="J0" toJunction="J4" end="3240" vehsPerHour="41.30893518995158" departLane="free"/>
  <flow id="JF13473" begin="2880" fromJunction="J0" toJunction="J5" end="3240" vehsPerHour="124.91729227534363" departLane="free"/>
  <flow id="JF13474" begin="2880" fromJunction="J0" toJunction="J6" end="3240" vehsPerHour="94.3700408043833" departLane="free"/>
  <flow id="JF13475" begin="2880" fromJunction="J0" toJunction="J7" end="3240" vehsPerHour="76.0722752512869" departLane="free"/>
  <flow id="JF13476" begin="2880" fromJunction="J3" toJunction="J0" end="3240" vehsPerHour="87.72811839760409" departLane="free"/>
  <flow id="JF13477" begin="2880" fromJunction="J3" toJunction="J5" end="3240" vehsPerHour="125.75468441318989" departLane="free"/>
  <flow id="JF13478" begin="2880" fromJunction="J3" toJunction="J6" end="3240" vehsPerHour="91.5079750537654" departLane="free"/>
  <flow id="JF13479" begin="2880" fromJunction="J3" toJunction="J7" end="3240" vehsPerHour="6.181316574206667" departLane="free"/>
  <flow id="JF13480" begin="2880" fromJunction="J4" toJunction="J5" end="3240" vehsPerHour="10.486223980906422" departLane="free"/>
  <flow id="JF13481" begin="2880" fromJunction="J4" toJunction="J6" end="3240" vehsPerHour="17.52876170654997" departLane="free"/>
  <flow id="JF13482" begin="2880" fromJunction="J5" toJunction="J0" end="3240" vehsPerHour="12.442307792642403" departLane="free"/>
  <flow id="JF13483" begin="2880" fromJunction="J5" toJunction="J3" end="3240" vehsPerHour="32.83858580439681" departLane="free"/>
  <flow id="JF13484" begin="2880" fromJunction="J6" toJunction="J0" end="3240" vehsPerHour="18.011665606202133" departLane="free"/>
  <flow id="JF13485" begin="2880" fromJunction="J6" toJunction="J3" end="3240" vehsPerHour="30.675952939674865" departLane="free"/>
  <flow id="JF13486" begin="2880" fromJunction="J6" toJunction="J7" end="3240" vehsPerHour="61.12297770363779" departLane="free"/>
  <flow id="JF13487" begin="2880" fromJunction="J7" toJunction="J0" end="3240" vehsPerHour="51.02894638927814" departLane="free"/>
  <flow id="JF13488" begin="2880" fromJunction="J7" toJunction="J3" end="3240" vehsPerHour="1.9715739629971896" departLane="free"/>
  <flow id="JF13489" begin="2880" fromJunction="J7" toJunction="J5" end="3240" vehsPerHour="37.38832977954533" departLane="free"/>
  <flow id="JF13490" begin="2880" fromJunction="J7" toJunction="J6" end="3240" vehsPerHour="44.708900839728074" departLane="free"/>
  <flow id="JF13491" begin="3240" fromJunction="J0" toJunction="J4" end="3600" vehsPerHour="58.88030289251341" departLane="free"/>
  <flow id="JF13492" begin="3240" fromJunction="J0" toJunction="J6" end="3600" vehsPerHour="80.35120103447245" departLane="free"/>
  <flow id="JF13493" begin="3240" fromJunction="J0" toJunction="J7" end="3600" vehsPerHour="20.871051310626274" departLane="free"/>
  <flow id="JF13494" begin="3240" fromJunction="J3" toJunction="J0" end="3600" vehsPerHour="35.72204006779044" departLane="free"/>
  <flow id="JF13495" begin="3240" fromJunction="J3" toJunction="J4" end="3600" vehsPerHour="73.09202732065131" departLane="free"/>
  <flow id="JF13496" begin="3240" fromJunction="J3" toJunction="J6" end="3600" vehsPerHour="25.19613009281418" departLane="free"/>
  <flow id="JF13497" begin="3240" fromJunction="J4" toJunction="J0" end="3600" vehsPerHour="10.55809061053337" departLane="free"/>
  <flow id="JF13498" begin="3240" fromJunction="J4" toJunction="J3" end="3600" vehsPerHour="58.290458405456036" departLane="free"/>
  <flow id="JF13499" begin="3240" fromJunction="J4" toJunction="J7" end="3600" vehsPerHour="56.44438097202749" departLane="free"/>
  <flow id="JF13500" begin="3240" fromJunction="J5" toJunction="J3" end="3600" vehsPerHour="29.529402831995505" departLane="free"/>
  <flow id="JF13501" begin="3240" fromJunction="J5" toJunction="J4" end="3600" vehsPerHour="49.81412375649957" departLane="free"/>
  <flow id="JF13502" begin="3240" fromJunction="J5" toJunction="J6" end="3600" vehsPerHour="56.53756718157329" departLane="free"/>
  <flow id="JF13503" begin="3240" fromJunction="J5" toJunction="J7" end="3600" vehsPerHour="8.842317508884761" departLane="free"/>
  <flow id="JF13504" begin="3240" fromJunction="J6" toJunction="J0" end="3600" vehsPerHour="52.33863642746049" departLane="free"/>
  <flow id="JF13505" begin="3240" fromJunction="J6" toJunction="J4" end="3600" vehsPerHour="23.070584978378896" departLane="free"/>
  <flow id="JF13506" begin="3240" fromJunction="J6" toJunction="J5" end="3600" vehsPerHour="62.42803091198016" departLane="free"/>
  <flow id="JF13507" begin="3240" fromJunction="J7" toJunction="J3" end="3600" vehsPerHour="38.385518176578636" departLane="free"/>
  <flow id="JF13508" begin="3240" fromJunction="J7" toJunction="J4" end="3600" vehsPerHour="60.54295650680647" departLane="free"/>
  <flow id="JF13509" begin="3240" fromJunction="J7" toJunction="J6" end="3600" vehsPerHour="9.34053607349766" departLane="free"/>
  <flow id="JF13510" begin="3600" fromJunction="J0" toJunction="J3" end="3960" vehsPerHour="126.09140701015916" departLane="free"/>
  <flow id="JF13511" begin="3600" fromJunction="J0" toJunction="J4" end="3960" vehsPerHour="48.43602074068977" departLane="free"/>
  <flow id="JF13512" begin="3600" fromJunction="J0" toJunction="J5" end="3960" vehsPerHour="86.26685599634922" departLane="free"/>
  <flow id="JF13513" begin="3600" fromJunction="J0" toJunction="J6" end="3960" vehsPerHour="46.24769427728114" departLane="free"/>
  <flow id="JF13514" begin="3600" fromJunction="J0" toJunction="J7" end="3960" vehsPerHour="9.626112579783921" departLane="free"/>
  <flow id="JF13515" begin="3600" fromJunction="J3" toJunction="J0" end="3960" vehsPerHour="113.44757894265372" departLane="free"/>
  <flow id="JF13516" begin="3600" fromJunction="J3" toJunction="J4" end="3960" vehsPerHour="69.35049582523695" departLane="free"/>
  <flow id="JF13517" begin="3600" fromJunction="J3" toJunction="J5" end="3960" vehsPerHour="102.53121316621468" departLane="free"/>
  <flow id="JF13518" begin="3600" fromJunction="J4" toJunction="J6" end="3960" vehsPerHour="53.63144043746338" departLane="free"/>
  <flow id="JF13519" begin="3600" fromJunction="J5" toJunction="J0" end="3960" vehsPerHour="61.206314204421126" departLane="free"/>
  <flow id="JF13520" begin="3600" fromJunction="J5" toJunction="J6" end="3960" vehsPerHour="65.88179271002495" departLane="free"/>
  <flow id="JF13521" begin="3600" fromJunction="J5" toJunction="J7" end="3960" vehsPerHour="31.842087454211672" departLane="free"/>
  <flow id="JF13522" begin="3600" fromJunction="J6" toJunction="J0" end="3960" vehsPerHour="39.778828239218925" departLane="free"/>
  <flow id="JF13523" begin="3600" fromJunction="J6" toJunction="J3" end="3960" vehsPerHour="62.08022999373774" departLane="free"/>
  <flow id="JF13524" begin="3600" fromJunction="J6" toJunction="J5" end="3960" vehsPerHour="29.215959471240172" departLane="free"/>