<?xml version="1.0" encoding="UTF-8"?>
<routes xmlns:xsi="http://www.w3.org/2001/XMLSchema-instance" xsi:noNamespaceSchemaLocation="http://sumo.dlr.de/xsd/routes_file.xsd">
  <flow id="JF58323" begin="0" fromJunction="J0" toJunction="J3" end="60" vehsPerHour="397.3126882877174" departLane="free"/>
  <flow id="JF58324" begin="0" fromJunction="J3" toJunction="J0" end="60" vehsPerHour="265.5639294539203" departLane="free"/>
  <flow id="JF58325" begin="0" fromJunction="J0" toJunction="J6" end="60" vehsPerHour="93.90136171206942" departLane="free"/>
  <flow id="JF58326" begin="0" fromJunction="J0" toJunction="J7" end="60" vehsPerHour="63.010808600663246" departLane="free"/>
  <flow id="JF58327" begin="0" fromJunction="J0" toJunction="J4" end="60" vehsPerHour="19.728988572977993" departLane="free"/>
  <flow id="JF58328" begin="0" fromJunction="J0" toJunction="J5" end="60" vehsPerHour="27.00232427103483" departLane="free"/>
  <flow id="JF58329" begin="0" fromJunction="J3" toJunction="J6" end="60" vehsPerHour="21.040310315327353" departLane="free"/>
  <flow id="JF58330" begin="0" fromJunction="J3" toJunction="J7" end="60" vehsPerHour="54.91507249650447" departLane="free"/>
  <flow id="JF58331" begin="0" fromJunction="J3" toJunction="J4" end="60" vehsPerHour="55.47655879535766" departLane="free"/>
  <flow id="JF58332" begin="0" fromJunction="J3" toJunction="J5" end="60" vehsPerHour="39.27142070754763" departLane="free"/>
  <flow id="JF58333" begin="60" fromJunction="J0" toJunction="J3" end="120" vehsPerHour="13.326958306094976" departLane="free"/>
  <flow id="JF58334" begin="60" fromJunction="J3" toJunction="J0" end="120" vehsPerHour="244.84599434282234" departLane="free"/>
  <flow id="JF58335" begin="60" fromJunction="J0" toJunction="J6" end="120" vehsPerHour="6.5956427979379395" departLane="free"/>
  <flow id="JF58336" begin="60" fromJunction="J0" toJunction="J7" end="120" vehsPerHour="74.4512411913348" departLane="free"/>
  <flow id="JF58337" begin="60" fromJunction="J0" toJunction="J4" end="120" vehsPerHour="116.55814296858487" departLane="free"/>
  <flow id="JF58338" begin="60" fromJunction="J0" toJunction="J5" end="120" vehsPerHour="8.906559224658123" departLane="free"/>
  <flow id="JF58339" begin="60" fromJunction="J3" toJunction="J6" end="120" vehsPerHour="106.60073770993252" departLane="free"/>
  <flow id="JF58340" begin="60" fromJunction="J3" toJunction="J7" end="120" vehsPerHour="68.10299055858306" departLane="free"/>
  <flow id="JF58341" begin="60" fromJunction="J3" toJunction="J4" end="120" vehsPerHour="26.288046208205476" departLane="free"/>
  <flow id="JF58342" begin="60" fromJunction="J3" toJunction="J5" end="120" vehsPerHour="29.32985438472395" departLane="free"/>
  <flow id="JF58343" begin="60" fromJunction="J6" toJunction="J7" end="120" vehsPerHour="12.663744259409672" departLane="free"/>
  <flow id="JF58344" begin="60" fromJunction="J6" toJunction="J4" end="120" vehsPerHour="8.641476515818695" departLane="free"/>
  <flow id="JF58345" begin="60" fromJunction="J6" toJunction="J5" end="120" vehsPerHour="52.586845079869654" departLane="free"/>
  <flow id="JF58346" begin="60" fromJunction="J7" toJunction="J6" end="120" vehsPerHour="66.94952815928434" departLane="free"/>
  <flow id="JF58347" begin="60" fromJunction="J7" toJunction="J4" end="120" vehsPerHour="44.19612310449882" departLane="free"/>
  <flow id="JF58348" begin="60" fromJunction="J7" toJunction="J5" end="120" vehsPerHour="12.212895183989303" departLane="free"/>
  <flow id="JF58349" begin="60" fromJunction="J4" toJunction="J6" end="120" vehsPerHour="15.248866781263116" departLane="free"/>
  <flow id="JF58350" begin="60" fromJunction="J4" toJunction="J7" end="120" vehsPerHour="11.427028084717445" departLane="free"/>
  <flow id="JF58351" begin="60" fromJunction="J4" toJunction="J5" end="120" vehsPerHour="44.260194973302134" departLane="free"/>
  <flow id="JF58352" begin="60" fromJunction="J5" toJunction="J6" end="120" vehsPerHour="4.499571061238366" departLane="free"/>
  <flow id="JF58353" begin="60" fromJunction="J5" toJunction="J7" end="120" vehsPerHour="26.300607823750624" departLane="free"/>
  <flow id="JF58354" begin="60" fromJunction="J5" toJunction="J4" end="120" vehsPerHour="35.895805056289696" departLane="free"/>
  <flow id="JF58355" begin="60" fromJunction="J6" toJunction="J0" end="120" vehsPerHour="40.46403886791157" departLane="free"/>
  <flow id="JF58356" begin="60" fromJunction="J6" toJunction="J3" end="120" vehsPerHour="36.143898017939826" departLane="free"/>
  <flow id="JF58357" begin="60" fromJunction="J7" toJunction="J0" end="120" vehsPerHour="57.66077465805666" departLane="free"/>
  <flow id="JF58358" begin="60" fromJunction="J7" toJunction="J3" end="120" vehsPerHour="39.640533468422575" departLane="free"/>
  <flow id="JF58359" begin="60" fromJunction="J4" toJunction="J0" end="120" vehsPerHour="10.324214346381199" departLane="free"/>
  <flow id="JF58360" begin="60" fromJunction="J4" toJunction="J3" end="120" vehsPerHour="51.36792832759035" departLane="free"/>
  <flow id="JF58361" begin="60" fromJunction="J5" toJunction="J0" end="120" vehsPerHour="55.6819681210975" departLane="free"/>
  <flow id="JF58362" begin="60" fromJunction="J5" toJunction="J3" end="120" vehsPerHour="19.56944118046405" departLane="free"/>
  <flow id="JF58363" begin="120" fromJunction="J0" toJunction="J3" end="180" vehsPerHour="447.6530267881393" departLane="free"/>
  <flow id="JF58364" begin="120" fromJunction="J3" toJunction="J0" end="180" vehsPerHour="61.648482509498244" departLane="free"/>
  <flow id="JF58365" begin="120" fromJunction="J0" toJunction="J6" end="180" vehsPerHour="116.82858925595836" departLane="free"/>
  <flow id="JF58366" begin="120" fromJunction="J0" toJunction="J7" end="180" vehsPerHour="59.34757415720544" departLane="free"/>
  <flow id="JF58367" begin="120" fromJunction="J0" toJunction="J4" end="180" vehsPerHour="36.68687511453219" departLane="free"/>
  <flow id="JF58368" begin="120" fromJunction="J0" toJunction="J5" end="180" vehsPerHour="108.54326012275206" departLane="free"/>
  <flow id="JF58369" begin="120" fromJunction="J3" toJunction="J6" end="180" vehsPerHour="5.113297709408042" departLane="free"/>
  <flow id="JF58370" begin="120" fromJunction="J3" toJunction="J7" end="180" vehsPerHour="69.93646912609552" departLane="free"/>
  <flow id="JF58371" begin="120" fromJunction="J3" toJunction="J4" end="180" vehsPerHour="6.3281101912132485" departLane="free"/>
  <flow id="JF58372" begin="120" fromJunction="J3" toJunction="J5" end="180" vehsPerHour="66.37886284911582" departLane="free"/>
  <flow id="JF58373" begin="120" fromJunction="J6" toJunction="J7" end="180" vehsPerHour="31.438719130299642" departLane="free"/>
  <flow id="JF58374" begin="120" fromJunction="J6" toJunction="J4" end="180" vehsPerHour="51.1154257730545" departLane="free"/>
  <flow id="JF58375" begin="120" fromJunction="J6" toJunction="J5" end="180" vehsPerHour="65.3761132704441" departLane="free"/>
  <flow id="JF58376" begin="120" fromJunction="J7" toJunction="J6" end="180" vehsPerHour="48.61814409082868" departLane="free"/>
  <flow id="JF58377" begin="120" fromJunction="J7" toJunction="J4" end="180" vehsPerHour="45.88204105973868" departLane="free"/>
  <flow id="JF58378" begin="120" fromJunction="J7" toJunction="J5" end="180" vehsPerHour="61.29771129010953" departLane="free"/>
  <flow id="JF58379" begin="120" fromJunction="J4" toJunction="J6" end="180" vehsPerHour="22.047638374950413" departLane="free"/>
  <flow id="JF58380" begin="120" fromJunction="J4" toJunction="J7" end="180" vehsPerHour="9.166794441285756" departLane="free"/>
  <flow id="JF58381" begin="120" fromJunction="J4" toJunction="J5" end="180" vehsPerHour="6.960172390875605" departLane="free"/>
  <flow id="JF58382" begin="120" fromJunction="J5" toJunction="J6" end="180" vehsPerHour="26.15194125079576" departLane="free"/>
  <flow id="JF58383" begin="120" fromJunction="J5" toJunction="J7" end="180" vehsPerHour="45.86679954642872" departLane="free"/>
  <flow id="JF58384" begin="120" fromJunction="J5" toJunction="J4" end="180" vehsPerHour="3.242272907448771" departLane="free"/>
  <flow id="JF58385" begin="120" fromJunction="J6" toJunction="J0" end="180" vehsPerHour="27.565439606045167" departLane="free"/>
  <flow id="JF58386" begin="120" fromJunction="J6" toJunction="J3" end="180" vehsPerHour="58.16883619727881" departLane="free"/>
  <flow id="JF58387" begin="120" fromJunction="J7" toJunction="J0" end="180" vehsPerHour="6.3016028103082515" departLane="free"/>
  <flow id="JF58388" begin="120" fromJunction="J7" toJunction="J3" end="180" vehsPerHour="37.237184081900914" departLane="free"/>
  <flow id="JF58389" begin="120" fromJunction="J4" toJunction="J0" end="180" vehsPerHour="66.83932127696268" departLane="free"/>
  <flow id="JF58390" begin="120" fromJunction="J4" toJunction="J3" end="180" vehsPerHour="44.18276027110324" departLane="free"/>
  <flow id="JF58391" begin="120" fromJunction="J5" toJunction="J0" end="180" vehsPerHour="12.579377070523098" departLane="free"/>
  <flow id="JF58392" begin="120" fromJunction="J5" toJunction="J3" end="180" vehsPerHour="49.922843536119146" departLane="free"/>
  <flow id="JF58393" begin="180" fromJunction="J0" toJunction="J3" end="240" vehsPerHour="290.1011641507805" departLane="free"/>
  <flow id="JF58394" begin="180" fromJunction="J3" toJunction="J0" end="240" vehsPerHour="393.8530109468133" departLane="free"/>
  <flow id="JF58395" begin="180" fromJunction="J0" toJunction="J6" end="240" vehsPerHour="66.78200528170557" departLane="free"/>
  <flow id="JF58396" begin="180" fromJunction="J0" toJunction="J7" end="240" vehsPerHour="49.52001115530484" departLane="free"/>
  <flow id="JF58397" begin="180" fromJunction="J0" toJunction="J4" end="240" vehsPerHour="38.92513869157331" departLane="free"/>
  <flow id="JF58398" begin="180" fromJunction="J0" toJunction="J5" end="240" vehsPerHour="36.79301719308101" departLane="free"/>
  <flow id="JF58399" begin="180" fromJunction="J3" toJunction="J6" end="240" vehsPerHour="28.554452660716276" departLane="free"/>
  <flow id="JF58400" begin="180" fromJunction="J3" toJunction="J7" end="240" vehsPerHour="94.06239269267196" departLane="free"/>
  <flow id="JF58401" begin="180" fromJunction="J3" toJunction="J4" end="240" vehsPerHour="87.99014783711486" departLane="free"/>
  <flow id="JF58402" begin="180" fromJunction="J3" toJunction="J5" end="240" vehsPerHour="19.894814410776608" departLane="free"/>
  <flow id="JF58403" begin="180" fromJunction="J6" toJunction="J7" end="240" vehsPerHour="67.24924143646524" departLane="free"/>
  <flow id="JF58404" begin="180" fromJunction="J6" toJunction="J4" end="240" vehsPerHour="53.83308579817737" departLane="free"/>
  <flow id="JF58405" begin="180" fromJunction="J6" toJunction="J5" end="240" vehsPerHour="65.29295614975024" departLane="free"/>
  <flow id="JF58406" begin="180" fromJunction="J7" toJunction="J6" end="240" vehsPerHour="67.20527469725681" departLane="free"/>
  <flow id="JF58407" begin="180" fromJunction="J7" toJunction="J4" end="240" vehsPerHour="10.485975463056443" departLane="free"/>
  <flow id="JF58408" begin="180" fromJunction="J7" toJunction="J5" end="240" vehsPerHour="37.394086292561084" departLane="free"/>
  <flow id="JF58409" begin="180" fromJunction="J4" toJunction="J6" end="240" vehsPerHour="27.546505095664735" departLane="free"/>
  <flow id="JF58410" begin="180" fromJunction="J4" toJunction="J7" end="240" vehsPerHour="66.2705069988691" departLane="free"/>
  <flow id="JF58411" begin="180" fromJunction="J4" toJunction="J5" end="240" vehsPerHour="36.38195625939888" departLane="free"/>
  <flow id="JF58412" begin="180" fromJunction="J5" toJunction="J6" end="240" vehsPerHour="46.386924047195755" departLane="free"/>
  <flow id="JF58413" begin="180" fromJunction="J5" toJunction="J7" end="240" vehsPerHour="35.74854970930129" departLane="free"/>
  <flow id="JF58414" begin="180" fromJunction="J5" toJunction="J4" end="240" vehsPerHour="22.141977288221696" departLane="free"/>
  <flow id="JF58415" begin="180" fromJunction="J6" toJunction="J0" end="240" vehsPerHour="47.842115293959125" departLane="free"/>
  <flow id="JF58416" begin="180" fromJunction="J6" toJunction="J3" end="240" vehsPerHour="14.306842582871015" departLane="free"/>
  <flow id="JF58417" begin="180" fromJunction="J7" toJunction="J0" end="240" vehsPerHour="65.2027326878239" departLane="free"/>
  <flow id="JF58418" begin="180" fromJunction="J7" toJunction="J3" end="240" vehsPerHour="5.991434888852073" departLane="free"/>
  <flow id="JF58419" begin="180" fromJunction="J4" toJunction="J0" end="240" vehsPerHour="11.088491453819191" departLane="free"/>
  <flow id="JF58420" begin="180" fromJunction="J4" toJunction="J3" end="240" vehsPerHour="16.835771788813144" departLane="free"/>
  <flow id="JF58421" begin="180" fromJunction="J5" toJunction="J0" end="240" vehsPerHour="66.6383432976357" departLane="free"/>
  <flow id="JF58422" begin="180" fromJunction="J5" toJunction="J3" end="240" vehsPerHour="7.3836249107714975" departLane="free"/>
  <flow id="JF58423" begin="240" fromJunction="J0" toJunction="J3" end="300" vehsPerHour="37.7526217005047" departLane="free"/>
  <flow id="JF58424" begin="240" fromJunction="J3" toJunction="J0" end="300" vehsPerHour="96.88995693644877" departLane="free"/>
  <flow id="JF58425" begin="240" fromJunction="J0" toJunction="J6" end="300" vehsPerHour="80.11086233251426" departLane="free"/>
  <flow id="JF58426" begin="240" fromJunction="J0" toJunction="J7" end="300" vehsPerHour="47.468537812314956" departLane="free"/>
  <flow id="JF58427" begin="240" fromJunction="J0" toJunction="J4" end="300" vehsPerHour="119.90603857175492" departLane="free"/>
  <flow id="JF58428" begin="240" fromJunction="J0" toJunction="J5" end="300" vehsPerHour="15.52150616779711" departLane="free"/>
  <flow id="JF58429" begin="240" fromJunction="J3" toJunction="J6" end="300" vehsPerHour="52.30438096912834" departLane="free"/>
  <flow id="JF58430" begin="240" fromJunction="J3" toJunction="J7" end="300" vehsPerHour="74.03890823649566" departLane="free"/>
  <flow id="JF58431" begin="240" fromJunction="J3" toJunction="J4" end="300" vehsPerHour="40.19039320249966" departLane="free"/>
  <flow id="JF58432" begin="240" fromJunction="J3" toJunction="J5" end="300" vehsPerHour="48.23424898652979" departLane="free"/>
  <flow id="JF58433" begin="240" fromJunction="J6" toJunction="J7" end="300" vehsPerHour="25.791379269956636" departLane="free"/>
  <flow id="JF58434" begin="240" fromJunction="J6" toJunction="J4" end="300" vehsPerHour="18.62224711752115" departLane="free"/>
  <flow id="JF58435" begin="240" fromJunction="J6" toJunction="J5" end="300" vehsPerHour="15.577033646240073" departLane="free"/>
  <flow id="JF58436" begin="240" fromJunction="J7" toJunction="J6" end="300" vehsPerHour="56.93329971372762" departLane="free"/>
  <flow id="JF58437" begin="240" fromJunction="J7" toJunction="J4" end="300" vehsPerHour="27.750804334766414" departLane="free"/>
  <flow id="JF58438" begin="240" fromJunction="J7" toJunction="J5" end="300" vehsPerHour="68.14361234783641" departLane="free"/>
  <flow id="JF58439" begin="240" fromJunction="J4" toJunction="J6" end="300" vehsPerHour="43.431258788668735" departLane="free"/>
  <flow id="JF58440" begin="240" fromJunction="J4" toJunction="J7" end="300" vehsPerHour="65.57098737349837" departLane="free"/>
  <flow id="JF58441" begin="240" fromJunction="J4" toJunction="J5" end="300" vehsPerHour="17.020274037651003" departLane="free"/>
  <flow id="JF58442" begin="240" fromJunction="J5" toJunction="J6" end="300" vehsPerHour="23.1977474049605" departLane="free"/>
  <flow id="JF58443" begin="240" fromJunction="J5" toJunction="J7" end="300" vehsPerHour="34.30483351179206" departLane="free"/>
  <flow id="JF58444" begin="240" fromJunction="J5" toJunction="J4" end="300" vehsPerHour="36.07197235140541" departLane="free"/>
  <flow id="JF58445" begin="240" fromJunction="J6" toJunction="J0" end="300" vehsPerHour="7.42683905169265" departLane="free"/>
  <flow id="JF58446" begin="240" fromJunction="J6" toJunction="J3" end="300" vehsPerHour="48.97017336658699" departLane="free"/>
  <flow id="JF58447" begin="240" fromJunction="J7" toJunction="J0" end="300" vehsPerHour="5.965242922106134" departLane="free"/>
  <flow id="JF58448" begin="240" fromJunction="J7" toJunction="J3" end="300" vehsPerHour="3.7787513559131702" departLane="free"/>
  <flow id="JF58449" begin="240" fromJunction="J4" toJunction="J0" end="300" vehsPerHour="22.908910454135842" departLane="free"/>
  <flow id="JF58450" begin="240" fromJunction="J4" toJunction="J3" end="300" vehsPerHour="19.832197402458547" departLane="free"/>
  <flow id="JF58451" begin="240" fromJunction="J5" toJunction="J0" end="300" vehsPerHour="21.030716175537844" departLane="free"/>
  <flow id="JF58452" begin="240" fromJunction="J5" toJunction="J3" end="300" vehsPerHour="30.703455899456355" departLane="free"/>
  <flow id="JF58453" begin="300" fromJunction="J0" toJunction="J3" end="360" vehsPerHour="501.3867643642271" departLane="free"/>
  <flow id="JF58454" begin="300" fromJunction="J3" toJunction="J0" end="360" vehsPerHour="230.35099481197432" departLane="free"/>
  <flow id="JF58455" begin="300" fromJunction="J0" toJunction="J6" end="360" vehsPerHour="96.7016725249937" departLane="free"/>
  <flow id="JF58456" begin="300" fromJunction="J0" toJunction="J7" end="360" vehsPerHour="7.185008923249145" departLane="free"/>
  <flow id="JF58457" begin="300" fromJunction="J0" toJunction="J4" end="360" vehsPerHour="8.831539001386089" departLane="free"/>
  <flow id="JF58458" begin="300" fromJunction="J0" toJunction="J5" end="360" vehsPerHour="4.469147202521956" departLane="free"/>
  <flow id="JF58459" begin="300" fromJunction="J3" toJunction="J6" end="360" vehsPerHour="14.209371397531799" departLane="free"/>
  <flow id="JF58460" begin="300" fromJunction="J3" toJunction="J7" end="360" vehsPerHour="128.44126761735296" departLane="free"/>
  <flow id="JF58461" begin="300" fromJunction="J3" toJunction="J4" end="360" vehsPerHour="84.56421802851008" departLane="free"/>
  <flow id="JF58462" begin="300" fromJunction="J3" toJunction="J5" end="360" vehsPerHour="72.32718344244672" departLane="free"/>
  <flow id="JF58463" begin="360" fromJunction="J0" toJunction="J3" end="420" vehsPerHour="181.01829367229794" departLane="free"/>
  <flow id="JF58464" begin="360" fromJunction="J3" toJunction="J0" end="420" vehsPerHour="433.10122205695296" departLane="free"/>
  <flow id="JF58465" begin="360" fromJunction="J0" toJunction="J6" end="420" vehsPerHour="108.61394737656204" departLane="free"/>
  <flow id="JF58466" begin="360" fromJunction="J0" toJunction="J7" end="420" vehsPerHour="109.53781013013719" departLane="free"/>
  <flow id="JF58467" begin="360" fromJunction="J0" toJunction="J4" end="420" vehsPerHour="30.090030342544157" departLane="free"/>
  <flow id="JF58468" begin="360" fromJunction="J0" toJunction="J5" end="420" vehsPerHour="61.678202230012005" departLane="free"/>
  <flow id="JF58469" begin="360" fromJunction="J3" toJunction="J6" end="420" vehsPerHour="1.1958096176115212" departLane="free"/>
  <flow id="JF58470" begin="360" fromJunction="J3" toJunction="J7" end="420" vehsPerHour="35.4174545725847" departLane="free"/>
  <flow id="JF58471" begin="360" fromJunction="J3" toJunction="J4" end="420" vehsPerHour="99.45262053807126" departLane="free"/>
  <flow id="JF58472" begin="360" fromJunction="J3" toJunction="J5" end="420" vehsPerHour="93.9323334327201" departLane="free"/>
  <flow id="JF58473" begin="420" fromJunction="J0" toJunction="J3" end="480" vehsPerHour="39.44255279087333" departLane="free"/>
  <flow id="JF58474" begin="420" fromJunction="J3" toJunction="J0" end="480" vehsPerHour="200.10980243267298" departLane="free"/>
  <flow id="JF58475" begin="420" fromJunction="J0" toJunction="J6" end="480" vehsPerHour="109.80374798553763" departLane="free"/>
  <flow id="JF58476" begin="420" fromJunction="J0" toJunction="J7" end="480" vehsPerHour="70.62446761849115" departLane="free"/>
  <flow id="JF58477" begin="420" fromJunction="J0" toJunction="J4" end="480" vehsPerHour="82.12316337793517" departLane="free"/>
  <flow id="JF58478" begin="420" fromJunction="J0" toJunction="J5" end="480" vehsPerHour="90.18215034361417" departLane="free"/>
  <flow id="JF58479" begin="420" fromJunction="J3" toJunction="J6" end="480" vehsPerHour="105.35262247949218" departLane="free"/>
  <flow id="JF58480" begin="420" fromJunction="J3" toJunction="J7" end="480" vehsPerHour="103.79036990489315" departLane="free"/>
  <flow id="JF58481" begin="420" fromJunction="J3" toJunction="J4" end="480" vehsPerHour="39.46441867608433" departLane="free"/>
  <flow id="JF58482" begin="420" fromJunction="J3" toJunction="J5" end="480" vehsPerHour="86.53714950106419" departLane="free"/>
  <flow id="JF58483" begin="420" fromJunction="J6" toJunction="J7" end="480" vehsPerHour="13.450248588140607" departLane="free"/>
  <flow id="JF58484" begin="420" fromJunction="J6" toJunction="J4" end="480" vehsPerHour="1.4032795632032555" departLane="free"/>
  <flow id="JF58485" begin="420" fromJunction="J6" toJunction="J5" end="480" vehsPerHour="43.500265832963876" departLane="free"/>
  <flow id="JF58486" begin="420" fromJunction="J7" toJunction="J6" end="480" vehsPerHour="40.822913270020706" departLane="free"/>
  <flow id="JF58487" begin="420" fromJunction="J7" toJunction="J4" end="480" vehsPerHour="28.042838140578453" departLane="free"/>
  <flow id="JF58488" begin="420" fromJunction="J7" toJunction="J5" end="480" vehsPerHour="15.597973795213491" departLane="free"/>
  <flow id="JF58489" begin="420" fromJunction="J4" toJunction="J6" end="480" vehsPerHour="48.00630638069617" departLane="free"/>
  <flow id="JF58490" begin="420" fromJunction="J4" toJunction="J7" end="480" vehsPerHour="9.058438998684279" departLane="free"/>
  <flow id="JF58491" begin="420" fromJunction="J4" toJunction="J5" end="480" vehsPerHour="54.72865057351147" departLane="free"/>
  <flow id="JF58492" begin="420" fromJunction="J5" toJunction="J6" end="480" vehsPerHour="4.215317767938425" departLane="free"/>
  <flow id="JF58493" begin="420" fromJunction="J5" toJunction="J7" end="480" vehsPerHour="38.909201820255625" departLane="free"/>
  <flow id="JF58494" begin="420" fromJunction="J5" toJunction="J4" end="480" vehsPerHour="44.347187200201624" departLane="free"/>
  <flow id="JF58495" begin="420" fromJunction="J6" toJunction="J0" end="480" vehsPerHour="59.49542892193679" departLane="free"/>
  <flow id="JF58496" begin="420" fromJunction="J6" toJunction="J3" end="480" vehsPerHour="9.276989701903165" departLane="free"/>
  <flow id="JF58497" begin="420" fromJunction="J7" toJunction="J0" end="480" vehsPerHour="20.56969751969184" departLane="free"/>
  <flow id="JF58498" begin="420" fromJunction="J7" toJunction="J3" end="480" vehsPerHour="67.77796892752549" departLane="free"/>
  <flow id="JF58499" begin="420" fromJunction="J4" toJunction="J0" end="480" vehsPerHour="54.72119710935369" departLane="free"/>
  <flow id="JF58500" begin="420" fromJunction="J4" toJunction="J3" end="480" vehsPerHour="6.805446325004459" departLane="free"/>
  <flow id="JF58501" begin="420" fromJunction="J5" toJunction="J0" end="480" vehsPerHour="62.911914992981295" departLane="free"/>
  <flow id="JF58502" begin="420" fromJunction="J5" toJunction="J3" end="480" vehsPerHour="29.599864994593617" departLane="free"/>
  <flow id="JF58503" begin="480" fromJunction="J0" toJunction="J3" end="540" vehsPerHour="370.7627318888382" departLane="free"/>
  <flow id="JF58504" begin="480" fromJunction="J3" toJunction="J0" end="540" vehsPerHour="361.81081212703384" departLane="free"/>
  <flow id="JF58505" begin="480" fromJunction="J0" toJunction="J6" end="540" vehsPerHour="103.88632101811831" departLane="free"/>
  <flow id="JF58506" begin="480" fromJunction="J0" toJunction="J7" end="540" vehsPerHour="68.80148467446341" departLane="free"/>
  <flow id="JF58507" begin="480" fromJunction="J0" toJunction="J4" end="540" vehsPerHour="123.5787236265737" departLane="free"/>
  <flow id="JF58508" begin="480" fromJunction="J0" toJunction="J5" end="540" vehsPerHour="129.10593119071012" departLane="free"/>
  <flow id="JF58509" begin="480" fromJunction="J3" toJunction="J6" end="540" vehsPerHour="54.80701673095274" departLane="free"/>
  <flow id="JF58510" begin="480" fromJunction="J3" toJunction="J7" end="540" vehsPerHour="132.58419769631794" departLane="free"/>
  <flow id="JF58511" begin="480" fromJunction="J3" toJunction="J4" end="540" vehsPerHour="2.0362903680502042" departLane="free"/>
  <flow id="JF58512" begin="480" fromJunction="J3" toJunction="J5" end="540" vehsPerHour="92.57709800293203" departLane="free"/>
  <flow id="JF58513" begin="480" fromJunction="J6" toJunction="J7" end="540" vehsPerHour="20.19402421279873" departLane="free"/>
  <flow id="JF58514" begin="480" fromJunction="J6" toJunction="J4" end="540" vehsPerHour="39.201488732307745" departLane="free"/>
  <flow id="JF58515" begin="480" fromJunction="J6" toJunction="J5" end="540" vehsPerHour="15.26229954353439" departLane="free"/>
  <flow id="JF58516" begin="480" fromJunction="J7" toJunction="J6" end="540" vehsPerHour="42.82863167047957" departLane="free"/>
  <flow id="JF58517" begin="480" fromJunction="J7" toJunction="J4" end="540" vehsPerHour="67.77387613205326" departLane="free"/>
  <flow id="JF58518" begin="480" fromJunction="J7" toJunction="J5" end="540" vehsPerHour="10.836736385223801" departLane="free"/>
  <flow id="JF58519" begin="480" fromJunction="J4" toJunction="J6" end="540" vehsPerHour="63.15788005077814" departLane="free"/>
  <flow id="JF58520" begin="480" fromJunction="J4" toJunction="J7" end="540" vehsPerHour="27.621081466571876" departLane="free"/>
  <flow id="JF58521" begin="480" fromJunction="J4" toJunction="J5" end="540" vehsPerHour="61.19334450482754" departLane="free"/>
  <flow id="JF58522" begin="480" fromJunction="J5" toJunction="J6" end="540" vehsPerHour="32.9791399455034" departLane="free"/>
  <flow id="JF58523" begin="480" fromJunction="J5" toJunction="J7" end="540" vehsPerHour="50.72728489926277" departLane="free"/>
  <flow id="JF58524" begin="480" fromJunction="J5" toJunction="J4" end="540" vehsPerHour="60.57629077128289" departLane="free"/>
  <flow id="JF58525" begin="480" fromJunction="J6" toJunction="J0" end="540" vehsPerHour="31.751510007639084" departLane="free"/>
  <flow id="JF58526" begin="480" fromJunction="J6" toJunction="J3" end="540" vehsPerHour="60.39638850290897" departLane="free"/>
  <flow id="JF58527" begin="480" fromJunction="J7" toJunction="J0" end="540" vehsPerHour="43.67547986376504" departLane="free"/>
  <flow id="JF58528" begin="480" fromJunction="J7" toJunction="J3" end="540" vehsPerHour="19.644734660179548" departLane="free"/>
  <flow id="JF58529" begin="480" fromJunction="J4" toJunction="J0" end="540" vehsPerHour="8.80624419779256" departLane="free"/>
  <flow id="JF58530" begin="480" fromJunction="J4" toJunction="J3" end="540" vehsPerHour="17.574030504471263" departLane="free"/>
  <flow id="JF58531" begin="480" fromJunction="J5" toJunction="J0" end="540" vehsPerHour="38.21738139884784" departLane="free"/>
  <flow id="JF58532" begin="480" fromJunction="J5" toJunction="J3" end="540" vehsPerHour="29.402928617665175" departLane="free"/>
  <flow id="JF58533" begin="540" fromJunction="J0" toJunction="J3" end="600" vehsPerHour="68.95156248588563" departLane="free"/>
  <flow id="JF58534" begin="540" fromJunction="J3" toJunction="J0" end="600" vehsPerHour="245.92126794230307" departLane="free"/>
  <flow id="JF58535" begin="540" fromJunction="J0" toJunction="J6" end="600" vehsPerHour="85.39287759225368" departLane="free"/>
  <flow id="JF58536" begin="540" fromJunction="J0" toJunction="J7" end="600" vehsPerHour="112.36483623124705" departLane="free"/>
  <flow id="JF58537" begin="540" fromJunction="J0" toJunction="J4" end="600" vehsPerHour="127.46346154933006" departLane="free"/>
  <flow id="JF58538" begin="540" fromJunction="J0" toJunction="J5" end="600" vehsPerHour="103.31555861206166" departLane="free"/>
  <flow id="JF58539" begin="540" fromJunction="J3" toJunction="J6" end="600" vehsPerHour="92.09814441165088" departLane="free"/>
  <flow id="JF58540" begin="540" fromJunction="J3" toJunction="J7" end="600" vehsPerHour="54.626960042280984" departLane="free"/>
  <flow id="JF58541" begin="540" fromJunction="J3" toJunction="J4" end="600" vehsPerHour="124.43159494952118" departLane="free"/>
  <flow id="JF58542" begin="540" fromJunction="J3" toJunction="J5" end="600" vehsPerHour="29.44924733374205" departLane="free"/>
  <flow id="JF58543" begin="540" fromJunction="J6" toJunction="J7" end="600" vehsPerHour="18.19597463532173" departLane="free"/>
  <flow id="JF58544" begin="540" fromJunction="J6" toJunction="J4" end="600" vehsPerHour="64.79040107176318" departLane="free"/>
  <flow id="JF58545" begin="540" fromJunction="J6" toJunction="J5" end="600" vehsPerHour="20.192267324492377" departLane="free"/>
  <flow id="JF58546" begin="540" fromJunction="J7" toJunction="J6" end="600" vehsPerHour="57.03860657884434" departLane="free"/>
  <flow id="JF58547" begin="540" fromJunction="J7" toJunction="J4" end="600" vehsPerHour="12.736793817701816" departLane="free"/>
  <flow id="JF58548" begin="540" fromJunction="J7" toJunction="J5" end="600" vehsPerHour="46.12938170711788" departLane="free"/>
  <flow id="JF58549" begin="540" fromJunction="J4" toJunction="J6" end="600" vehsPerHour="8.41875160431238" departLane="free"/>
  <flow id="JF58550" begin="540" fromJunction="J4" toJunction="J7" end="600" vehsPerHour="8.508649342563372" departLane="free"/>
  <flow id="JF58551" begin="540" fromJunction="J4" toJunction="J5" end="600" vehsPerHour="20.56424685052784" departLane="free"/>
  <flow id="JF58552" begin="540" fromJunction="J5" toJunction="J6" end="600" vehsPerHour="7.29035021694331" departLane="free"/>
  <flow id="JF58553" begin="540" fromJunction="J5" toJunction="J7" end="600" vehsPerHour="43.32469641149513" departLane="free"/>