<?xml version="1.0" encoding="UTF-8"?>
<routes xmlns:xsi="http://www.w3.org/2001/XMLSchema-instance" xsi:noNamespaceSchemaLocation="http://sumo.dlr.de/xsd/routes_file.xsd">
  <flow id="JF13304" begin="0" fromJunction="J0" toJunction="J3" end="360" vehsPerHour="56.71587097184865" departLane="free"/>
  <flow id="JF13305" begin="0" fromJunction="J0" toJunction="J4" end="360" vehsPerHour="6.500891894605437" departLane="free"/>
  <flow id="JF13306" begin="0" fromJunction="J0" toJunction="J5" end="360" vehsPerHour="83.30712329647184" departLane="free"/>
  <flow id="JF13307" begin="0" fromJunction="J0" toJunction="J7" end="360" vehsPerHour="15.408431333987501" departLane="free"/>
  <flow id="JF13308" begin="0" fromJunction="J3" toJunction="J0" end="360" vehsPerHour="31.596936235677624" departLane="free"/>
  <flow id="JF13309" begin="0" fromJunction="J3" toJunction="J5" end="360" vehsPerHour="12.831781000830079" departLane="free"/>
  <flow id="JF13310" begin="0" fromJunction="J3" toJunction="J6" end="360" vehsPerHour="92.11566190106764" departLane="free"/>
  <flow id="JF13311" begin="0" fromJunction="J3" toJunction="J7" end="360" vehsPerHour="57.704675009138995" departLane="free"/>
  <flow id="JF13312" begin="0" fromJunction="J4" toJunction="J5" end="360" vehsPerHour="59.72942593906424" departLane="free"/>
  <flow id="JF13313" begin="0" fromJunction="J4" toJunction="J6" end="360" vehsPerHour="46.17611920389615" departLane="free"/>
  <flow id="JF13314" begin="0" fromJunction="J4" toJunction="J7" end="360" vehsPerHour="25.942559336254103" departLane="free"/>
  <flow id="JF13315" begin="0" fromJunction="J5" toJunction="J0" end="360" vehsPerHour="56.12344142548603" departLane="free"/>
  <flow id="JF13316" begin="0" fromJunction="J5" toJunction="J3" end="360" vehsPerHour="53.769642329124515" departLane="free"/>
  <flow id="JF13317" begin="0" fromJunction="J5" toJunction="J7" end="360" vehsPerHour="67.28490809089578" departLane="free"/>
  <flow id="JF13318" begin="0" fromJunction="J6" toJunction="J0" end="360" vehsPerHour="68.20925294337947" departLane="free"/>
  <flow id="JF13319" begin="0" fromJunction="J6" toJunction="J4" end="360" vehsPerHour="2.28347660537292" departLane="free"/>
  <flow id="JF13320" begin="0" fromJunction="J6" toJunction="J5" end="360" vehsPerHour="31.286492556643825" departLane="free"/>
  <flow id="JF13321" begin="0" fromJunction="J6" toJunction="J7" end="360" vehsPerHour="53.83066590067486" departLane="free"/>
  <flow id="JF13322" begin="0" fromJunction="J7" toJunction="J0" end="360" vehsPerHour="40.27348689875407" departLane="free"/>
  <flow id="JF13323" begin="0" fromJunction="J7" toJunction="J4" end="360" vehsPerHour="38.8261387494801" departLane="free"/>
  <flow id="JF13324" begin="0" fromJunction="J7" toJunction="J6" end="360" vehsPerHour="39.69571094136974" departLane="free"/>
  <flow id="JF13325" begin="360" fromJunction="J0" toJunction="J3" end="720" vehsPerHour="70.25891306811486" departLane="free"/>
  <flow id="JF13326" begin="360" fromJunction="J0" toJunction="J4" end="720" vehsPerHour="102.2150042921853" departLane="free"/>
  <flow id="JF13327" begin="360" fromJunction="J0" toJunction="J7" end="720" vehsPerHour="113.69970232002224" departLane="free"/>
  <flow id="JF13328" begin="360" fromJunction="J3" toJunction="J0" end="720" vehsPerHour="102.86248434589383" departLane="free"/>
  <flow id="JF13329" begin="360" fromJunction="J3" toJunction="J4" end="720" vehsPerHour="35.40947720466617" departLane="free"/>
  <flow id="JF13330" begin="360" fromJunction="J3" toJunction="J5" end="720" vehsPerHour="44.873139927070056" departLane="free"/>
  <flow id="JF13331" begin="360" fromJunction="J3" toJunction="J6" end="720" vehsPerHour="108.19637952878152" departLane="free"/>
  <flow id="JF13332" begin="360" fromJunction="J3" toJunction="J7" end="720" vehsPerHour="135.00806680161352" departLane="free"/>
  <flow id="JF13333" begin="360" fromJunction="J4" toJunction="J0" end="720" vehsPerHour="22.07946128702374" departLane="free"/>
  <flow id="JF13334" begin="360" fromJunction="J4" toJunction="J5" end="720" vehsPerHour="13.246160902165487" departLane="free"/>
  <flow id="JF13335" begin="360" fromJunction="J5" toJunction="J0" end="720" vehsPerHour="7.446059442281691" departLane="free"/>
  <flow id="JF13336" begin="360" fromJunction="J5" toJunction="J3" end="720" vehsPerHour="54.800035334454" departLane="free"/>
  <flow id="JF13337" begin="360" fromJunction="J5" toJunction="J4" end="720" vehsPerHour="54.42102650835376" departLane="free"/>
  <flow id="JF13338" begin="360" fromJunction="J5" toJunction="J7" end="720" vehsPerHour="43.06745760841463" departLane="free"/>
  <flow id="JF13339" begin="360" fromJunction="J6" toJunction="J0" end="720" vehsPerHour="26.787994021232212" departLane="free"/>
  <flow id="JF13340" begin="360" fromJunction="J6" toJunction="J3" end="720" vehsPerHour="52.365422104640416" departLane="free"/>
  <flow id="JF13341" begin="360" fromJunction="J6" toJunction="J4" end="720" vehsPerHour="57.47877551883413" departLane="free"/>
  <flow id="JF13342" begin="360" fromJunction="J6" toJunction="J5" end="720" vehsPerHour="61.51948324788333" departLane="free"/>
  <flow id="JF13343" begin="360" fromJunction="J6" toJunction="J7" end="720" vehsPerHour="55.71277687763384" departLane="free"/>
  <flow id="JF13344" begin="360" fromJunction="J7" toJunction="J4" end="720" vehsPerHour="60.93914173064842" departLane="free"/>
  <flow id="JF13345" begin="360" fromJunction="J7" toJunction="J5" end="720" vehsPerHour="29.34499057407225" departLane="free"/>
  <flow id="JF13346" begin="360" fromJunction="J7" toJunction="J6" end="720" vehsPerHour="27.12482862265498" departLane="free"/>
  <flow id="JF13347" begin="720" fromJunction="J0" toJunction="J3" end="1080" vehsPerHour="126.29460151598515" departLane="free"/>
  <flow id="JF13348" begin="720" fromJunction="J0" toJunction="J5" end="1080" vehsPerHour="115.87607558166526" departLane="free"/>
  <flow id="JF13349" begin="720" fromJunction="J0" toJunction="J6" end="1080" vehsPerHour="42.90112416281254" departLane="free"/>
  <flow id="JF13350" begin="720" fromJunction="J3" toJunction="J4" end="1080" vehsPerHour="83.93088845675368" departLane="free"/>
  <flow id="JF13351" begin="720" fromJunction="J3" toJunction="J5" end="1080" vehsPerHour="109.02433628495417" departLane="free"/>
  <flow id="JF13352" begin="720" fromJunction="J3" toJunction="J6" end="1080" vehsPerHour="10.159275561986687" departLane="free"/>
  <flow id="JF13353" begin="720" fromJunction="J4" toJunction="J0" end="1080" vehsPerHour="54.12602645342608" departLane="free"/>
  <flow id="JF13354" begin="720" fromJunction="J4" toJunction="J3" end="1080" vehsPerHour="36.96358630444844" departLane="free"/>
  <flow id="JF13355" begin="720" fromJunction="J4" toJunction="J5" end="1080" vehsPerHour="9.816586330841432" departLane="free"/>
  <flow id="JF13356" begin="720" fromJunction="J4" toJunction="J6" end="1080" vehsPerHour="32.95631585023138" departLane="free"/>
  <flow id="JF13357" begin="720" fromJunction="J4" toJunction="J7" end="1080" vehsPerHour="64.49056110776456" departLane="free"/>
  <flow id="JF13358" begin="720" fromJunction="J5" toJunction="J0" end="1080" vehsPerHour="35.36928731669425" departLane="free"/>
  <flow id="JF13359" begin="720" fromJunction="J5" toJunction="J3" end="1080" vehsPerHour="12.093993287698659" departLane="free"/>
  <flow id="JF13360" begin="720" fromJunction="J5" toJunction="J4" end="1080" vehsPerHour="26.56487491232135" departLane="free"/>
  <flow id="JF13361" begin="720" fromJunction="J5" toJunction="J6" end="1080" vehsPerHour="55.57052192887979" departLane="free"/>
  <flow id="JF13362" begin="720" fromJunction="J5" toJunction="J7" end="1080" vehsPerHour="27.148222792849364" departLane="free"/>
  <flow id="JF13363" begin="720" fromJunction="J6" toJunction="J4" end="1080" vehsPerHour="15.254258839883677" departLane="free"/>
  <flow id="JF13364" begin="720" fromJunction="J6" toJunction="J7" end="1080" vehsPerHour="3.04540559015182" departLane="free"/>
  <flow id="JF13365" begin="720" fromJunction="J7" toJunction="J3" end="1080" vehsPerHour="6.794680979218539" departLane="free"/>
  <flow id="JF13366" begin="720" fromJunction="J7" toJunction="J4" end="1080" vehsPerHour="5.39535684565824" departLane="free"/>
  <flow id="JF13367" begin="720" fromJunction="J7" toJunction="J5" end="1080" vehsPerHour="59.335160115543914" departLane="free"/>
  <flow id="JF13368" begin="720" fromJunction="J7" toJunction="J6" end="1080" vehsPerHour="33.54432349637001" departLane="free"/>
  <flow id="JF13369" begin="1080" fromJunction="J0" toJunction="J3" end="1440" vehsPerHour="82.10491952724213" departLane="free"/>
  <flow id="JF13370" begin="1080" fromJunction="J0" toJunction="J6" end="1440" vehsPerHour="46.08954296822119" departLane="free"/>
  <flow id="JF13371" begin="1080" fromJunction="J0" toJunction="J7" end="1440" vehsPerHour="46.11881884161818" departLane="free"/>
  <flow id="JF13372" begin="1080" fromJunction="J3" toJunction="J4" end="1440" vehsPerHour="117.85612802930679" departLane="free"/>
  <flow id="JF13373" begin="1080" fromJunction="J3" toJunction="J5" end="1440" vehsPerHour="6.479595285674085" departLane="free"/>
  <flow id="JF13374" begin="1080" fromJunction="J3" toJunction="J7" end="1440" vehsPerHour="51.40692776609226" departLane="free"/>
  <flow id="JF13375" begin="1080" fromJunction="J4" toJunction="J3" end="1440" vehsPerHour="24.359131765229648" departLane="free"/>
  <flow id="JF13376" begin="1080" fromJunction="J4" toJunction="J5" end="1440" vehsPerHour="39.54322808612911" departLane="free"/>
  <flow id="JF13377" begin="1080" fromJunction="J4" toJunction="J6" end="1440" vehsPerHour="22.98806745606853" departLane="free"/>
  <flow id="JF13378" begin="1080" fromJunction="J5" toJunction="J0" end="1440" vehsPerHour="66.62996073381751" departLane="free"/>
  <flow id="JF13379" begin="1080" fromJunction="J5" toJunction="J3" end="1440" vehsPerHour="55.07268902656107" departLane="free"/>
  <flow id="JF13380" begin="1080" fromJunction="J5" toJunction="J4" end="1440" vehsPerHour="44.54039540048424" departLane="free"/>
  <flow id="JF13381" begin="1080" fromJunction="J6" toJunction="J0" end="1440" vehsPerHour="6.558780650474787" departLane="free"/>
  <flow id="JF13382" begin="1080" fromJunction="J6" toJunction="J4" end="1440" vehsPerHour="23.963693133814324" departLane="free"/>
  <flow id="JF13383" begin="1080" fromJunction="J6" toJunction="J5" end="1440" vehsPerHour="40.467344923220544" departLane="free"/>
  <flow id="JF13384" begin="1080" fromJunction="J6" toJunction="J7" end="1440" vehsPerHour="58.20708506227026" departLane="free"/>
  <flow id="JF13385" begin="1080" fromJunction="J7" toJunction="J0" end="1440" vehsPerHour="16.114942656217245" departLane="free"/>
  <flow id="JF13386" begin="1080" fromJunction="J7" toJunction="J3" end="1440" vehsPerHour="4.996777454011829" departLane="free"/>
  <flow id="JF13387" begin="1080" fromJunction="J7" toJunction="J4" end="1440" vehsPerHour="57.85231046262334" departLane="free"/>
  <flow id="JF13388" begin="1080" fromJunction="J7" toJunction="J5" end="1440" vehsPerHour="62.359998796072354" departLane="free"/>
  <flow id="JF13389" begin="1080" fromJunction="J7" toJunction="J6" end="1440" vehsPerHour="19.98570581563159" departLane="free"/>
  <flow id="JF13390" begin="1440" fromJunction="J0" toJunction="J3" end="1800" vehsPerHour="94.29202096008343" departLane="free"/>
  <flow id="JF13391" begin="1440" fromJunction="J0" toJunction="J4" end="1800" vehsPerHour="67.01000451116529" departLane="free"/>
  <flow id="JF13392" begin="1440" fromJunction="J0" toJunction="J5" end="1800" vehsPerHour="65.64478289548174" departLane="free"/>
  <flow id="JF13393" begin="1440" fromJunction="J0" toJunction="J7" end="1800" vehsPerHour="77.0941128145714" departLane="free"/>
  <flow id="JF13394" begin="1440" fromJunction="J3" toJunction="J0" end="1800" vehsPerHour="101.00003241099589" departLane="free"/>
  <flow id="JF13395" begin="1440" fromJunction="J3" toJunction="J4" end="1800" vehsPerHour="35.71510063551311" departLane="free"/>
  <flow id="JF13396" begin="1440" fromJunction="J3" toJunction="J5" end="1800" vehsPerHour="36.34511977876277" departLane="free"/>
  <flow id="JF13397" begin="1440" fromJunction="J3" toJunction="J7" end="1800" vehsPerHour="55.85335988193529" departLane="free"/>
  <flow id="JF13398" begin="1440" fromJunction="J4" toJunction="J3" end="1800" vehsPerHour="20.263556701539986" departLane="free"/>
  <flow id="JF13399" begin="1440" fromJunction="J5" toJunction="J3" end="1800" vehsPerHour="4.6213650178657" departLane="free"/>
  <flow id="JF13400" begin="1440" fromJunction="J5" toJunction="J6" end="1800" vehsPerHour="2.0928921180775832" departLane="free"/>
  <flow id="JF13401" begin="1440" fromJunction="J6" toJunction="J0" end="1800" vehsPerHour="20.18690571779286" departLane="free"/>
  <flow id="JF13402" begin="1440" fromJunction="J6" toJunction="J3" end="1800" vehsPerHour="17.045734562267242" departLane="free"/>
  <flow id="JF13403" begin="1440" fromJunction="J6" toJunction="J5" end="1800" vehsPerHour="48.80726294054504" departLane="free"/>
  <flow id="JF13404" begin="1440" fromJunction="J7" toJunction="J4" end="1800" vehsPerHour="34.925229756648946" departLane="free"/>
  <flow id="JF13405" begin="1440" fromJunction="J7" toJunction="J6" end="1800" vehsPerHour="42.18319960608386" departLane="free"/>
  <flow id="JF13406" begin="1800" fromJunction="J0" toJunction="J3" end="2160" vehsPerHour="122.70897078879743" departLane="free"/>
  <flow id="JF13407" begin="1800" fromJunction="J0" toJunction="J6" end="2160" vehsPerHour="134.84509435350398" departLane="free"/>
  <flow id="JF13408" begin="1800" fromJunction="J0" toJunction="J7" end="2160" vehsPerHour="64.39907814865816" departLane="free"/>
  <flow id="JF13409" begin="1800" fromJunction="J3" toJunction="J0" end="2160" vehsPerHour="8.874584572727722" departLane="free"/>
  <flow id="JF13410" begin="1800" fromJunction="J3" toJunction="J4" end="2160" vehsPerHour="104.24380641763236" departLane="free"/>
  <flow id="JF13411" begin="1800" fromJunction="J3" toJunction="J5" end="2160" vehsPerHour="1.1919176480154778" departLane="free"/>
  <flow id="JF13412" begin="1800" fromJunction="J3" toJunction="J6" end="2160" vehsPerHour="89.57871114464267" departLane="free"/>
  <flow id="JF13413" begin="1800" fromJunction="J3" toJunction="J7" end="2160" vehsPerHour="130.19550991804638" departLane="free"/>
  <flow id="JF13414" begin="1800" fromJunction="J4" toJunction="J0" end="2160" vehsPerHour="13.626288454019575" departLane="free"/>
  <flow id="JF13415" begin="1800" fromJunction="J4" toJunction="J3" end="2160" vehsPerHour="17.069307235341974" departLane="free"/>
  <flow id="JF13416" begin="1800" fromJunction="J4" toJunction="J5" end="2160" vehsPerHour="46.69419836645291" departLane="free"/>
  <flow id="JF13417" begin="1800" fromJunction="J4" toJunction="J6" end="2160" vehsPerHour="60.42354372054596" departLane="free"/>
  <flow id="JF13418" begin="1800" fromJunction="J4" toJunction="J7" end="2160" vehsPerHour="5.215713601892653" departLane="free"/>
  <flow id="JF13419" begin="1800" fromJunction="J5" toJunction="J3" end="2160" vehsPerHour="33.95501040827999" departLane="free"/>
  <flow id="JF13420" begin="1800" fromJunction="J5" toJunction="J4" end="2160" vehsPerHour="4.775075855869888" departLane="free"/>
  <flow id="JF13421" begin="1800" fromJunction="J5" toJunction="J6" end="2160" vehsPerHour="12.469417251700767" departLane="free"/>
  <flow id="JF13422" begin="1800" fromJunction="J6" toJunction="J3" end="2160" vehsPerHour="48.33077108033408" departLane="free"/>
  <flow id="JF13423" begin="1800" fromJunction="J6" toJunction="J4" end="2160" vehsPerHour="59.99030404326785" departLane="free"/>
  <flow id="JF13424" begin="1800" fromJunction="J6" toJunction="J5" end="2160" vehsPerHour="40.29561409468405" departLane="free"/>
  <flow id="JF13425" begin="1800" fromJunction="J6" toJunction="J7" end="2160" vehsPerHour="33.35235640667927" departLane="free"/>
  <flow id="JF13426" begin="1800" fromJunction="J7" toJunction="J0" end="2160" vehsPerHour="37.95151385368555" departLane="free"/>
  <flow id="JF13427" begin="1800" fromJunction="J7" toJunction="J4" end="2160" vehsPerHour="43.728182497924934" departLane="free"/>
  <flow id="JF13428" begin="1800" fromJunction="J7" toJunction="J6" end="2160" vehsPerHour="10.626135032364282" departLane="free"/>
  <flow id="JF13429" begin="2160" fromJunction="J0" toJunction="J3" end="2520" vehsPerHour="96.3772300888155" departLane="free"/>
  <flow id="JF13430" begin="2160" fromJunction="J0" toJunction="J4" end="2520" vehsPerHour="63.7332349978611" departLane="free"/>
  <flow id="JF13431" begin="2160" fromJunction="J0" toJunction="J5" end="2520" vehsPerHour="111.84939299476471" departLane="free"/>
  <flow id="JF13432" begin="2160" fromJunction="J0" toJunction="J6" end="2520" vehsPerHour="24.75687390470656" departLane="free"/>
  <flow id="JF13433" begin="2160" fromJunction="J3" toJunction="J0" end="2520" vehsPerHour="36.257899371656436" departLane="free"/>
  <flow id="JF13434" begin="2160" fromJunction="J3" toJunction="J5" end="2520" vehsPerHour="38.89054837954626" departLane="free"/>
  <flow id="JF13435" begin="2160" fromJunction="J4" toJunction="J0" end="2520" vehsPerHour="8.137842547578332" departLane="free"/>
  <flow id="JF13436" begin="2160" fromJunction="J4" toJunction="J5" end="2520" vehsPerHour="15.89597441526244" departLane="free"/>
  <flow id="JF13437" begin="2160" fromJunction="J4" toJunction="J6" end="2520" vehsPerHour="33.357418614934595" departLane="free"/>
  <flow id="JF13438" begin="2160" fromJunction="J5" toJunction="J0" end="2520" vehsPerHour="65.95698642705516" departLane="free"/>
  <flow id="JF13439" begin="2160" fromJunction="J5" toJunction="J3" end="2520" vehsPerHour="57.38893713293797" departLane="free"/>
  <flow id="JF13440" begin="2160" fromJunction="J5" toJunction="J6" end="2520" vehsPerHour="25.677935794393743" departLane="free"/>
  <flow id="JF13441" begin="2160" fromJunction="J6" toJunction="J0" end="2520" vehsPerHour="42.37425722345542" departLane="free"/>
  <flow id="JF13442" begin="2160" fromJunction="J6" toJunction="J3" end="2520" vehsPerHour="56.03157953635584" departLane="free"/>
  <flow id="JF13443" begin="2160" fromJunction="J6" toJunction="J4" end="2520" vehsPerHour="24.275498822596212" departLane="free"/>
  <flow id="JF13444" begin="2160" fromJunction="J6" toJunction="J5" end="2520" vehsPerHour="36.56981979873596" departLane="free"/>
  <flow id="JF13445" begin="2160" fromJunction="J6" toJunction="J7" end="2520" vehsPerHour="61.05364480090847" departLane="free"/>
  <flow id="JF13446" begin="2160" fromJunction="J7" toJunction="J0" end="2520" vehsPerHour="7.977526512291352" departLane="free"/>
  <flow id="JF13447" begin="2160" fromJunction="J7" toJunction="J4" end="2520" vehsPerHour="4.897949725220365" departLane="free"/>
  <flow id="JF13448" begin="2160" fromJunction="J7" toJunction="J5" end="2520" vehsPerHour="57.46921651689396" departLane="free"/>
  <flow id="JF13449" begin="2160" fromJunction="J7" toJunction="J6" end="2520" vehsPerHour="54.3207426910348" departLane="free"/>
  <flow id="JF13450" begin="2520" fromJunction="J0" toJunction="J5" end="2880" vehsPerHour="84.99455331946567" departLane="free"/>
  <flow id="JF13451" begin="2520" fromJunction="J0" toJunction="J6" end="2880" vehsPerHour="11.716282516980732" departLane="free"/>
  <flow id="JF13452" begin="2520" fromJunction="J0" toJunction="J7" end="2880" vehsPerHour="94.32298043880603" departLane="free"/>
  <flow id="JF13453" begin="2520" fromJunction="J3" toJunction="J0" end="2880" vehsPerHour="122.64108911396696" departLane="free"/>
  <flow id="JF13454" begin="2520" fromJunction="J3" toJunction="J4" end="2880" vehsPerHour="135.70137681901093" departLane="free"/>
  <flow id="JF13455" begin="2520" fromJunction="J3" toJunction="J5" end="2880" vehsPerHour="108.25326562371853" departLane="free"/>
  <flow id="JF13456" begin="2520" fromJunction="J3" toJunction="J6" end="2880" vehsPerHour="79.42861580316718" departLane="free"/>
  <flow id="JF13457" begin="2520" fromJunction="J3" toJunction="J7" end="2880" vehsPerHour="71.28464259839372" departLane="free"/>
  <flow id="JF13458" begin="2520" fromJunction="J4" toJunction="J0" end="2880" vehsPerHour="15.183299755031015" departLane="free"/>
  <flow id="JF13459" begin="2520" fromJunction="J4" toJunction="J3" end="2880" vehsPerHour="13.951359881296877" departLane="free"/>
  <flow id="JF13460" begin="2520" fromJunction="J4" toJunction="J5" end="2880" vehsPerHour="60.06576559899608" departLane="free"/>
  <flow id="JF13461" begin="2520" fromJunction="J4" toJunction="J7" end="2880" vehsPerHour="40.458725456483066" departLane="free"/>
  <flow id="JF13462" begin="2520" fromJunction="J5" toJunction="J4" end="2880" vehsPerHour="25.61677066678395" departLane="free"/>
  <flow id="JF13463" begin="2520" fromJunction="J5" toJunction="J6" end="2880" vehsPerHour="43.01821066542684" departLane="free"/>
  <flow id="JF13464" begin="2520" fromJunction="J5" toJunction="J7" end="2880" vehsPerHour="46.10777976379886" departLane="free"/>
  <flow id="JF13465" begin="2520" fromJunction="J6" toJunction="J0" end="2880" vehsPerHour="49.443944794202906" departLane="free"/>
  <flow id="JF13466" begin="2520" fromJunction="J6" toJunction="J7" end="2880" vehsPerHour="23.126372753664963" departLane="free"/>
  <flow id="JF13467" begin="2520" fromJunction="J7" toJunction="J0" end="2880" vehsPerHour="10.37765819310155" departLane="free"/>
  <flow id="JF13468" begin="2520" fromJunction="J7" toJunction="J3" end="2880" vehsPerHour="1.967103441248621" departLane="free"/>
  <flow id="JF13469" begin="2520" fromJunction="J7" toJunction="J4" end="2880" vehsPerHour="33.75912359901886" departLane="free"/>
  <flow id="JF13470" begin="2880" fromJunction="J0" toJunction="J4" end="3240" vehsPerHour="71.98367681198606" departLane="free"/>
  <flow id="JF13471" begin="2880" fromJunction="J0" toJunction="J7" end="3240" vehsPerHour="4.9868332122974115" departLane="free"/>
  <flow id="JF13472" begin="2880" fromJunction="J3" toJunction="J5" end="3240" vehsPerHour="42.493201964564705" departLane="free"/>
  <flow id="JF13473" begin="2880" fromJunction="J3" toJunction="J6" end="3240" vehsPerHour="97.3186413161082" departLane="free"/>
  <flow id="JF13474" begin="2880" fromJunction="J3" toJunction="J7" end="3240" vehsPerHour="28.396030408021" departLane="free"/>
  <flow id="JF13475" begin="2880" fromJunction="J4" toJunction="J6" end="3240" vehsPerHour="26.910587480118604" departLane="free"/>
  <flow id="JF13476" begin="2880" fromJunction="J5" toJunction="J0" end="3240" vehsPerHour="28.218627558289416" departLane="free"/>
  <flow id="JF13477" begin="2880" fromJunction="J5" toJunction="J4" end="3240" vehsPerHour="28.91667177321826" departLane="free"/>
  <flow id="JF13478" begin="2880" fromJunction="J5" toJunction="J6" end="3240" vehsPerHour="16.325957698331766" departLane="free"/>
  <flow id="JF13479" begin="2880" fromJunction="J6" toJunction="J4" end="3240" vehsPerHour="57.677369180443606" departLane="free"/>
  <flow id="JF13480" begin="2880" fromJunction="J6" toJunction="J5" end="3240" vehsPerHour="2.8025954553446293" departLane="free"/>
  <flow id="JF13481" begin="2880" fromJunction="J6" toJunction="J7" end="3240" vehsPerHour="9.603757617892235" departLane="free"/>
  <flow id="JF13482" begin="2880" fromJunction="J7" toJunction="J0" end="3240" vehsPerHour="21.034263396567432" departLane="free"/>
  <flow id="JF13483" begin="2880" fromJunction="J7" toJunction="J4" end="3240" vehsPerHour="53.812896394275185" departLane="free"/>
  <flow id="JF13484" begin="2880" fromJunction="J7" toJunction="J5" end="3240" vehsPerHour="53.00990072379671" departLane="free"/>
  <flow id="JF13485" begin="3240" fromJunction="J0" toJunction="J3" end="3600" vehsPerHour="21.388903088270396" departLane="free"/>
  <flow id="JF13486" begin="3240" fromJunction="J0" toJunction="J5" end="3600" vehsPerHour="67.13650053475428" departLane="free"/>
  <flow id="JF13487" begin="3240" fromJunction="J0" toJunction="J6" end="3600" vehsPerHour="114.18329362376603" departLane="free"/>
  <flow id="JF13488" begin="3240" fromJunction="J0" toJunction="J7" end="3600" vehsPerHour="26.135752670620384" departLane="free"/>
  <flow id="JF13489" begin="3240" fromJunction="J3" toJunction="J0" end="3600" vehsPerHour="88.13807042100505" departLane="free"/>
  <flow id="JF13490" begin="3240" fromJunction="J3" toJunction="J6" end="3600" vehsPerHour="121.33196922172228" departLane="free"/>
  <flow id="JF13491" begin="3240" fromJunction="J3" toJunction="J7" end="3600" vehsPerHour="43.24405182386601" departLane="free"/>
  <flow id="JF13492" begin="3240" fromJunction="J4" toJunction="J0" end="3600" vehsPerHour="35.10339228138532" departLane="free"/>
  <flow id="JF13493" begin="3240" fromJunction="J4" toJunction="J3" end="3600" vehsPerHour="20.640106643478774" departLane="free"/>
  <flow id="JF13494" begin="3240" fromJunction="J4" toJunction="J5" end="3600" vehsPerHour="7.5382849212188825" departLane="free"/>
  <flow id="JF13495" begin="3240" fromJunction="J4" toJunction="J6" end="3600" vehsPerHour="51.32624433758261" departLane="free"/>
  <flow id="JF13496" begin="3240" fromJunction="J4" toJunction="J7" end="3600" vehsPerHour="66.9659797535207" departLane="free"/>
  <flow id="JF13497" begin="3240" fromJunction="J5" toJunction="J0" end="3600" vehsPerHour="2.889107938915956" departLane="free"/>
  <flow id="JF13498" begin="3240" fromJunction="J5" toJunction="J4" end="3600" vehsPerHour="58.71841238558474" departLane="free"/>
  <flow id="JF13499" begin="3240" fromJunction="J5" toJunction="J6" end="3600" vehsPerHour="60.81534697250569" departLane="free"/>
  <flow id="JF13500" begin="3240" fromJunction="J5" toJunction="J7" end="3600" vehsPerHour="25.877509726325034" departLane="free"/>
  <flow id="JF13501" begin="3240" fromJunction="J6" toJunction="J4" end="3600" vehsPerHour="23.225395498303808" departLane="free"/>
  <flow id="JF13502" begin="3240" fromJunction="J6" toJunction="J5" end="3600" vehsPerHour="35.58024395414776" departLane="free"/>
  <flow id="JF13503" begin="3240" fromJunction="J6" toJunction="J7" end="3600" vehsPerHour="20.822791184765286" departLane="free"/>
  <flow id="JF13504" begin="3240" fromJunction="J7" toJunction="J0" end="3600" vehsPerHour="31.58561365745277" departLane="free"/>
  <flow id="JF13505" begin="3240" fromJunction="J7" toJunction="J5" end="3600" vehsPerHour="14.45394321332657" departLane="free"/>
  <flow id="JF13506" begin="3600" fromJunction="J0" toJunction="J3" end="3960" vehsPerHour="111.90390894805219" departLane="free"/>
  <flow id="JF13507" begin="3600" fromJunction="J0" toJunction="J4" end="3960" vehsPerHour="38.42709150175735" departLane="free"/>
  <flow id="JF13508" begin="3600" fromJunction="J0" toJunction="J5" end="3960" vehsPerHour="22.323228379026645" departLane="free"/>
  <flow id="JF13509" begin="3600" fromJunction="J0" toJunction="J7" end="3960" vehsPerHour="58.86290485119403" departLane="free"/>
  <flow id="JF13510" begin="3600" fromJunction="J3" toJunction="J0" end="3960" vehsPerHour="64.68970755080845" departLane="free"/>
  <flow id="JF13511" begin="3600" fromJunction="J3" toJunction="J4" end="3960" vehsPerHour="2.5962523708302987" departLane="free"/>
  <flow id="JF13512" begin="3600" fromJunction="J3" toJunction="J6" end="3960" vehsPerHour="96.83673137130192" departLane="free"/>
  <flow id="JF13513" begin="3600" fromJunction="J3" toJunction="J7" end="3960" vehsPerHour="18.15998570343835" departLane="free"/>
  <flow id="JF13514" begin="3600" fromJunction="J4" toJunction="J3" end="3960" vehsPerHour="35.092539763456344" departLane="free"/>
  <flow id="JF13515" begin="3600" fromJunction="J4" toJunction="J6" end="3960" vehsPerHour="35.57140011617526" departLane="free"/>
  <flow id="JF13516" begin="3600" fromJunction="J4" toJunction="J7" end="3960" vehsPerHour="63.94613218477759" departLane="free"/>
  <flow id="JF13517" begin="3600" fromJunction="J5" toJunction="J0" end="3960" vehsPerHour="4.211344889330151" departLane="free"/>
  <flow id="JF13518" begin="3600" fromJunction="J5" toJunction="J3" end="3960" vehsPerHour="31.27674569177118" departLane="free"/>
  <flow id="JF13519" begin="3600" fromJunction="J5" toJunction="J4" end="3960" vehsPerHour="20.992119765237796" departLane="free"/>
  <flow id="JF13520" begin="3600" fromJunction="J5" toJunction="J7" end="3960" vehsPerHour="42.89515825288376" departLane="free"/>
  <flow id="JF13521" begin="3600" fromJunction="J6" toJunction="J0" end="3960" vehsPerHour="61.00858563055895" departLane="free"/>
  <flow id="JF13522" begin="3600" fromJunction="J6" toJunction="J3" end="3960" vehsPerHour="25.654604135981693" departLane="free"/>
  <flow id="JF13523" begin="3600" fromJunction="J6" toJunction="J4" end="3960" vehsPerHour="38.25396606096653" departLane="free"/>
  <flow id="JF13524" begin="3600" fromJunction="J6" toJunction="J5" end="3960" vehsPerHour="14.543469629423278" departLane="free"/>
  <flow id="JF13525" begin="3600" fromJunction="J6" toJunction="J7" end="3960" vehsPerHour="30.86862610972832" departLane="free"/>
  <flow id="JF13526" begin="3600" fromJunction="J7" toJunction="J0" end="3960" vehsPerHour="5.753236627033446" departLane="free"/>
  <flow id="JF13527" begin="3960" fromJunction="J0" toJunction="J3" end="4320" vehsPerHour="113.52752279798253" departLane="free"/>
  <flow id="JF13528" begin="3960" fromJunction="J0" toJunction="J4" end="4320" vehsPerHour="98.70746672820098" departLane="free"/>
  <flow id="JF13529" begin="3960" fromJunction="J0" toJunction="J5" end="4320" vehsPerHour="40.243264899957566" departLane="free"/>
  <flow id="JF13530" begin="3960" fromJunction="J0" toJunction="J6" end="4320" vehsPerHour="47.91868615871446" departLane="free"/>
  <flow id="JF13531" begin="3960" fromJunction="J0" toJunction="J7" end="4320" vehsPerHour="82.3323085453829" departLane="free"/>