<?xml version="1.0" encoding="UTF-8"?>
<routes xmlns:xsi="http://www.w3.org/2001/XMLSchema-instance" xsi:noNamespaceSchemaLocation="http://sumo.dlr.de/xsd/routes_file.xsd">
  <flow id="JF13352" begin="0" fromJunction="J0" toJunction="J3" end="360" vehsPerHour="49.558886311266484" departLane="free" arrivalSpeed="0.0"/>
  <flow id="JF13353" begin="0" fromJunction="J0" toJunction="J4" end="360" vehsPerHour="73.25994708766986" departLane="free" arrivalSpeed="0.0"/>
  <flow id="JF13354" begin="0" fromJunction="J0" toJunction="J5" end="360" vehsPerHour="5.423385634554708" departLane="free" arrivalSpeed="0.0"/>
  <flow id="JF13355" begin="0" fromJunction="J0" toJunction="J7" end="360" vehsPerHour="52.7352494620332" departLane="free" arrivalSpeed="0.0"/>
  <flow id="JF13356" begin="0" fromJunction="J3" toJunction="J4" end="360" vehsPerHour="130.4229373862457" departLane="free" arrivalSpeed="0.0"/>
  <flow id="JF13357" begin="0" fromJunction="J3" toJunction="J5" end="360" vehsPerHour="128.53128957609053" departLane="free" arrivalSpeed="0.0"/>
  <flow id="JF13358" begin="0" fromJunction="J3" toJunction="J6" end="360" vehsPerHour="91.70408923102958" departLane="free" arrivalSpeed="0.0"/>
  <flow id="JF13359" begin="0" fromJunction="J4" toJunction="J3" end="360" vehsPerHour="16.488149259789576" departLane="free" arrivalSpeed="0.0"/>
  <flow id="JF13360" begin="0" fromJunction="J4" toJunction="J7" end="360" vehsPerHour="45.24572144457812" departLane="free" arrivalSpeed="0.0"/>
  <flow id="JF13361" begin="0" fromJunction="J5" toJunction="J0" end="360" vehsPerHour="59.45587382435687" departLane="free" arrivalSpeed="0.0"/>
  <flow id="JF13362" begin="0" fromJunction="J5" toJunction="J3" end="360" vehsPerHour="25.787448066321662" departLane="free" arrivalSpeed="0.0"/>
  <flow id="JF13363" begin="0" fromJunction="J5" toJunction="J4" end="360" vehsPerHour="67.16848091903412" departLane="free" arrivalSpeed="0.0"/>
  <flow id="JF13364" begin="0" fromJunction="J5" toJunction="J6" end="360" vehsPerHour="56.542512325990394" departLane="free" arrivalSpeed="0.0"/>
  <flow id="JF13365" begin="0" fromJunction="J6" toJunction="J0" end="360" vehsPerHour="45.34145061810998" departLane="free" arrivalSpeed="0.0"/>
  <flow id="JF13366" begin="0" fromJunction="J6" toJunction="J3" end="360" vehsPerHour="1.8918060222832407" departLane="free" arrivalSpeed="0.0"/>
  <flow id="JF13367" begin="0" fromJunction="J6" toJunction="J7" end="360" vehsPerHour="48.53374405251139" departLane="free" arrivalSpeed="0.0"/>
  <flow id="JF13368" begin="0" fromJunction="J7" toJunction="J0" end="360" vehsPerHour="18.18448847995448" departLane="free" arrivalSpeed="0.0"/>
  <flow id="JF13369" begin="0" fromJunction="J7" toJunction="J5" end="360" vehsPerHour="48.7054551704064" departLane="free" arrivalSpeed="0.0"/>
  <flow id="JF13370" begin="360" fromJunction="J0" toJunction="J3" end="720" vehsPerHour="110.31804191737149" departLane="free" arrivalSpeed="0.0"/>
  <flow id="JF13371" begin="360" fromJunction="J0" toJunction="J4" end="720" vehsPerHour="61.857785929922144" departLane="free" arrivalSpeed="0.0"/>
  <flow id="JF13372" begin="360" fromJunction="J0" toJunction="J5" end="720" vehsPerHour="91.25592585200303" departLane="free" arrivalSpeed="0.0"/>
  <flow id="JF13373" begin="360" fromJunction="J0" toJunction="J7" end="720" vehsPerHour="126.63304899681216" departLane="free" arrivalSpeed="0.0"/>
  <flow id="JF13374" begin="360" fromJunction="J3" toJunction="J0" end="720" vehsPerHour="104.85831287590541" departLane="free" arrivalSpeed="0.0"/>
  <flow id="JF13375" begin="360" fromJunction="J3" toJunction="J5" end="720" vehsPerHour="91.75290839075025" departLane="free" arrivalSpeed="0.0"/>
  <flow id="JF13376" begin="360" fromJunction="J3" toJunction="J6" end="720" vehsPerHour="121.29765947631707" departLane="free" arrivalSpeed="0.0"/>
  <flow id="JF13377" begin="360" fromJunction="J3" toJunction="J7" end="720" vehsPerHour="28.488421381397075" departLane="free" arrivalSpeed="0.0"/>
  <flow id="JF13378" begin="360" fromJunction="J4" toJunction="J0" end="720" vehsPerHour="68.60167448285257" departLane="free" arrivalSpeed="0.0"/>
  <flow id="JF13379" begin="360" fromJunction="J4" toJunction="J3" end="720" vehsPerHour="17.687073446933884" departLane="free" arrivalSpeed="0.0"/>
  <flow id="JF13380" begin="360" fromJunction="J4" toJunction="J5" end="720" vehsPerHour="24.259966341520855" departLane="free" arrivalSpeed="0.0"/>
  <flow id="JF13381" begin="360" fromJunction="J4" toJunction="J6" end="720" vehsPerHour="55.71491841441688" departLane="free" arrivalSpeed="0.0"/>
  <flow id="JF13382" begin="360" fromJunction="J5" toJunction="J0" end="720" vehsPerHour="59.661825081357435" departLane="free" arrivalSpeed="0.0"/>
  <flow id="JF13383" begin="360" fromJunction="J5" toJunction="J3" end="720" vehsPerHour="27.220327877784833" departLane="free" arrivalSpeed="0.0"/>
  <flow id="JF13384" begin="360" fromJunction="J5" toJunction="J4" end="720" vehsPerHour="3.0179935619785043" departLane="free" arrivalSpeed="0.0"/>
  <flow id="JF13385" begin="360" fromJunction="J5" toJunction="J6" end="720" vehsPerHour="7.768012092991306" departLane="free" arrivalSpeed="0.0"/>
  <flow id="JF13386" begin="360" fromJunction="J5" toJunction="J7" end="720" vehsPerHour="57.15516271146672" departLane="free" arrivalSpeed="0.0"/>
  <flow id="JF13387" begin="360" fromJunction="J6" toJunction="J0" end="720" vehsPerHour="45.29143686651676" departLane="free" arrivalSpeed="0.0"/>
  <flow id="JF13388" begin="360" fromJunction="J6" toJunction="J4" end="720" vehsPerHour="65.41690370425721" departLane="free" arrivalSpeed="0.0"/>
  <flow id="JF13389" begin="360" fromJunction="J6" toJunction="J7" end="720" vehsPerHour="55.37485119601747" departLane="free" arrivalSpeed="0.0"/>
  <flow id="JF13390" begin="360" fromJunction="J7" toJunction="J0" end="720" vehsPerHour="44.09745763004904" departLane="free" arrivalSpeed="0.0"/>
  <flow id="JF13391" begin="360" fromJunction="J7" toJunction="J3" end="720" vehsPerHour="26.088790129685496" departLane="free" arrivalSpeed="0.0"/>
  <flow id="JF13392" begin="360" fromJunction="J7" toJunction="J4" end="720" vehsPerHour="59.79391559773505" departLane="free" arrivalSpeed="0.0"/>
  <flow id="JF13393" begin="360" fromJunction="J7" toJunction="J5" end="720" vehsPerHour="19.41576462660041" departLane="free" arrivalSpeed="0.0"/>
  <flow id="JF13394" begin="720" fromJunction="J0" toJunction="J4" end="1080" vehsPerHour="26.12860260603303" departLane="free" arrivalSpeed="0.0"/>
  <flow id="JF13395" begin="720" fromJunction="J0" toJunction="J6" end="1080" vehsPerHour="75.17431252353492" departLane="free" arrivalSpeed="0.0"/>
  <flow id="JF13396" begin="720" fromJunction="J0" toJunction="J7" end="1080" vehsPerHour="0.8394031576739182" departLane="free" arrivalSpeed="0.0"/>
  <flow id="JF13397" begin="720" fromJunction="J3" toJunction="J0" end="1080" vehsPerHour="21.879054095703168" departLane="free" arrivalSpeed="0.0"/>
  <flow id="JF13398" begin="720" fromJunction="J3" toJunction="J5" end="1080" vehsPerHour="47.330725238069455" departLane="free" arrivalSpeed="0.0"/>
  <flow id="JF13399" begin="720" fromJunction="J3" toJunction="J7" end="1080" vehsPerHour="118.44941804500488" departLane="free" arrivalSpeed="0.0"/>
  <flow id="JF13400" begin="720" fromJunction="J4" toJunction="J0" end="1080" vehsPerHour="56.922032271307096" departLane="free" arrivalSpeed="0.0"/>
  <flow id="JF13401" begin="720" fromJunction="J4" toJunction="J3" end="1080" vehsPerHour="6.178196884597261" departLane="free" arrivalSpeed="0.0"/>
  <flow id="JF13402" begin="720" fromJunction="J4" toJunction="J5" end="1080" vehsPerHour="56.65785829665466" departLane="free" arrivalSpeed="0.0"/>
  <flow id="JF13403" begin="720" fromJunction="J4" toJunction="J6" end="1080" vehsPerHour="45.614205530064076" departLane="free" arrivalSpeed="0.0"/>
  <flow id="JF13404" begin="720" fromJunction="J4" toJunction="J7" end="1080" vehsPerHour="58.37123904184047" departLane="free" arrivalSpeed="0.0"/>
  <flow id="JF13405" begin="720" fromJunction="J5" toJunction="J0" end="1080" vehsPerHour="50.5651791638693" departLane="free" arrivalSpeed="0.0"/>
  <flow id="JF13406" begin="720" fromJunction="J5" toJunction="J3" end="1080" vehsPerHour="7.207482570639133" departLane="free" arrivalSpeed="0.0"/>
  <flow id="JF13407" begin="720" fromJunction="J5" toJunction="J4" end="1080" vehsPerHour="6.104389265450261" departLane="free" arrivalSpeed="0.0"/>
  <flow id="JF13408" begin="720" fromJunction="J5" toJunction="J6" end="1080" vehsPerHour="54.607094715075604" departLane="free" arrivalSpeed="0.0"/>
  <flow id="JF13409" begin="720" fromJunction="J5" toJunction="J7" end="1080" vehsPerHour="8.45842005984464" departLane="free" arrivalSpeed="0.0"/>
  <flow id="JF13410" begin="720" fromJunction="J6" toJunction="J0" end="1080" vehsPerHour="54.75656987122195" departLane="free" arrivalSpeed="0.0"/>
  <flow id="JF13411" begin="720" fromJunction="J6" toJunction="J3" end="1080" vehsPerHour="32.54804625194258" departLane="free" arrivalSpeed="0.0"/>
  <flow id="JF13412" begin="720" fromJunction="J6" toJunction="J4" end="1080" vehsPerHour="35.69450034245796" departLane="free" arrivalSpeed="0.0"/>
  <flow id="JF13413" begin="720" fromJunction="J6" toJunction="J7" end="1080" vehsPerHour="21.755754164661965" departLane="free" arrivalSpeed="0.0"/>
  <flow id="JF13414" begin="720" fromJunction="J7" toJunction="J6" end="1080" vehsPerHour="43.15480577787032" departLane="free" arrivalSpeed="0.0"/>
  <flow id="JF13415" begin="1080" fromJunction="J0" toJunction="J3" end="1440" vehsPerHour="61.850715324648185" departLane="free" arrivalSpeed="0.0"/>
  <flow id="JF13416" begin="1080" fromJunction="J0" toJunction="J5" end="1440" vehsPerHour="117.10594207709367" departLane="free" arrivalSpeed="0.0"/>
  <flow id="JF13417" begin="1080" fromJunction="J0" toJunction="J7" end="1440" vehsPerHour="120.41702777473809" departLane="free" arrivalSpeed="0.0"/>
  <flow id="JF13418" begin="1080" fromJunction="J3" toJunction="J0" end="1440" vehsPerHour="14.753424904386103" departLane="free" arrivalSpeed="0.0"/>
  <flow id="JF13419" begin="1080" fromJunction="J3" toJunction="J4" end="1440" vehsPerHour="42.8235906559779" departLane="free" arrivalSpeed="0.0"/>
  <flow id="JF13420" begin="1080" fromJunction="J3" toJunction="J6" end="1440" vehsPerHour="92.57298650887257" departLane="free" arrivalSpeed="0.0"/>
  <flow id="JF13421" begin="1080" fromJunction="J3" toJunction="J7" end="1440" vehsPerHour="71.26287825239844" departLane="free" arrivalSpeed="0.0"/>
  <flow id="JF13422" begin="1080" fromJunction="J4" toJunction="J5" end="1440" vehsPerHour="15.538204041332667" departLane="free" arrivalSpeed="0.0"/>
  <flow id="JF13423" begin="1080" fromJunction="J4" toJunction="J6" end="1440" vehsPerHour="6.056117231218007" departLane="free" arrivalSpeed="0.0"/>
  <flow id="JF13424" begin="1080" fromJunction="J4" toJunction="J7" end="1440" vehsPerHour="19.476699376152048" departLane="free" arrivalSpeed="0.0"/>
  <flow id="JF13425" begin="1080" fromJunction="J5" toJunction="J0" end="1440" vehsPerHour="64.48372354131136" departLane="free" arrivalSpeed="0.0"/>
  <flow id="JF13426" begin="1080" fromJunction="J5" toJunction="J3" end="1440" vehsPerHour="24.20415131774894" departLane="free" arrivalSpeed="0.0"/>
  <flow id="JF13427" begin="1080" fromJunction="J5" toJunction="J7" end="1440" vehsPerHour="22.6189824982317" departLane="free" arrivalSpeed="0.0"/>
  <flow id="JF13428" begin="1080" fromJunction="J6" toJunction="J0" end="1440" vehsPerHour="27.902064519164004" departLane="free" arrivalSpeed="0.0"/>
  <flow id="JF13429" begin="1080" fromJunction="J6" toJunction="J3" end="1440" vehsPerHour="25.036542072562995" departLane="free" arrivalSpeed="0.0"/>
  <flow id="JF13430" begin="1080" fromJunction="J6" toJunction="J4" end="1440" vehsPerHour="38.54527479620653" departLane="free" arrivalSpeed="0.0"/>
  <flow id="JF13431" begin="1080" fromJunction="J6" toJunction="J7" end="1440" vehsPerHour="51.893278386177805" departLane="free" arrivalSpeed="0.0"/>
  <flow id="JF13432" begin="1080" fromJunction="J7" toJunction="J0" end="1440" vehsPerHour="50.839010459931956" departLane="free" arrivalSpeed="0.0"/>
  <flow id="JF13433" begin="1080" fromJunction="J7" toJunction="J5" end="1440" vehsPerHour="65.26688295205662" departLane="free" arrivalSpeed="0.0"/>
  <flow id="JF13434" begin="1080" fromJunction="J7" toJunction="J6" end="1440" vehsPerHour="31.27475414265461" departLane="free" arrivalSpeed="0.0"/>
  <flow id="JF13435" begin="1440" fromJunction="J0" toJunction="J5" end="1800" vehsPerHour="130.17083497196617" departLane="free" arrivalSpeed="0.0"/>
  <flow id="JF13436" begin="1440" fromJunction="J3" toJunction="J0" end="1800" vehsPerHour="96.24189418022847" departLane="free" arrivalSpeed="0.0"/>
  <flow id="JF13437" begin="1440" fromJunction="J3" toJunction="J4" end="1800" vehsPerHour="33.86694876191853" departLane="free" arrivalSpeed="0.0"/>
  <flow id="JF13438" begin="1440" fromJunction="J3" toJunction="J6" end="1800" vehsPerHour="128.52528739750056" departLane="free" arrivalSpeed="0.0"/>
  <flow id="JF13439" begin="1440" fromJunction="J3" toJunction="J7" end="1800" vehsPerHour="28.09602010481565" departLane="free" arrivalSpeed="0.0"/>
  <flow id="JF13440" begin="1440" fromJunction="J4" toJunction="J0" end="1800" vehsPerHour="29.652593360877535" departLane="free" arrivalSpeed="0.0"/>
  <flow id="JF13441" begin="1440" fromJunction="J4" toJunction="J3" end="1800" vehsPerHour="22.924191996221637" departLane="free" arrivalSpeed="0.0"/>
  <flow id="JF13442" begin="1440" fromJunction="J4" toJunction="J5" end="1800" vehsPerHour="34.509086729244004" departLane="free" arrivalSpeed="0.0"/>
  <flow id="JF13443" begin="1440" fromJunction="J4" toJunction="J6" end="1800" vehsPerHour="54.222244048794515" departLane="free" arrivalSpeed="0.0"/>
  <flow id="JF13444" begin="1440" fromJunction="J4" toJunction="J7" end="1800" vehsPerHour="60.708961719383375" departLane="free" arrivalSpeed="0.0"/>
  <flow id="JF13445" begin="1440" fromJunction="J5" toJunction="J0" end="1800" vehsPerHour="39.53017279389925" departLane="free" arrivalSpeed="0.0"/>
  <flow id="JF13446" begin="1440" fromJunction="J5" toJunction="J6" end="1800" vehsPerHour="53.26785464737866" departLane="free" arrivalSpeed="0.0"/>
  <flow id="JF13447" begin="1440" fromJunction="J6" toJunction="J3" end="1800" vehsPerHour="23.1540504722509" departLane="free" arrivalSpeed="0.0"/>
  <flow id="JF13448" begin="1440" fromJunction="J6" toJunction="J5" end="1800" vehsPerHour="48.13130324047806" departLane="free" arrivalSpeed="0.0"/>
  <flow id="JF13449" begin="1440" fromJunction="J6" toJunction="J7" end="1800" vehsPerHour="23.51040105702927" departLane="free" arrivalSpeed="0.0"/>
  <flow id="JF13450" begin="1440" fromJunction="J7" toJunction="J3" end="1800" vehsPerHour="64.62326784157244" departLane="free" arrivalSpeed="0.0"/>
  <flow id="JF13451" begin="1440" fromJunction="J7" toJunction="J4" end="1800" vehsPerHour="57.20304492823857" departLane="free" arrivalSpeed="0.0"/>
  <flow id="JF13452" begin="1440" fromJunction="J7" toJunction="J6" end="1800" vehsPerHour="60.86988600834251" departLane="free" arrivalSpeed="0.0"/>
  <flow id="JF13453" begin="1800" fromJunction="J0" toJunction="J3" end="2160" vehsPerHour="11.396755431238732" departLane="free" arrivalSpeed="0.0"/>
  <flow id="JF13454" begin="1800" fromJunction="J0" toJunction="J5" end="2160" vehsPerHour="99.80574094589971" departLane="free" arrivalSpeed="0.0"/>
  <flow id="JF13455" begin="1800" fromJunction="J0" toJunction="J6" end="2160" vehsPerHour="57.69351715725797" departLane="free" arrivalSpeed="0.0"/>
  <flow id="JF13456" begin="1800" fromJunction="J0" toJunction="J7" end="2160" vehsPerHour="91.70644112370955" departLane="free" arrivalSpeed="0.0"/>
  <flow id="JF13457" begin="1800" fromJunction="J3" toJunction="J4" end="2160" vehsPerHour="24.159523515273946" departLane="free" arrivalSpeed="0.0"/>
  <flow id="JF13458" begin="1800" fromJunction="J3" toJunction="J5" end="2160" vehsPerHour="105.01351116947538" departLane="free" arrivalSpeed="0.0"/>
  <flow id="JF13459" begin="1800" fromJunction="J4" toJunction="J3" end="2160" vehsPerHour="18.303326306944676" departLane="free" arrivalSpeed="0.0"/>
  <flow id="JF13460" begin="1800" fromJunction="J4" toJunction="J5" end="2160" vehsPerHour="52.30658565107739" departLane="free" arrivalSpeed="0.0"/>
  <flow id="JF13461" begin="1800" fromJunction="J5" toJunction="J0" end="2160" vehsPerHour="44.19951806665002" departLane="free" arrivalSpeed="0.0"/>
  <flow id="JF13462" begin="1800" fromJunction="J5" toJunction="J3" end="2160" vehsPerHour="40.01743995535038" departLane="free" arrivalSpeed="0.0"/>
  <flow id="JF13463" begin="1800" fromJunction="J5" toJunction="J6" end="2160" vehsPerHour="58.34128229346522" departLane="free" arrivalSpeed="0.0"/>
  <flow id="JF13464" begin="1800" fromJunction="J5" toJunction="J7" end="2160" vehsPerHour="12.197888990395978" departLane="free" arrivalSpeed="0.0"/>
  <flow id="JF13465" begin="1800" fromJunction="J6" toJunction="J3" end="2160" vehsPerHour="9.811811928770064" departLane="free" arrivalSpeed="0.0"/>
  <flow id="JF13466" begin="1800" fromJunction="J6" toJunction="J5" end="2160" vehsPerHour="25.165101854083904" departLane="free" arrivalSpeed="0.0"/>
  <flow id="JF13467" begin="1800" fromJunction="J7" toJunction="J0" end="2160" vehsPerHour="54.45718976798336" departLane="free" arrivalSpeed="0.0"/>
  <flow id="JF13468" begin="1800" fromJunction="J7" toJunction="J3" end="2160" vehsPerHour="13.66738998876264" departLane="free" arrivalSpeed="0.0"/>
  <flow id="JF13469" begin="1800" fromJunction="J7" toJunction="J6" end="2160" vehsPerHour="43.11176606980189" departLane="free" arrivalSpeed="0.0"/>
  <flow id="JF13470" begin="2160" fromJunction="J0" toJunction="J3" end="2520" vehsPerHour="38.67946070648351" departLane="free" arrivalSpeed="0.0"/>
  <flow id="JF13471" begin="2160" fromJunction="J0" toJunction="J4" end="2520" vehsPerHour="57.04642265406457" departLane="free" arrivalSpeed="0.0"/>
  <flow id="JF13472" begin="2160" fromJunction="J0" toJunction="J5" end="2520" vehsPerHour="101.55728079651144" departLane="free" arrivalSpeed="0.0"/>
  <flow id="JF13473" begin="2160" fromJunction="J0" toJunction="J6" end="2520" vehsPerHour="100.46088590698193" departLane="free" arrivalSpeed="0.0"/>
  <flow id="JF13474" begin="2160" fromJunction="J3" toJunction="J0" end="2520" vehsPerHour="52.0038322379518" departLane="free" arrivalSpeed="0.0"/>
  <flow id="JF13475" begin="2160" fromJunction="J3" toJunction="J4" end="2520" vehsPerHour="123.5910638100041" departLane="free" arrivalSpeed="0.0"/>
  <flow id="JF13476" begin="2160" fromJunction="J3" toJunction="J6" end="2520" vehsPerHour="18.516430795662306" departLane="free" arrivalSpeed="0.0"/>
  <flow id="JF13477" begin="2160" fromJunction="J3" toJunction="J7" end="2520" vehsPerHour="35.36689806980718" departLane="free" arrivalSpeed="0.0"/>
  <flow id="JF13478" begin="2160" fromJunction="J4" toJunction="J0" end="2520" vehsPerHour="6.337706106401594" departLane="free" arrivalSpeed="0.0"/>
  <flow id="JF13479" begin="2160" fromJunction="J4" toJunction="J3" end="2520" vehsPerHour="46.97087226526555" departLane="free" arrivalSpeed="0.0"/>
  <flow id="JF13480" begin="2160" fromJunction="J4" toJunction="J5" end="2520" vehsPerHour="42.68671285097456" departLane="free" arrivalSpeed="0.0"/>
  <flow id="JF13481" begin="2160" fromJunction="J4" toJunction="J6" end="2520" vehsPerHour="17.854250538095137" departLane="free" arrivalSpeed="0.0"/>
  <flow id="JF13482" begin="2160" fromJunction="J5" toJunction="J3" end="2520" vehsPerHour="25.720595823803123" departLane="free" arrivalSpeed="0.0"/>
  <flow id="JF13483" begin="2160" fromJunction="J5" toJunction="J4" end="2520" vehsPerHour="48.017246561696645" departLane="free" arrivalSpeed="0.0"/>
  <flow id="JF13484" begin="2160" fromJunction="J5" toJunction="J6" end="2520" vehsPerHour="22.773489504397894" departLane="free" arrivalSpeed="0.0"/>
  <flow id="JF13485" begin="2160" fromJunction="J5" toJunction="J7" end="2520" vehsPerHour="11.284117429775604" departLane="free" arrivalSpeed="0.0"/>
  <flow id="JF13486" begin="2160" fromJunction="J6" toJunction="J0" end="2520" vehsPerHour="55.63601105670239" departLane="free" arrivalSpeed="0.0"/>
  <flow id="JF13487" begin="2160" fromJunction="J6" toJunction="J3" end="2520" vehsPerHour="48.059901600366224" departLane="free" arrivalSpeed="0.0"/>
  <flow id="JF13488" begin="2160" fromJunction="J7" toJunction="J0" end="2520" vehsPerHour="3.257926705846669" departLane="free" arrivalSpeed="0.0"/>
  <flow id="JF13489" begin="2160" fromJunction="J7" toJunction="J3" end="2520" vehsPerHour="28.2085831303699" departLane="free" arrivalSpeed="0.0"/>
  <flow id="JF13490" begin="2160" fromJunction="J7" toJunction="J5" end="2520" vehsPerHour="39.25086222327003" departLane="free" arrivalSpeed="0.0"/>
  <flow id="JF13491" begin="2520" fromJunction="J0" toJunction="J4" end="2880" vehsPerHour="133.16694763523353" departLane="free" arrivalSpeed="0.0"/>
  <flow id="JF13492" begin="2520" fromJunction="J0" toJunction="J5" end="2880" vehsPerHour="6.7677571380357415" departLane="free" arrivalSpeed="0.0"/>
  <flow id="JF13493" begin="2520" fromJunction="J0" toJunction="J7" end="2880" vehsPerHour="103.8717304298387" departLane="free" arrivalSpeed="0.0"/>
  <flow id="JF13494" begin="2520" fromJunction="J3" toJunction="J0" end="2880" vehsPerHour="133.91383747773784" departLane="free" arrivalSpeed="0.0"/>
  <flow id="JF13495" begin="2520" fromJunction="J3" toJunction="J4" end="2880" vehsPerHour="1.8393956131403215" departLane="free" arrivalSpeed="0.0"/>
  <flow id="JF13496" begin="2520" fromJunction="J3" toJunction="J5" end="2880" vehsPerHour="35.982431541956295" departLane="free" arrivalSpeed="0.0"/>
  <flow id="JF13497" begin="2520" fromJunction="J3" toJunction="J7" end="2880" vehsPerHour="131.59977183732127" departLane="free" arrivalSpeed="0.0"/>
  <flow id="JF13498" begin="2520" fromJunction="J4" toJunction="J3" end="2880" vehsPerHour="29.817997470542114" departLane="free" arrivalSpeed="0.0"/>
  <flow id="JF13499" begin="2520" fromJunction="J4" toJunction="J6" end="2880" vehsPerHour="26.143476166984765" departLane="free" arrivalSpeed="0.0"/>
  <flow id="JF13500" begin="2520" fromJunction="J4" toJunction="J7" end="2880" vehsPerHour="30.780865271468336" departLane="free" arrivalSpeed="0.0"/>
  <flow id="JF13501" begin="2520" fromJunction="J5" toJunction="J0" end="2880" vehsPerHour="54.5769265014185" departLane="free" arrivalSpeed="0.0"/>
  <flow id="JF13502" begin="2520" fromJunction="J5" toJunction="J3" end="2880" vehsPerHour="26.670016662809136" departLane="free" arrivalSpeed="0.0"/>
  <flow id="JF13503" begin="2520" fromJunction="J5" toJunction="J4" end="2880" vehsPerHour="35.04492070933575" departLane="free" arrivalSpeed="0.0"/>
  <flow id="JF13504" begin="2520" fromJunction="J5" toJunction="J6" end="2880" vehsPerHour="49.21663793285226" departLane="free" arrivalSpeed="0.0"/>
  <flow id="JF13505" begin="2520" fromJunction="J5" toJunction="J7" end="2880" vehsPerHour="22.148231010110713" departLane="free" arrivalSpeed="0.0"/>
  <flow id="JF13506" begin="2520" fromJunction="J6" toJunction="J0" end="2880" vehsPerHour="15.411211911261516" departLane="free" arrivalSpeed="0.0"/>
  <flow id="JF13507" begin="2520" fromJunction="J6" toJunction="J3" end="2880" vehsPerHour="22.63839397013031" departLane="free" arrivalSpeed="0.0"/>
  <flow id="JF13508" begin="2520" fromJunction="J6" toJunction="J7" end="2880" vehsPerHour="54.05854098189197" departLane="free" arrivalSpeed="0.0"/>
  <flow id="JF13509" begin="2520" fromJunction="J7" toJunction="J3" end="2880" vehsPerHour="52.70748246245015" departLane="free" arrivalSpeed="0.0"/>
  <flow id="JF13510" begin="2520" fromJunction="J7" toJunction="J4" end="2880" vehsPerHour="34.78995558710211" departLane="free" arrivalSpeed="0.0"/>
  <flow id="JF13511" begin="2880" fromJunction="J0" toJunction="J3" end="3240" vehsPerHour="73.47546927871787" departLane="free" arrivalSpeed="0.0"/>
  <flow id="JF13512" begin="2880" fromJunction="J0" toJunction="J5" end="3240" vehsPerHour="105.2260169206768" departLane="free" arrivalSpeed="0.0"/>
  <flow id="JF13513" begin="2880" fromJunction="J3" toJunction="J4" end="3240" vehsPerHour="34.430700912509344" departLane="free" arrivalSpeed="0.0"/>
  <flow id="JF13514" begin="2880" fromJunction="J3" toJunction="J5" end="3240" vehsPerHour="15.698081904794684" departLane="free" arrivalSpeed="0.0"/>
  <flow id="JF13515" begin="2880" fromJunction="J3" toJunction="J6" end="3240" vehsPerHour="30.29153392316652" departLane="free" arrivalSpeed="0.0"/>
  <flow id="JF13516" begin="2880" fromJunction="J3" toJunction="J7" end="3240" vehsPerHour="96.67263051348823" departLane="free" arrivalSpeed="0.0"/>
  <flow id="JF13517" begin="2880" fromJunction="J4" toJunction="J0" end="3240" vehsPerHour="35.50750632764511" departLane="free" arrivalSpeed="0.0"/>
  <flow id="JF13518" begin="2880" fromJunction="J4" toJunction="J3" end="3240" vehsPerHour="12.76211177679334" departLane="free" arrivalSpeed="0.0"/>
  <flow id="JF13519" begin="2880" fromJunction="J4" toJunction="J5" end="3240" vehsPerHour="53.456363484478956" departLane="free" arrivalSpeed="0.0"/>
  <flow id="JF13520" begin="2880" fromJunction="J4" toJunction="J6" end="3240" vehsPerHour="40.16219170724641" departLane="free" arrivalSpeed="0.0"/>
  <flow id="JF13521" begin="2880" fromJunction="J4" toJunction="J7" end="3240" vehsPerHour="35.32645608236831" departLane="free" arrivalSpeed="0.0"/>
  <flow id="JF13522" begin="2880" fromJunction="J5" toJunction="J0" end="3240" vehsPerHour="40.334276430775255" departLane="free" arrivalSpeed="0.0"/>
  <flow id="JF13523" begin="2880" fromJunction="J5" toJunction="J4" end="3240" vehsPerHour="30.556358498546096" departLane="free" arrivalSpeed="0.0"/>
  <flow id="JF13524" begin="2880" fromJunction="J6" toJunction="J0" end="3240" vehsPerHour="3.939859923422566" departLane="free" arrivalSpeed="0.0"/>
  <flow id="JF13525" begin="2880" fromJunction="J6" toJunction="J4" end="3240" vehsPerHour="60.84374663639606" departLane="free" arrivalSpeed="0.0"/>
  <flow id="JF13526" begin="2880" fromJunction="J6" toJunction="J5" end="3240" vehsPerHour="31.424860153167117" departLane="free" arrivalSpeed="0.0"/>
  <flow id="JF13527" begin="2880" fromJunction="J7" toJunction="J0" end="3240" vehsPerHour="47.025702678287885" departLane="free" arrivalSpeed="0.0"/>
  <flow id="JF13528" begin="2880" fromJunction="J7" toJunction="J4" end="3240" vehsPerHour="55.01382769588249" departLane="free" arrivalSpeed="0.0"/>
  <flow id="JF13529" begin="2880" fromJunction="J7" toJunction="J5" end="3240" vehsPerHour="60.408424095672395" departLane="free" arrivalSpeed="0.0"/>
  <flow id="JF13530" begin="2880" fromJunction="J7" toJunction="J6" end="3240" vehsPerHour="28.115499306972673" departLane="free" arrivalSpeed="0.0"/>
  <flow id="JF13531" begin="3240" fromJunction="J0" toJunction="J3" end="3600" vehsPerHour="74.0956049653482" departLane="free" arrivalSpeed="0.0"/>
  <flow id="JF13532" begin="3240" fromJunction="J0" toJunction="J4" end="3600" vehsPerHour="74.26554839883714" departLane="free" arrivalSpeed="0.0"/>
  <flow id="JF13533" begin="3240" fromJunction="J0" toJunction="J5" end="3600" vehsPerHour="37.93042025709774" departLane="free" arrivalSpeed="0.0"/>
  <flow id="JF13534" begin="3240" fromJunction="J0" toJunction="J6" end="3600" vehsPerHour="48.8229942373906" departLane="free" arrivalSpeed="0.0"/>
  <flow id="JF13535" begin="3240" fromJunction="J0" toJunction="J7" end="3600" vehsPerHour="13.989461418513683" departLane="free" arrivalSpeed="0.0"/>
  <flow id="JF13536" begin="3240" fromJunction="J3" toJunction="J0" end="3600" vehsPerHour="59.330675104084236" departLane="free" arrivalSpeed="0.0"/>
  <flow id="JF13537" begin="3240" fromJunction="J3" toJunction="J4" end="3600" vehsPerHour="109.15507795407555" departLane="free" arrivalSpeed="0.0"/>
  <flow id="JF13538" begin="3240" fromJunction="J3" toJunction="J5" end="3600" vehsPerHour="102.46379419928722" departLane="free" arrivalSpeed="0.0"/>
  <flow id="JF13539" begin="3240" fromJunction="J3" toJunction="J6" end="3600" vehsPerHour="47.15590896473026" departLane="free" arrivalSpeed="0.0"/>
  <flow id="JF13540" begin="3240" fromJunction="J3" toJunction="J7" end="3600" vehsPerHour="12.975240227003217" departLane="free" arrivalSpeed="0.0"/>
  <flow id="JF13541" begin="3240" fromJunction="J4" toJunction="J3" end="3600" vehsPerHour="5.855258041429104" departLane="free" arrivalSpeed="0.0"/>
  <flow id="JF13542" begin="3240" fromJunction="J4" toJunction="J6" end="3600" vehsPerHour="28.153069368610844" departLane="free" arrivalSpeed="0.0"/>
  <flow id="JF13543" begin="3240" fromJunction="J4" toJunction="J7" end="3600" vehsPerHour="41.98510479179309" departLane="free" arrivalSpeed="0.0"/>
  <flow id="JF13544" begin="3240" fromJunction="J5" toJunction="J3" end="3600" vehsPerHour="33.48549893184993" departLane="free" arrivalSpeed="0.0"/>
  <flow id="JF13545" begin="3240" fromJunction="J5" toJunction="J4" end="3600" vehsPerHour="38.35518971470529" departLane="free" arrivalSpeed="0.0"/>
  <flow id="JF13546" begin="3240" fromJunction="J5" toJunction="J7" end="3600" vehsPerHour="10.836922545424073" departLane="free" arrivalSpeed="0.0"/>
  <flow id="JF13547" begin="3240" fromJunction="J7" toJunction="J0" end="3600" vehsPerHour="6.5992999232299665" departLane="free" arrivalSpeed="0.0"/>
  <flow id="JF13548" begin="3240" fromJunction="J7" toJunction="J3" end="3600" vehsPerHour="28.353288252752925" departLane="free" arrivalSpeed="0.0"/>
  <flow id="JF13549" begin="3240" fromJunction="J7" toJunction="J5" end="3600" vehsPerHour="45.93360272392628" departLane="free" arrivalSpeed="0.0"/>
  <flow id="JF13550" begin="3240" fromJunction="J7" toJunction="J6" end="3600" vehsPerHour="66.78739979424813" departLane="free" arrivalSpeed="0.0"/>