<?xml version="1.0" encoding="UTF-8"?>
<routes xmlns:xsi="http://www.w3.org/2001/XMLSchema-instance" xsi:noNamespaceSchemaLocation="http://sumo.dlr.de/xsd/routes_file.xsd">
  <flow id="JF155580" begin="0" fromJunction="J0" toJunction="J3" end="5000" vehsPerHour="1209.8456190212003"/>
  <flow id="JF155581" begin="0" fromJunction="J3" toJunction="J0" end="5000" vehsPerHour="1314.5054900341333"/>
  <flow id="JF155582" begin="0" fromJunction="J0" toJunction="J6" end="5000" vehsPerHour="89.62626242477116"/>
  <flow id="JF155583" begin="0" fromJunction="J0" toJunction="J4" end="5000" vehsPerHour="8.052072947017177"/>
  <flow id="JF155584" begin="0" fromJunction="J0" toJunction="J7" end="5000" vehsPerHour="31.888843374117457"/>
  <flow id="JF155585" begin="0" fromJunction="J0" toJunction="J5" end="5000" vehsPerHour="79.04761784243703"/>
  <flow id="JF155586" begin="0" fromJunction="J3" toJunction="J6" end="5000" vehsPerHour="74.77231212770482"/>
  <flow id="JF155587" begin="0" fromJunction="J3" toJunction="J4" end="5000" vehsPerHour="85.92244487533213"/>
  <flow id="JF155588" begin="0" fromJunction="J3" toJunction="J7" end="5000" vehsPerHour="33.262835297423486"/>
  <flow id="JF155589" begin="0" fromJunction="J3" toJunction="J5" end="5000" vehsPerHour="26.698315143544583"/>
  <flow id="JF155590" begin="0" fromJunction="J6" toJunction="J4" end="5000" vehsPerHour="50.96221852700622"/>
  <flow id="JF155591" begin="0" fromJunction="J6" toJunction="J7" end="5000" vehsPerHour="150.05181795481224"/>
  <flow id="JF155592" begin="0" fromJunction="J6" toJunction="J5" end="5000" vehsPerHour="33.600109287370415"/>
  <flow id="JF155593" begin="0" fromJunction="J4" toJunction="J6" end="5000" vehsPerHour="186.16665353335958"/>
  <flow id="JF155594" begin="0" fromJunction="J4" toJunction="J7" end="5000" vehsPerHour="31.542446352485772"/>
  <flow id="JF155595" begin="0" fromJunction="J4" toJunction="J5" end="5000" vehsPerHour="164.3044013014838"/>
  <flow id="JF155596" begin="0" fromJunction="J7" toJunction="J6" end="5000" vehsPerHour="36.0780071639913"/>
  <flow id="JF155597" begin="0" fromJunction="J7" toJunction="J4" end="5000" vehsPerHour="169.541057175803"/>
  <flow id="JF155598" begin="0" fromJunction="J7" toJunction="J5" end="5000" vehsPerHour="211.1582432979267"/>
  <flow id="JF155599" begin="0" fromJunction="J5" toJunction="J6" end="5000" vehsPerHour="190.59497166716693"/>
  <flow id="JF155600" begin="0" fromJunction="J5" toJunction="J4" end="5000" vehsPerHour="110.58208445320702"/>
  <flow id="JF155601" begin="0" fromJunction="J5" toJunction="J7" end="5000" vehsPerHour="65.61181849884316"/>
  <flow id="JF155602" begin="0" fromJunction="J6" toJunction="J0" end="5000" vehsPerHour="61.75306329418123"/>
  <flow id="JF155603" begin="0" fromJunction="J6" toJunction="J3" end="5000" vehsPerHour="15.038156119925338"/>
  <flow id="JF155604" begin="0" fromJunction="J4" toJunction="J0" end="5000" vehsPerHour="26.59083324363954"/>
  <flow id="JF155605" begin="0" fromJunction="J4" toJunction="J3" end="5000" vehsPerHour="16.31818893752933"/>
  <flow id="JF155606" begin="0" fromJunction="J7" toJunction="J0" end="5000" vehsPerHour="6.060300986049065"/>
  <flow id="JF155607" begin="0" fromJunction="J7" toJunction="J3" end="5000" vehsPerHour="52.879495911687094"/>
  <flow id="JF155608" begin="0" fromJunction="J5" toJunction="J0" end="5000" vehsPerHour="63.20964688659287"/>
  <flow id="JF155609" begin="0" fromJunction="J5" toJunction="J3" end="5000" vehsPerHour="13.659003286668456"/>
  <flow id="JF155610" begin="5000" fromJunction="J0" toJunction="J3" end="5060" vehsPerHour="175.3265459825914"/>
  <flow id="JF155611" begin="5000" fromJunction="J3" toJunction="J0" end="5060" vehsPerHour="516.0862759453223"/>
  <flow id="JF155612" begin="5000" fromJunction="J0" toJunction="J6" end="5060" vehsPerHour="94.78218026390552"/>
  <flow id="JF155613" begin="5000" fromJunction="J0" toJunction="J4" end="5060" vehsPerHour="116.79022648637937"/>
  <flow id="JF155614" begin="5000" fromJunction="J0" toJunction="J7" end="5060" vehsPerHour="118.83772642967548"/>
  <flow id="JF155615" begin="5000" fromJunction="J0" toJunction="J5" end="5060" vehsPerHour="85.51972688605696"/>
  <flow id="JF155616" begin="5000" fromJunction="J3" toJunction="J6" end="5060" vehsPerHour="115.08188010660601"/>
  <flow id="JF155617" begin="5000" fromJunction="J3" toJunction="J4" end="5060" vehsPerHour="33.45738395954659"/>
  <flow id="JF155618" begin="5000" fromJunction="J3" toJunction="J7" end="5060" vehsPerHour="92.9570139892984"/>
  <flow id="JF155619" begin="5000" fromJunction="J3" toJunction="J5" end="5060" vehsPerHour="122.74782360293706"/>
  <flow id="JF155620" begin="5060" fromJunction="J0" toJunction="J3" end="5120" vehsPerHour="55.16604879083173"/>
  <flow id="JF155621" begin="5060" fromJunction="J3" toJunction="J0" end="5120" vehsPerHour="450.5977906849107"/>
  <flow id="JF155622" begin="5060" fromJunction="J0" toJunction="J6" end="5120" vehsPerHour="62.43441350773511"/>
  <flow id="JF155623" begin="5060" fromJunction="J0" toJunction="J4" end="5120" vehsPerHour="7.978306949901228"/>
  <flow id="JF155624" begin="5060" fromJunction="J0" toJunction="J7" end="5120" vehsPerHour="41.68861707343658"/>
  <flow id="JF155625" begin="5060" fromJunction="J0" toJunction="J5" end="5120" vehsPerHour="16.894252507473425"/>
  <flow id="JF155626" begin="5060" fromJunction="J3" toJunction="J6" end="5120" vehsPerHour="4.6313564317657185"/>
  <flow id="JF155627" begin="5060" fromJunction="J3" toJunction="J4" end="5120" vehsPerHour="1.2222747061081538"/>
  <flow id="JF155628" begin="5060" fromJunction="J3" toJunction="J7" end="5120" vehsPerHour="3.8645484816494693"/>
  <flow id="JF155629" begin="5060" fromJunction="J3" toJunction="J5" end="5120" vehsPerHour="15.180233343733871"/>
  <flow id="JF155630" begin="5060" fromJunction="J6" toJunction="J4" end="5120" vehsPerHour="48.93413463441367"/>
  <flow id="JF155631" begin="5060" fromJunction="J6" toJunction="J7" end="5120" vehsPerHour="27.565682943139777"/>
  <flow id="JF155632" begin="5060" fromJunction="J6" toJunction="J5" end="5120" vehsPerHour="34.08918742069819"/>
  <flow id="JF155633" begin="5060" fromJunction="J4" toJunction="J6" end="5120" vehsPerHour="23.555504114100387"/>
  <flow id="JF155634" begin="5060" fromJunction="J4" toJunction="J7" end="5120" vehsPerHour="33.55733858246934"/>
  <flow id="JF155635" begin="5060" fromJunction="J4" toJunction="J5" end="5120" vehsPerHour="12.139340175557741"/>
  <flow id="JF155636" begin="5060" fromJunction="J7" toJunction="J6" end="5120" vehsPerHour="16.34219209975637"/>
  <flow id="JF155637" begin="5060" fromJunction="J7" toJunction="J4" end="5120" vehsPerHour="66.89471338231273"/>
  <flow id="JF155638" begin="5060" fromJunction="J7" toJunction="J5" end="5120" vehsPerHour="36.52229286018997"/>
  <flow id="JF155639" begin="5060" fromJunction="J5" toJunction="J6" end="5120" vehsPerHour="42.91922964052411"/>
  <flow id="JF155640" begin="5060" fromJunction="J5" toJunction="J4" end="5120" vehsPerHour="45.004621338473605"/>
  <flow id="JF155641" begin="5060" fromJunction="J5" toJunction="J7" end="5120" vehsPerHour="12.376366276895494"/>
  <flow id="JF155642" begin="5060" fromJunction="J6" toJunction="J0" end="5120" vehsPerHour="60.13887499585872"/>
  <flow id="JF155643" begin="5060" fromJunction="J6" toJunction="J3" end="5120" vehsPerHour="11.700806859812786"/>
  <flow id="JF155644" begin="5060" fromJunction="J4" toJunction="J0" end="5120" vehsPerHour="24.682198827869247"/>
  <flow id="JF155645" begin="5060" fromJunction="J4" toJunction="J3" end="5120" vehsPerHour="9.007367199460711"/>
  <flow id="JF155646" begin="5060" fromJunction="J7" toJunction="J0" end="5120" vehsPerHour="47.55680555029103"/>
  <flow id="JF155647" begin="5060" fromJunction="J7" toJunction="J3" end="5120" vehsPerHour="53.50145902946913"/>
  <flow id="JF155648" begin="5060" fromJunction="J5" toJunction="J0" end="5120" vehsPerHour="68.12517209256053"/>
  <flow id="JF155649" begin="5060" fromJunction="J5" toJunction="J3" end="5120" vehsPerHour="49.874986508072595"/>
  <flow id="JF155650" begin="5120" fromJunction="J0" toJunction="J3" end="5180" vehsPerHour="519.0897009237085"/>
  <flow id="JF155651" begin="5120" fromJunction="J3" toJunction="J0" end="5180" vehsPerHour="232.64255288811677"/>
  <flow id="JF155652" begin="5120" fromJunction="J0" toJunction="J6" end="5180" vehsPerHour="88.1236601370093"/>
  <flow id="JF155653" begin="5120" fromJunction="J0" toJunction="J4" end="5180" vehsPerHour="77.19861754322727"/>
  <flow id="JF155654" begin="5120" fromJunction="J0" toJunction="J7" end="5180" vehsPerHour="135.5273332437575"/>
  <flow id="JF155655" begin="5120" fromJunction="J0" toJunction="J5" end="5180" vehsPerHour="23.097495981138117"/>
  <flow id="JF155656" begin="5120" fromJunction="J3" toJunction="J6" end="5180" vehsPerHour="104.6187933353541"/>
  <flow id="JF155657" begin="5120" fromJunction="J3" toJunction="J4" end="5180" vehsPerHour="31.333742218189666"/>
  <flow id="JF155658" begin="5120" fromJunction="J3" toJunction="J7" end="5180" vehsPerHour="89.70113405705831"/>
  <flow id="JF155659" begin="5120" fromJunction="J3" toJunction="J5" end="5180" vehsPerHour="10.863273844900384"/>
  <flow id="JF155660" begin="5120" fromJunction="J6" toJunction="J4" end="5180" vehsPerHour="31.98629681096493"/>
  <flow id="JF155661" begin="5120" fromJunction="J6" toJunction="J7" end="5180" vehsPerHour="68.60346096200058"/>
  <flow id="JF155662" begin="5120" fromJunction="J6" toJunction="J5" end="5180" vehsPerHour="59.52786409754716"/>
  <flow id="JF155663" begin="5120" fromJunction="J4" toJunction="J6" end="5180" vehsPerHour="27.135018899270325"/>
  <flow id="JF155664" begin="5120" fromJunction="J4" toJunction="J7" end="5180" vehsPerHour="46.88483131418678"/>
  <flow id="JF155665" begin="5120" fromJunction="J4" toJunction="J5" end="5180" vehsPerHour="7.583556978333291"/>
  <flow id="JF155666" begin="5120" fromJunction="J7" toJunction="J6" end="5180" vehsPerHour="67.3637752517957"/>
  <flow id="JF155667" begin="5120" fromJunction="J7" toJunction="J4" end="5180" vehsPerHour="16.407024012751382"/>
  <flow id="JF155668" begin="5120" fromJunction="J7" toJunction="J5" end="5180" vehsPerHour="49.19658749885917"/>
  <flow id="JF155669" begin="5120" fromJunction="J5" toJunction="J6" end="5180" vehsPerHour="13.050632177016285"/>
  <flow id="JF155670" begin="5120" fromJunction="J5" toJunction="J4" end="5180" vehsPerHour="50.17166288670152"/>
  <flow id="JF155671" begin="5120" fromJunction="J5" toJunction="J7" end="5180" vehsPerHour="45.71953134777048"/>
  <flow id="JF155672" begin="5120" fromJunction="J6" toJunction="J0" end="5180" vehsPerHour="34.35869963635873"/>
  <flow id="JF155673" begin="5120" fromJunction="J6" toJunction="J3" end="5180" vehsPerHour="26.420733265266993"/>
  <flow id="JF155674" begin="5120" fromJunction="J4" toJunction="J0" end="5180" vehsPerHour="12.817065791585517"/>
  <flow id="JF155675" begin="5120" fromJunction="J4" toJunction="J3" end="5180" vehsPerHour="8.004788128877166"/>
  <flow id="JF155676" begin="5120" fromJunction="J7" toJunction="J0" end="5180" vehsPerHour="44.644249335754814"/>
  <flow id="JF155677" begin="5120" fromJunction="J7" toJunction="J3" end="5180" vehsPerHour="1.885020280257762"/>
  <flow id="JF155678" begin="5120" fromJunction="J5" toJunction="J0" end="5180" vehsPerHour="57.427136972943615"/>
  <flow id="JF155679" begin="5120" fromJunction="J5" toJunction="J3" end="5180" vehsPerHour="41.22214835870367"/>
  <flow id="JF155680" begin="5180" fromJunction="J0" toJunction="J3" end="5240" vehsPerHour="442.21832722194773"/>
  <flow id="JF155681" begin="5180" fromJunction="J3" toJunction="J0" end="5240" vehsPerHour="443.3231675927762"/>
  <flow id="JF155682" begin="5180" fromJunction="J0" toJunction="J6" end="5240" vehsPerHour="10.032539060422108"/>
  <flow id="JF155683" begin="5180" fromJunction="J0" toJunction="J4" end="5240" vehsPerHour="12.831080112332568"/>
  <flow id="JF155684" begin="5180" fromJunction="J0" toJunction="J7" end="5240" vehsPerHour="133.459009056568"/>
  <flow id="JF155685" begin="5180" fromJunction="J0" toJunction="J5" end="5240" vehsPerHour="3.5543409307213487"/>
  <flow id="JF155686" begin="5180" fromJunction="J3" toJunction="J6" end="5240" vehsPerHour="82.91599990095479"/>
  <flow id="JF155687" begin="5180" fromJunction="J3" toJunction="J4" end="5240" vehsPerHour="111.55023150332643"/>
  <flow id="JF155688" begin="5180" fromJunction="J3" toJunction="J7" end="5240" vehsPerHour="117.71347482555558"/>
  <flow id="JF155689" begin="5180" fromJunction="J3" toJunction="J5" end="5240" vehsPerHour="60.01578739926105"/>
  <flow id="JF155690" begin="5240" fromJunction="J0" toJunction="J3" end="5300" vehsPerHour="236.67206392137626"/>
  <flow id="JF155691" begin="5240" fromJunction="J3" toJunction="J0" end="5300" vehsPerHour="140.37951259106057"/>
  <flow id="JF155692" begin="5240" fromJunction="J0" toJunction="J6" end="5300" vehsPerHour="57.873868225335364"/>
  <flow id="JF155693" begin="5240" fromJunction="J0" toJunction="J4" end="5300" vehsPerHour="55.035235961543684"/>
  <flow id="JF155694" begin="5240" fromJunction="J0" toJunction="J7" end="5300" vehsPerHour="32.69169747033881"/>
  <flow id="JF155695" begin="5240" fromJunction="J0" toJunction="J5" end="5300" vehsPerHour="37.314939093010985"/>
  <flow id="JF155696" begin="5240" fromJunction="J3" toJunction="J6" end="5300" vehsPerHour="119.79129353105988"/>
  <flow id="JF155697" begin="5240" fromJunction="J3" toJunction="J4" end="5300" vehsPerHour="20.323281664581213"/>
  <flow id="JF155698" begin="5240" fromJunction="J3" toJunction="J7" end="5300" vehsPerHour="66.34160659130504"/>
  <flow id="JF155699" begin="5240" fromJunction="J3" toJunction="J5" end="5300" vehsPerHour="10.851075378199463"/>
  <flow id="JF155700" begin="5300" fromJunction="J0" toJunction="J3" end="5360" vehsPerHour="379.703170863338"/>
  <flow id="JF155701" begin="5300" fromJunction="J3" toJunction="J0" end="5360" vehsPerHour="62.65409593544002"/>
  <flow id="JF155702" begin="5300" fromJunction="J0" toJunction="J6" end="5360" vehsPerHour="39.61758226458287"/>
  <flow id="JF155703" begin="5300" fromJunction="J0" toJunction="J4" end="5360" vehsPerHour="49.11874732059786"/>
  <flow id="JF155704" begin="5300" fromJunction="J0" toJunction="J7" end="5360" vehsPerHour="20.320426391441714"/>
  <flow id="JF155705" begin="5300" fromJunction="J0" toJunction="J5" end="5360" vehsPerHour="97.88838738988099"/>
  <flow id="JF155706" begin="5300" fromJunction="J3" toJunction="J6" end="5360" vehsPerHour="118.22872063201771"/>
  <flow id="JF155707" begin="5300" fromJunction="J3" toJunction="J4" end="5360" vehsPerHour="10.366119948872186"/>
  <flow id="JF155708" begin="5300" fromJunction="J3" toJunction="J7" end="5360" vehsPerHour="17.791129744762333"/>
  <flow id="JF155709" begin="5300" fromJunction="J3" toJunction="J5" end="5360" vehsPerHour="126.5416373507568"/>
  <flow id="JF155710" begin="5360" fromJunction="J0" toJunction="J3" end="5420" vehsPerHour="82.00812768091586"/>
  <flow id="JF155711" begin="5360" fromJunction="J3" toJunction="J0" end="5420" vehsPerHour="366.35124622460796"/>
  <flow id="JF155712" begin="5360" fromJunction="J0" toJunction="J6" end="5420" vehsPerHour="45.851644460696555"/>
  <flow id="JF155713" begin="5360" fromJunction="J0" toJunction="J4" end="5420" vehsPerHour="4.633784690475872"/>
  <flow id="JF155714" begin="5360" fromJunction="J0" toJunction="J7" end="5420" vehsPerHour="47.77514389886555"/>
  <flow id="JF155715" begin="5360" fromJunction="J0" toJunction="J5" end="5420" vehsPerHour="37.05884313947474"/>
  <flow id="JF155716" begin="5360" fromJunction="J3" toJunction="J6" end="5420" vehsPerHour="85.79117498315235"/>
  <flow id="JF155717" begin="5360" fromJunction="J3" toJunction="J4" end="5420" vehsPerHour="103.9324091583793"/>
  <flow id="JF155718" begin="5360" fromJunction="J3" toJunction="J7" end="5420" vehsPerHour="120.35975221000254"/>
  <flow id="JF155719" begin="5360" fromJunction="J3" toJunction="J5" end="5420" vehsPerHour="123.1255836423579"/>
  <flow id="JF155720" begin="5420" fromJunction="J0" toJunction="J3" end="5480" vehsPerHour="347.4794703873493"/>
  <flow id="JF155721" begin="5420" fromJunction="J3" toJunction="J0" end="5480" vehsPerHour="82.465921967015"/>
  <flow id="JF155722" begin="5420" fromJunction="J0" toJunction="J6" end="5480" vehsPerHour="118.57726460002259"/>
  <flow id="JF155723" begin="5420" fromJunction="J0" toJunction="J4" end="5480" vehsPerHour="65.66592001531237"/>
  <flow id="JF155724" begin="5420" fromJunction="J0" toJunction="J7" end="5480" vehsPerHour="7.181779662117952"/>
  <flow id="JF155725" begin="5420" fromJunction="J0" toJunction="J5" end="5480" vehsPerHour="116.78507054443253"/>
  <flow id="JF155726" begin="5420" fromJunction="J3" toJunction="J6" end="5480" vehsPerHour="134.91245574352325"/>
  <flow id="JF155727" begin="5420" fromJunction="J3" toJunction="J4" end="5480" vehsPerHour="44.77640867917675"/>
  <flow id="JF155728" begin="5420" fromJunction="J3" toJunction="J7" end="5480" vehsPerHour="62.07173419531819"/>
  <flow id="JF155729" begin="5420" fromJunction="J3" toJunction="J5" end="5480" vehsPerHour="2.521764424703224"/>
  <flow id="JF155730" begin="5480" fromJunction="J0" toJunction="J3" end="5540" vehsPerHour="186.02699743452843"/>
  <flow id="JF155731" begin="5480" fromJunction="J3" toJunction="J0" end="5540" vehsPerHour="121.25940573983807"/>
  <flow id="JF155732" begin="5480" fromJunction="J0" toJunction="J6" end="5540" vehsPerHour="99.3302227916054"/>
  <flow id="JF155733" begin="5480" fromJunction="J0" toJunction="J4" end="5540" vehsPerHour="111.0519807042263"/>
  <flow id="JF155734" begin="5480" fromJunction="J0" toJunction="J7" end="5540" vehsPerHour="95.64259125905927"/>
  <flow id="JF155735" begin="5480" fromJunction="J0" toJunction="J5" end="5540" vehsPerHour="135.33715044713387"/>
  <flow id="JF155736" begin="5480" fromJunction="J3" toJunction="J6" end="5540" vehsPerHour="105.12279714479423"/>
  <flow id="JF155737" begin="5480" fromJunction="J3" toJunction="J4" end="5540" vehsPerHour="83.42687060096061"/>
  <flow id="JF155738" begin="5480" fromJunction="J3" toJunction="J7" end="5540" vehsPerHour="45.89288106913421"/>
  <flow id="JF155739" begin="5480" fromJunction="J3" toJunction="J5" end="5540" vehsPerHour="135.88616748543706"/>
  <flow id="JF155740" begin="5480" fromJunction="J6" toJunction="J4" end="5540" vehsPerHour="31.254091655343007"/>
  <flow id="JF155741" begin="5480" fromJunction="J6" toJunction="J7" end="5540" vehsPerHour="14.693411149901266"/>
  <flow id="JF155742" begin="5480" fromJunction="J6" toJunction="J5" end="5540" vehsPerHour="10.562928810609566"/>
  <flow id="JF155743" begin="5480" fromJunction="J4" toJunction="J6" end="5540" vehsPerHour="26.41905894800351"/>
  <flow id="JF155744" begin="5480" fromJunction="J4" toJunction="J7" end="5540" vehsPerHour="54.2474984690957"/>
  <flow id="JF155745" begin="5480" fromJunction="J4" toJunction="J5" end="5540" vehsPerHour="16.054096829055858"/>
  <flow id="JF155746" begin="5480" fromJunction="J7" toJunction="J6" end="5540" vehsPerHour="30.836363215719814"/>
  <flow id="JF155747" begin="5480" fromJunction="J7" toJunction="J4" end="5540" vehsPerHour="20.09304669508133"/>
  <flow id="JF155748" begin="5480" fromJunction="J7" toJunction="J5" end="5540" vehsPerHour="24.00485650792225"/>
  <flow id="JF155749" begin="5480" fromJunction="J5" toJunction="J6" end="5540" vehsPerHour="18.85921626174602"/>
  <flow id="JF155750" begin="5480" fromJunction="J5" toJunction="J4" end="5540" vehsPerHour="66.512945226539"/>
  <flow id="JF155751" begin="5480" fromJunction="J5" toJunction="J7" end="5540" vehsPerHour="47.27491384676868"/>
  <flow id="JF155752" begin="5480" fromJunction="J6" toJunction="J0" end="5540" vehsPerHour="43.87643856787652"/>
  <flow id="JF155753" begin="5480" fromJunction="J6" toJunction="J3" end="5540" vehsPerHour="5.4390941017650185"/>
  <flow id="JF155754" begin="5480" fromJunction="J4" toJunction="J0" end="5540" vehsPerHour="37.74706405541643"/>
  <flow id="JF155755" begin="5480" fromJunction="J4" toJunction="J3" end="5540" vehsPerHour="47.68342494670922"/>
  <flow id="JF155756" begin="5480" fromJunction="J7" toJunction="J0" end="5540" vehsPerHour="3.7410727695445005"/>
  <flow id="JF155757" begin="5480" fromJunction="J7" toJunction="J3" end="5540" vehsPerHour="61.6482920580338"/>
  <flow id="JF155758" begin="5480" fromJunction="J5" toJunction="J0" end="5540" vehsPerHour="10.766494466645389"/>
  <flow id="JF155759" begin="5480" fromJunction="J5" toJunction="J3" end="5540" vehsPerHour="13.074968768259923"/>
  <flow id="JF155760" begin="5540" fromJunction="J0" toJunction="J3" end="5600" vehsPerHour="392.79133787412746"/>
  <flow id="JF155761" begin="5540" fromJunction="J3" toJunction="J0" end="5600" vehsPerHour="193.47190493874643"/>
  <flow id="JF155762" begin="5540" fromJunction="J0" toJunction="J6" end="5600" vehsPerHour="33.802406649889086"/>
  <flow id="JF155763" begin="5540" fromJunction="J0" toJunction="J4" end="5600" vehsPerHour="89.85745102757762"/>
  <flow id="JF155764" begin="5540" fromJunction="J0" toJunction="J7" end="5600" vehsPerHour="0.09128009952111037"/>
  <flow id="JF155765" begin="5540" fromJunction="J0" toJunction="J5" end="5600" vehsPerHour="48.775137611639416"/>
  <flow id="JF155766" begin="5540" fromJunction="J3" toJunction="J6" end="5600" vehsPerHour="106.81706822703143"/>
  <flow id="JF155767" begin="5540" fromJunction="J3" toJunction="J4" end="5600" vehsPerHour="28.092208242106565"/>
  <flow id="JF155768" begin="5540" fromJunction="J3" toJunction="J7" end="5600" vehsPerHour="111.2196346775133"/>
  <flow id="JF155769" begin="5540" fromJunction="J3" toJunction="J5" end="5600" vehsPerHour="83.38029606845623"/>
  <flow id="JF155770" begin="5540" fromJunction="J6" toJunction="J4" end="5600" vehsPerHour="48.85595057544913"/>
  <flow id="JF155771" begin="5540" fromJunction="J6" toJunction="J7" end="5600" vehsPerHour="62.776908633404524"/>
  <flow id="JF155772" begin="5540" fromJunction="J6" toJunction="J5" end="5600" vehsPerHour="2.3349200872624998"/>
  <flow id="JF155773" begin="5540" fromJunction="J4" toJunction="J6" end="5600" vehsPerHour="47.424987463098184"/>
  <flow id="JF155774" begin="5540" fromJunction="J4" toJunction="J7" end="5600" vehsPerHour="55.11979920619405"/>
  <flow id="JF155775" begin="5540" fromJunction="J4" toJunction="J5" end="5600" vehsPerHour="54.934094939258394"/>
  <flow id="JF155776" begin="5540" fromJunction="J7" toJunction="J6" end="5600" vehsPerHour="10.373741226940373"/>
  <flow id="JF155777" begin="5540" fromJunction="J7" toJunction="J4" end="5600" vehsPerHour="20.369347649795003"/>
  <flow id="JF155778" begin="5540" fromJunction="J7" toJunction="J5" end="5600" vehsPerHour="38.520574078227696"/>
  <flow id="JF155779" begin="5540" fromJunction="J5" toJunction="J6" end="5600" vehsPerHour="1.540810347683386"/>
  <flow id="JF155780" begin="5540" fromJunction="J5" toJunction="J4" end="5600" vehsPerHour="24.39944438817354"/>
  <flow id="JF155781" begin="5540" fromJunction="J5" toJunction="J7" end="5600" vehsPerHour="65.93112323119077"/>
  <flow id="JF155782" begin="5540" fromJunction="J6" toJunction="J0" end="5600" vehsPerHour="38.111364415863434"/>
  <flow id="JF155783" begin="5540" fromJunction="J6" toJunction="J3" end="5600" vehsPerHour="8.722333683841635"/>
  <flow id="JF155784" begin="5540" fromJunction="J4" toJunction="J0" end="5600" vehsPerHour="32.58130565124452"/>
  <flow id="JF155785" begin="5540" fromJunction="J4" toJunction="J3" end="5600" vehsPerHour="20.763522250633635"/>
  <flow id="JF155786" begin="5540" fromJunction="J7" toJunction="J0" end="5600" vehsPerHour="0.6310873887444343"/>
  <flow id="JF155787" begin="5540" fromJunction="J7" toJunction="J3" end="5600" vehsPerHour="23.34266047289989"/>
  <flow id="JF155788" begin="5540" fromJunction="J5" toJunction="J0" end="5600" vehsPerHour="62.997402810605784"/>
  <flow id="JF155789" begin="5540" fromJunction="J5" toJunction="J3" end="5600" vehsPerHour="66.52881240198457"/>
  <flow id="JF155790" begin="5600" fromJunction="J0" toJunction="J3" end="5660" vehsPerHour="221.12799771122516"/>
  <flow id="JF155791" begin="5600" fromJunction="J3" toJunction="J0" end="5660" vehsPerHour="207.84663641171022"/>
  <flow id="JF155792" begin="5600" fromJunction="J0" toJunction="J6" end="5660" vehsPerHour="14.62078927007483"/>
  <flow id="JF155793" begin="5600" fromJunction="J0" toJunction="J4" end="5660" vehsPerHour="87.94472321702787"/>
  <flow id="JF155794" begin="5600" fromJunction="J0" toJunction="J7" end="5660" vehsPerHour="47.29252807951659"/>
  <flow id="JF155795" begin="5600" fromJunction="J0" toJunction="J5" end="5660" vehsPerHour="122.21607949550169"/>
  <flow id="JF155796" begin="5600" fromJunction="J3" toJunction="J6" end="5660" vehsPerHour="14.474455388262582"/>
  <flow id="JF155797" begin="5600" fromJunction="J3" toJunction="J4" end="5660" vehsPerHour="106.17937512514031"/>
  <flow id="JF155798" begin="5600" fromJunction="J3" toJunction="J7" end="5660" vehsPerHour="19.435792121636524"/>
  <flow id="JF155799" begin="5600" fromJunction="J3" toJunction="J5" end="5660" vehsPerHour="21.279551500006495"/>
  <flow id="JF155800" begin="5660" fromJunction="J0" toJunction="J3" end="5720" vehsPerHour="207.06583666238356"/>
  <flow id="JF155801" begin="5660" fromJunction="J3" toJunction="J0" end="5720" vehsPerHour="62.06153921798008"/>
  <flow id="JF155802" begin="5660" fromJunction="J0" toJunction="J6" end="5720" vehsPerHour="20.41080413731631"/>
  <flow id="JF155803" begin="5660" fromJunction="J0" toJunction="J4" end="5720" vehsPerHour="30.240771599363203"/>
  <flow id="JF155804" begin="5660" fromJunction="J0" toJunction="J7" end="5720" vehsPerHour="19.71253761374918"/>
  <flow id="JF155805" begin="5660" fromJunction="J0" toJunction="J5" end="5720" vehsPerHour="36.05472389264709"/>
  <flow id="JF155806" begin="5660" fromJunction="J3" toJunction="J6" end="5720" vehsPerHour="116.8349511879517"/>
  <flow id="JF155807" begin="5660" fromJunction="J3" toJunction="J4" end="5720" vehsPerHour="122.12332718859"/>
  <flow id="JF155808" begin="5660" fromJunction="J3" toJunction="J7" end="5720" vehsPerHour="35.41013998342354"/>
  <flow id="JF155809" begin="5660" fromJunction="J3" toJunction="J5" end="5720" vehsPerHour="63.93245247828682"/>
  <flow id="JF155810" begin="5660" fromJunction="J6" toJunction="J4" end="5720" vehsPerHour="35.15267753306566"/>
  <flow id="JF155811" begin="5660" fromJunction="J6" toJunction="J7" end="5720" vehsPerHour="49.579010435607564"/>
  <flow id="JF155812" begin="5660" fromJunction="J6" toJunction="J5" end="5720" vehsPerHour="30.16678831758231"/>
  <flow id="JF155813" begin="5660" fromJunction="J4" toJunction="J6" end="5720" vehsPerHour="30.74230709070351"/>
  <flow id="JF155814" begin="5660" fromJunction="J4" toJunction="J7" end="5720" vehsPerHour="21.339825048009732"/>
  <flow id="JF155815" begin="5660" fromJunction="J4" toJunction="J5" end="5720" vehsPerHour="21.7679689675704"/>
  <flow id="JF155816" begin="5660" fromJunction="J7" toJunction="J6" end="5720" vehsPerHour="63.43876395228134"/>
  <flow id="JF155817" begin="5660" fromJunction="J7" toJunction="J4" end="5720" vehsPerHour="18.300377910125444"/>
  <flow id="JF155818" begin="5660" fromJunction="J7" toJunction="J5" end="5720" vehsPerHour="20.699589552926668"/>
  <flow id="JF155819" begin="5660" fromJunction="J5" toJunction="J6" end="5720" vehsPerHour="61.01237741068592"/>
  <flow id="JF155820" begin="5660" fromJunction="J5" toJunction="J4" end="5720" vehsPerHour="52.19526785183854"/>
  <flow id="JF155821" begin="5660" fromJunction="J5" toJunction="J7" end="5720" vehsPerHour="24.488372509312974"/>
  <flow id="JF155822" begin="5660" fromJunction="J6" toJunction="J0" end="5720" vehsPerHour="53.12349357609331"/>
  <flow id="JF155823" begin="5660" fromJunction="J6" toJunction="J3" end="5720" vehsPerHour="39.37447758992798"/>
  <flow id="JF155824" begin="5660" fromJunction="J4" toJunction="J0" end="5720" vehsPerHour="9.25572011207567"/>
  <flow id="JF155825" begin="5660" fromJunction="J4" toJunction="J3" end="5720" vehsPerHour="34.48303484807991"/>
  <flow id="JF155826" begin="5660" fromJunction="J7" toJunction="J0" end="5720" vehsPerHour="13.653122527556977"/>
  <flow id="JF155827" begin="5660" fromJunction="J7" toJunction="J3" end="5720" vehsPerHour="45.53019360234943"/>
  <flow id="JF155828" begin="5660" fromJunction="J5" toJunction="J0" end="5720" vehsPerHour="39.964590657451026"/>
  <flow id="JF155829" begin="5660" fromJunction="J5" toJunction="J3" end="5720" vehsPerHour="44.9906545153412"/>
  <flow id="JF155830" begin="5720" fromJunction="J0" toJunction="J3" end="5780" vehsPerHour="66.78399336334152"/>
  <flow id="JF155831" begin="5720" fromJunction="J3" toJunction="J0" end="5780" vehsPerHour="529.9829014719437"/>
  <flow id="JF155832" begin="5720" fromJunction="J0" toJunction="J6" end="5780" vehsPerHour="113.21357959865384"/>
  <flow id="JF155833" begin="5720" fromJunction="J0" toJunction="J4" end="5780" vehsPerHour="116.99240214880085"/>
  <flow id="JF155834" begin="5720" fromJunction="J0" toJunction="J7" end="5780" vehsPerHour="64.0328023436258"/>
  <flow id="JF155835" begin="5720" fromJunction="J0" toJunction="J5" end="5780" vehsPerHour="86.67921927037717"/>
  <flow id="JF155836" begin="5720" fromJunction="J3" toJunction="J6" end="5780" vehsPerHour="26.604094707466096"/>
  <flow id="JF155837" begin="5720" fromJunction="J3" toJunction="J4" end="5780" vehsPerHour="93.07538561237666"/>
  <flow id="JF155838" begin="5720" fromJunction="J3" toJunction="J7" end="5780" vehsPerHour="136.98599594574762"/>
  <flow id="JF155839" begin="5720" fromJunction="J3" toJunction="J5" end="5780" vehsPerHour="135.91109991360358"/>
  <flow id="JF155840" begin="5780" fromJunction="J0" toJunction="J3" end="5840" vehsPerHour="195.33120662524632"/>