<?xml version="1.0" encoding="UTF-8"?>
<routes xmlns:xsi="http://www.w3.org/2001/XMLSchema-instance" xsi:noNamespaceSchemaLocation="http://sumo.dlr.de/xsd/routes_file.xsd">
  <flow id="JF147660" begin="0" fromJunction="J0" toJunction="J3" end="5000" vehsPerHour="472.11396725414767"/>
  <flow id="JF147661" begin="0" fromJunction="J3" toJunction="J0" end="5000" vehsPerHour="1315.920088600942"/>
  <flow id="JF147662" begin="0" fromJunction="J0" toJunction="J6" end="5000" vehsPerHour="73.12041672058196"/>
  <flow id="JF147663" begin="0" fromJunction="J0" toJunction="J4" end="5000" vehsPerHour="53.880271715626876"/>
  <flow id="JF147664" begin="0" fromJunction="J0" toJunction="J7" end="5000" vehsPerHour="128.09618260072574"/>
  <flow id="JF147665" begin="0" fromJunction="J0" toJunction="J5" end="5000" vehsPerHour="44.09190535992891"/>
  <flow id="JF147666" begin="0" fromJunction="J3" toJunction="J6" end="5000" vehsPerHour="119.14951888565399"/>
  <flow id="JF147667" begin="0" fromJunction="J3" toJunction="J4" end="5000" vehsPerHour="80.38102672252859"/>
  <flow id="JF147668" begin="0" fromJunction="J3" toJunction="J7" end="5000" vehsPerHour="48.02999239175233"/>
  <flow id="JF147669" begin="0" fromJunction="J3" toJunction="J5" end="5000" vehsPerHour="0.5953260053432062"/>
  <flow id="JF147670" begin="0" fromJunction="J6" toJunction="J4" end="5000" vehsPerHour="176.11581748381485"/>
  <flow id="JF147671" begin="0" fromJunction="J6" toJunction="J7" end="5000" vehsPerHour="138.93342845443715"/>
  <flow id="JF147672" begin="0" fromJunction="J6" toJunction="J5" end="5000" vehsPerHour="23.198781153799594"/>
  <flow id="JF147673" begin="0" fromJunction="J4" toJunction="J6" end="5000" vehsPerHour="73.75836012733467"/>
  <flow id="JF147674" begin="0" fromJunction="J4" toJunction="J7" end="5000" vehsPerHour="22.196356429814614"/>
  <flow id="JF147675" begin="0" fromJunction="J4" toJunction="J5" end="5000" vehsPerHour="122.2293566719046"/>
  <flow id="JF147676" begin="0" fromJunction="J7" toJunction="J6" end="5000" vehsPerHour="4.222503967218462"/>
  <flow id="JF147677" begin="0" fromJunction="J7" toJunction="J4" end="5000" vehsPerHour="184.83257658982748"/>
  <flow id="JF147678" begin="0" fromJunction="J7" toJunction="J5" end="5000" vehsPerHour="126.63361218214492"/>
  <flow id="JF147679" begin="0" fromJunction="J5" toJunction="J6" end="5000" vehsPerHour="37.33254109642706"/>
  <flow id="JF147680" begin="0" fromJunction="J5" toJunction="J4" end="5000" vehsPerHour="241.5598873066449"/>
  <flow id="JF147681" begin="0" fromJunction="J5" toJunction="J7" end="5000" vehsPerHour="144.81666112257767"/>
  <flow id="JF147682" begin="0" fromJunction="J6" toJunction="J0" end="5000" vehsPerHour="46.426966872542245"/>
  <flow id="JF147683" begin="0" fromJunction="J6" toJunction="J3" end="5000" vehsPerHour="15.275709008983718"/>
  <flow id="JF147684" begin="0" fromJunction="J4" toJunction="J0" end="5000" vehsPerHour="7.0723769040979185"/>
  <flow id="JF147685" begin="0" fromJunction="J4" toJunction="J3" end="5000" vehsPerHour="63.863973517448976"/>
  <flow id="JF147686" begin="0" fromJunction="J7" toJunction="J0" end="5000" vehsPerHour="45.67063654170333"/>
  <flow id="JF147687" begin="0" fromJunction="J7" toJunction="J3" end="5000" vehsPerHour="46.24364687326028"/>
  <flow id="JF147688" begin="0" fromJunction="J5" toJunction="J0" end="5000" vehsPerHour="16.339014339465248"/>
  <flow id="JF147689" begin="0" fromJunction="J5" toJunction="J3" end="5000" vehsPerHour="9.87974008069933"/>
  <flow id="JF147690" begin="5000" fromJunction="J0" toJunction="J3" end="5060" vehsPerHour="132.69828276747904"/>
  <flow id="JF147691" begin="5000" fromJunction="J3" toJunction="J0" end="5060" vehsPerHour="499.3449568669469"/>
  <flow id="JF147692" begin="5000" fromJunction="J0" toJunction="J6" end="5060" vehsPerHour="102.63188277203989"/>
  <flow id="JF147693" begin="5000" fromJunction="J0" toJunction="J4" end="5060" vehsPerHour="62.48379646088505"/>
  <flow id="JF147694" begin="5000" fromJunction="J0" toJunction="J7" end="5060" vehsPerHour="118.1053400843306"/>
  <flow id="JF147695" begin="5000" fromJunction="J0" toJunction="J5" end="5060" vehsPerHour="9.216050237568194"/>
  <flow id="JF147696" begin="5000" fromJunction="J3" toJunction="J6" end="5060" vehsPerHour="133.68350801154884"/>
  <flow id="JF147697" begin="5000" fromJunction="J3" toJunction="J4" end="5060" vehsPerHour="79.72435478404704"/>
  <flow id="JF147698" begin="5000" fromJunction="J3" toJunction="J7" end="5060" vehsPerHour="41.96256222261181"/>
  <flow id="JF147699" begin="5000" fromJunction="J3" toJunction="J5" end="5060" vehsPerHour="105.56968781463726"/>
  <flow id="JF147700" begin="5000" fromJunction="J6" toJunction="J4" end="5060" vehsPerHour="39.09832942865812"/>
  <flow id="JF147701" begin="5000" fromJunction="J6" toJunction="J7" end="5060" vehsPerHour="11.179571574302129"/>
  <flow id="JF147702" begin="5000" fromJunction="J6" toJunction="J5" end="5060" vehsPerHour="43.18563454660281"/>
  <flow id="JF147703" begin="5000" fromJunction="J4" toJunction="J6" end="5060" vehsPerHour="65.77402823425983"/>
  <flow id="JF147704" begin="5000" fromJunction="J4" toJunction="J7" end="5060" vehsPerHour="46.93995162590775"/>
  <flow id="JF147705" begin="5000" fromJunction="J4" toJunction="J5" end="5060" vehsPerHour="50.574564454191915"/>
  <flow id="JF147706" begin="5000" fromJunction="J7" toJunction="J6" end="5060" vehsPerHour="3.4821000042329446"/>
  <flow id="JF147707" begin="5000" fromJunction="J7" toJunction="J4" end="5060" vehsPerHour="38.46769992976545"/>
  <flow id="JF147708" begin="5000" fromJunction="J7" toJunction="J5" end="5060" vehsPerHour="53.2395382855128"/>
  <flow id="JF147709" begin="5000" fromJunction="J5" toJunction="J6" end="5060" vehsPerHour="19.223142764548733"/>
  <flow id="JF147710" begin="5000" fromJunction="J5" toJunction="J4" end="5060" vehsPerHour="57.60786778011488"/>
  <flow id="JF147711" begin="5000" fromJunction="J5" toJunction="J7" end="5060" vehsPerHour="17.480108361207115"/>
  <flow id="JF147712" begin="5000" fromJunction="J6" toJunction="J0" end="5060" vehsPerHour="59.70735866035483"/>
  <flow id="JF147713" begin="5000" fromJunction="J6" toJunction="J3" end="5060" vehsPerHour="66.13130785812292"/>
  <flow id="JF147714" begin="5000" fromJunction="J4" toJunction="J0" end="5060" vehsPerHour="4.464674170689406"/>
  <flow id="JF147715" begin="5000" fromJunction="J4" toJunction="J3" end="5060" vehsPerHour="60.80335995473212"/>
  <flow id="JF147716" begin="5000" fromJunction="J7" toJunction="J0" end="5060" vehsPerHour="8.279634416511197"/>
  <flow id="JF147717" begin="5000" fromJunction="J7" toJunction="J3" end="5060" vehsPerHour="39.120019959575444"/>
  <flow id="JF147718" begin="5000" fromJunction="J5" toJunction="J0" end="5060" vehsPerHour="43.5365084323822"/>
  <flow id="JF147719" begin="5000" fromJunction="J5" toJunction="J3" end="5060" vehsPerHour="22.538851935730143"/>
  <flow id="JF147720" begin="5060" fromJunction="J0" toJunction="J3" end="5120" vehsPerHour="16.385164286183617"/>
  <flow id="JF147721" begin="5060" fromJunction="J3" toJunction="J0" end="5120" vehsPerHour="1.7839113859000317"/>
  <flow id="JF147722" begin="5060" fromJunction="J0" toJunction="J6" end="5120" vehsPerHour="116.35561287315349"/>
  <flow id="JF147723" begin="5060" fromJunction="J0" toJunction="J4" end="5120" vehsPerHour="13.392575339098794"/>
  <flow id="JF147724" begin="5060" fromJunction="J0" toJunction="J7" end="5120" vehsPerHour="17.872847797140654"/>
  <flow id="JF147725" begin="5060" fromJunction="J0" toJunction="J5" end="5120" vehsPerHour="34.22693288290298"/>
  <flow id="JF147726" begin="5060" fromJunction="J3" toJunction="J6" end="5120" vehsPerHour="15.897380553694184"/>
  <flow id="JF147727" begin="5060" fromJunction="J3" toJunction="J4" end="5120" vehsPerHour="103.41986736923693"/>
  <flow id="JF147728" begin="5060" fromJunction="J3" toJunction="J7" end="5120" vehsPerHour="98.11562998579357"/>
  <flow id="JF147729" begin="5060" fromJunction="J3" toJunction="J5" end="5120" vehsPerHour="76.48121269705597"/>
  <flow id="JF147730" begin="5120" fromJunction="J0" toJunction="J3" end="5180" vehsPerHour="222.78522074910413"/>
  <flow id="JF147731" begin="5120" fromJunction="J3" toJunction="J0" end="5180" vehsPerHour="269.30066608383646"/>
  <flow id="JF147732" begin="5120" fromJunction="J0" toJunction="J6" end="5180" vehsPerHour="109.14443921802226"/>
  <flow id="JF147733" begin="5120" fromJunction="J0" toJunction="J4" end="5180" vehsPerHour="133.10693829906663"/>
  <flow id="JF147734" begin="5120" fromJunction="J0" toJunction="J7" end="5180" vehsPerHour="25.547757155233576"/>
  <flow id="JF147735" begin="5120" fromJunction="J0" toJunction="J5" end="5180" vehsPerHour="29.234999526167844"/>
  <flow id="JF147736" begin="5120" fromJunction="J3" toJunction="J6" end="5180" vehsPerHour="69.8866024814413"/>
  <flow id="JF147737" begin="5120" fromJunction="J3" toJunction="J4" end="5180" vehsPerHour="37.70079779701354"/>
  <flow id="JF147738" begin="5120" fromJunction="J3" toJunction="J7" end="5180" vehsPerHour="90.85038914378389"/>
  <flow id="JF147739" begin="5120" fromJunction="J3" toJunction="J5" end="5180" vehsPerHour="88.6735283375445"/>
  <flow id="JF147740" begin="5120" fromJunction="J6" toJunction="J4" end="5180" vehsPerHour="17.66287196483684"/>
  <flow id="JF147741" begin="5120" fromJunction="J6" toJunction="J7" end="5180" vehsPerHour="45.94106838144229"/>
  <flow id="JF147742" begin="5120" fromJunction="J6" toJunction="J5" end="5180" vehsPerHour="22.39597430121641"/>
  <flow id="JF147743" begin="5120" fromJunction="J4" toJunction="J6" end="5180" vehsPerHour="11.162139320314136"/>
  <flow id="JF147744" begin="5120" fromJunction="J4" toJunction="J7" end="5180" vehsPerHour="46.73296157269369"/>
  <flow id="JF147745" begin="5120" fromJunction="J4" toJunction="J5" end="5180" vehsPerHour="4.705149635957846"/>
  <flow id="JF147746" begin="5120" fromJunction="J7" toJunction="J6" end="5180" vehsPerHour="57.60571002773524"/>
  <flow id="JF147747" begin="5120" fromJunction="J7" toJunction="J4" end="5180" vehsPerHour="22.906882067594736"/>
  <flow id="JF147748" begin="5120" fromJunction="J7" toJunction="J5" end="5180" vehsPerHour="10.315404604929718"/>
  <flow id="JF147749" begin="5120" fromJunction="J5" toJunction="J6" end="5180" vehsPerHour="27.416330045687076"/>
  <flow id="JF147750" begin="5120" fromJunction="J5" toJunction="J4" end="5180" vehsPerHour="3.8019224798779008"/>
  <flow id="JF147751" begin="5120" fromJunction="J5" toJunction="J7" end="5180" vehsPerHour="57.68079578749778"/>
  <flow id="JF147752" begin="5120" fromJunction="J6" toJunction="J0" end="5180" vehsPerHour="4.691878350968837"/>
  <flow id="JF147753" begin="5120" fromJunction="J6" toJunction="J3" end="5180" vehsPerHour="66.60459836348753"/>
  <flow id="JF147754" begin="5120" fromJunction="J4" toJunction="J0" end="5180" vehsPerHour="3.227088701601277"/>
  <flow id="JF147755" begin="5120" fromJunction="J4" toJunction="J3" end="5180" vehsPerHour="46.82270065045648"/>
  <flow id="JF147756" begin="5120" fromJunction="J7" toJunction="J0" end="5180" vehsPerHour="9.312083363695665"/>
  <flow id="JF147757" begin="5120" fromJunction="J7" toJunction="J3" end="5180" vehsPerHour="63.55753790326736"/>
  <flow id="JF147758" begin="5120" fromJunction="J5" toJunction="J0" end="5180" vehsPerHour="49.54460675809529"/>
  <flow id="JF147759" begin="5120" fromJunction="J5" toJunction="J3" end="5180" vehsPerHour="62.47782302388529"/>
  <flow id="JF147760" begin="5180" fromJunction="J0" toJunction="J3" end="5240" vehsPerHour="190.06175921052878"/>
  <flow id="JF147761" begin="5180" fromJunction="J3" toJunction="J0" end="5240" vehsPerHour="211.1662479854935"/>
  <flow id="JF147762" begin="5180" fromJunction="J0" toJunction="J6" end="5240" vehsPerHour="94.53887904920524"/>
  <flow id="JF147763" begin="5180" fromJunction="J0" toJunction="J4" end="5240" vehsPerHour="66.19801249467437"/>
  <flow id="JF147764" begin="5180" fromJunction="J0" toJunction="J7" end="5240" vehsPerHour="130.24708459469997"/>
  <flow id="JF147765" begin="5180" fromJunction="J0" toJunction="J5" end="5240" vehsPerHour="57.75606037093904"/>
  <flow id="JF147766" begin="5180" fromJunction="J3" toJunction="J6" end="5240" vehsPerHour="102.14543163703773"/>
  <flow id="JF147767" begin="5180" fromJunction="J3" toJunction="J4" end="5240" vehsPerHour="66.97467639607277"/>
  <flow id="JF147768" begin="5180" fromJunction="J3" toJunction="J7" end="5240" vehsPerHour="122.43149905881926"/>
  <flow id="JF147769" begin="5180" fromJunction="J3" toJunction="J5" end="5240" vehsPerHour="29.67716917300178"/>
  <flow id="JF147770" begin="5180" fromJunction="J6" toJunction="J4" end="5240" vehsPerHour="2.327299935466914"/>
  <flow id="JF147771" begin="5180" fromJunction="J6" toJunction="J7" end="5240" vehsPerHour="19.76878872026981"/>
  <flow id="JF147772" begin="5180" fromJunction="J6" toJunction="J5" end="5240" vehsPerHour="1.3205831312082608"/>
  <flow id="JF147773" begin="5180" fromJunction="J4" toJunction="J6" end="5240" vehsPerHour="59.96287328875219"/>
  <flow id="JF147774" begin="5180" fromJunction="J4" toJunction="J7" end="5240" vehsPerHour="36.348523949850076"/>
  <flow id="JF147775" begin="5180" fromJunction="J4" toJunction="J5" end="5240" vehsPerHour="0.9902397943184233"/>
  <flow id="JF147776" begin="5180" fromJunction="J7" toJunction="J6" end="5240" vehsPerHour="38.494494105530485"/>
  <flow id="JF147777" begin="5180" fromJunction="J7" toJunction="J4" end="5240" vehsPerHour="47.43009643862855"/>
  <flow id="JF147778" begin="5180" fromJunction="J7" toJunction="J5" end="5240" vehsPerHour="16.415407635791563"/>
  <flow id="JF147779" begin="5180" fromJunction="J5" toJunction="J6" end="5240" vehsPerHour="9.847925736606237"/>
  <flow id="JF147780" begin="5180" fromJunction="J5" toJunction="J4" end="5240" vehsPerHour="50.47849322305344"/>
  <flow id="JF147781" begin="5180" fromJunction="J5" toJunction="J7" end="5240" vehsPerHour="57.61317351688202"/>
  <flow id="JF147782" begin="5180" fromJunction="J6" toJunction="J0" end="5240" vehsPerHour="66.40368384913745"/>
  <flow id="JF147783" begin="5180" fromJunction="J6" toJunction="J3" end="5240" vehsPerHour="3.358629669302949"/>
  <flow id="JF147784" begin="5180" fromJunction="J4" toJunction="J0" end="5240" vehsPerHour="34.97580190535345"/>
  <flow id="JF147785" begin="5180" fromJunction="J4" toJunction="J3" end="5240" vehsPerHour="13.942566769986936"/>
  <flow id="JF147786" begin="5180" fromJunction="J7" toJunction="J0" end="5240" vehsPerHour="39.28636223172574"/>
  <flow id="JF147787" begin="5180" fromJunction="J7" toJunction="J3" end="5240" vehsPerHour="13.95685331616314"/>
  <flow id="JF147788" begin="5180" fromJunction="J5" toJunction="J0" end="5240" vehsPerHour="42.7716574361553"/>
  <flow id="JF147789" begin="5180" fromJunction="J5" toJunction="J3" end="5240" vehsPerHour="20.790583940321113"/>
  <flow id="JF147790" begin="5240" fromJunction="J0" toJunction="J3" end="5300" vehsPerHour="215.91890873705714"/>
  <flow id="JF147791" begin="5240" fromJunction="J3" toJunction="J0" end="5300" vehsPerHour="217.79224677805823"/>
  <flow id="JF147792" begin="5240" fromJunction="J0" toJunction="J6" end="5300" vehsPerHour="39.3493488457591"/>
  <flow id="JF147793" begin="5240" fromJunction="J0" toJunction="J4" end="5300" vehsPerHour="106.04354411170065"/>
  <flow id="JF147794" begin="5240" fromJunction="J0" toJunction="J7" end="5300" vehsPerHour="39.57210629557462"/>
  <flow id="JF147795" begin="5240" fromJunction="J0" toJunction="J5" end="5300" vehsPerHour="28.852820884386645"/>
  <flow id="JF147796" begin="5240" fromJunction="J3" toJunction="J6" end="5300" vehsPerHour="9.773526045428861"/>
  <flow id="JF147797" begin="5240" fromJunction="J3" toJunction="J4" end="5300" vehsPerHour="45.1546227336683"/>
  <flow id="JF147798" begin="5240" fromJunction="J3" toJunction="J7" end="5300" vehsPerHour="7.431627638891578"/>
  <flow id="JF147799" begin="5240" fromJunction="J3" toJunction="J5" end="5300" vehsPerHour="85.46304175838166"/>
  <flow id="JF147800" begin="5300" fromJunction="J0" toJunction="J3" end="5360" vehsPerHour="97.75449062519127"/>
  <flow id="JF147801" begin="5300" fromJunction="J3" toJunction="J0" end="5360" vehsPerHour="40.90724650088132"/>
  <flow id="JF147802" begin="5300" fromJunction="J0" toJunction="J6" end="5360" vehsPerHour="131.68955516732618"/>
  <flow id="JF147803" begin="5300" fromJunction="J0" toJunction="J4" end="5360" vehsPerHour="94.2598966460931"/>
  <flow id="JF147804" begin="5300" fromJunction="J0" toJunction="J7" end="5360" vehsPerHour="76.56328780663006"/>
  <flow id="JF147805" begin="5300" fromJunction="J0" toJunction="J5" end="5360" vehsPerHour="42.026550511535476"/>
  <flow id="JF147806" begin="5300" fromJunction="J3" toJunction="J6" end="5360" vehsPerHour="133.61794314345238"/>
  <flow id="JF147807" begin="5300" fromJunction="J3" toJunction="J4" end="5360" vehsPerHour="74.2284148522632"/>
  <flow id="JF147808" begin="5300" fromJunction="J3" toJunction="J7" end="5360" vehsPerHour="64.62225073227458"/>
  <flow id="JF147809" begin="5300" fromJunction="J3" toJunction="J5" end="5360" vehsPerHour="17.50129952047734"/>
  <flow id="JF147810" begin="5360" fromJunction="J0" toJunction="J3" end="5420" vehsPerHour="401.24890309451814"/>
  <flow id="JF147811" begin="5360" fromJunction="J3" toJunction="J0" end="5420" vehsPerHour="462.6749773843582"/>
  <flow id="JF147812" begin="5360" fromJunction="J0" toJunction="J6" end="5420" vehsPerHour="22.875635018805806"/>
  <flow id="JF147813" begin="5360" fromJunction="J0" toJunction="J4" end="5420" vehsPerHour="75.44611182501771"/>
  <flow id="JF147814" begin="5360" fromJunction="J0" toJunction="J7" end="5420" vehsPerHour="31.432011006924075"/>
  <flow id="JF147815" begin="5360" fromJunction="J0" toJunction="J5" end="5420" vehsPerHour="63.94987616696857"/>
  <flow id="JF147816" begin="5360" fromJunction="J3" toJunction="J6" end="5420" vehsPerHour="91.34280390712611"/>
  <flow id="JF147817" begin="5360" fromJunction="J3" toJunction="J4" end="5420" vehsPerHour="107.89589346550713"/>
  <flow id="JF147818" begin="5360" fromJunction="J3" toJunction="J7" end="5420" vehsPerHour="78.99746501864239"/>
  <flow id="JF147819" begin="5360" fromJunction="J3" toJunction="J5" end="5420" vehsPerHour="91.14844155935491"/>
  <flow id="JF147820" begin="5420" fromJunction="J0" toJunction="J3" end="5480" vehsPerHour="336.11881530457697"/>
  <flow id="JF147821" begin="5420" fromJunction="J3" toJunction="J0" end="5480" vehsPerHour="361.40286898759797"/>
  <flow id="JF147822" begin="5420" fromJunction="J0" toJunction="J6" end="5480" vehsPerHour="23.20854283622497"/>
  <flow id="JF147823" begin="5420" fromJunction="J0" toJunction="J4" end="5480" vehsPerHour="36.45492866790461"/>
  <flow id="JF147824" begin="5420" fromJunction="J0" toJunction="J7" end="5480" vehsPerHour="128.35692673252237"/>
  <flow id="JF147825" begin="5420" fromJunction="J0" toJunction="J5" end="5480" vehsPerHour="102.97870235799124"/>
  <flow id="JF147826" begin="5420" fromJunction="J3" toJunction="J6" end="5480" vehsPerHour="17.859431605143556"/>
  <flow id="JF147827" begin="5420" fromJunction="J3" toJunction="J4" end="5480" vehsPerHour="26.86293495612427"/>
  <flow id="JF147828" begin="5420" fromJunction="J3" toJunction="J7" end="5480" vehsPerHour="8.019657362155186"/>
  <flow id="JF147829" begin="5420" fromJunction="J3" toJunction="J5" end="5480" vehsPerHour="65.85192905392738"/>
  <flow id="JF147830" begin="5480" fromJunction="J0" toJunction="J3" end="5540" vehsPerHour="272.2613511261585"/>
  <flow id="JF147831" begin="5480" fromJunction="J3" toJunction="J0" end="5540" vehsPerHour="455.8918221303962"/>
  <flow id="JF147832" begin="5480" fromJunction="J0" toJunction="J6" end="5540" vehsPerHour="3.751176295162982"/>
  <flow id="JF147833" begin="5480" fromJunction="J0" toJunction="J4" end="5540" vehsPerHour="127.39380132828697"/>
  <flow id="JF147834" begin="5480" fromJunction="J0" toJunction="J7" end="5540" vehsPerHour="33.90186196625678"/>
  <flow id="JF147835" begin="5480" fromJunction="J0" toJunction="J5" end="5540" vehsPerHour="37.31102422848297"/>
  <flow id="JF147836" begin="5480" fromJunction="J3" toJunction="J6" end="5540" vehsPerHour="89.07887954678533"/>
  <flow id="JF147837" begin="5480" fromJunction="J3" toJunction="J4" end="5540" vehsPerHour="133.52253210143465"/>
  <flow id="JF147838" begin="5480" fromJunction="J3" toJunction="J7" end="5540" vehsPerHour="0.28453796231210204"/>
  <flow id="JF147839" begin="5480" fromJunction="J3" toJunction="J5" end="5540" vehsPerHour="109.10697640076359"/>
  <flow id="JF147840" begin="5480" fromJunction="J6" toJunction="J4" end="5540" vehsPerHour="44.62403628952939"/>
  <flow id="JF147841" begin="5480" fromJunction="J6" toJunction="J7" end="5540" vehsPerHour="61.61970945970869"/>
  <flow id="JF147842" begin="5480" fromJunction="J6" toJunction="J5" end="5540" vehsPerHour="45.237425626482796"/>
  <flow id="JF147843" begin="5480" fromJunction="J4" toJunction="J6" end="5540" vehsPerHour="3.962864774982454"/>
  <flow id="JF147844" begin="5480" fromJunction="J4" toJunction="J7" end="5540" vehsPerHour="7.304347855391939"/>
  <flow id="JF147845" begin="5480" fromJunction="J4" toJunction="J5" end="5540" vehsPerHour="47.46885287601701"/>
  <flow id="JF147846" begin="5480" fromJunction="J7" toJunction="J6" end="5540" vehsPerHour="57.434917657525624"/>
  <flow id="JF147847" begin="5480" fromJunction="J7" toJunction="J4" end="5540" vehsPerHour="22.239586330528372"/>
  <flow id="JF147848" begin="5480" fromJunction="J7" toJunction="J5" end="5540" vehsPerHour="46.75699158947416"/>
  <flow id="JF147849" begin="5480" fromJunction="J5" toJunction="J6" end="5540" vehsPerHour="68.02418245631925"/>
  <flow id="JF147850" begin="5480" fromJunction="J5" toJunction="J4" end="5540" vehsPerHour="32.283212110166815"/>
  <flow id="JF147851" begin="5480" fromJunction="J5" toJunction="J7" end="5540" vehsPerHour="59.56591027508997"/>
  <flow id="JF147852" begin="5480" fromJunction="J6" toJunction="J0" end="5540" vehsPerHour="25.009394718466346"/>
  <flow id="JF147853" begin="5480" fromJunction="J6" toJunction="J3" end="5540" vehsPerHour="35.04858227162003"/>
  <flow id="JF147854" begin="5480" fromJunction="J4" toJunction="J0" end="5540" vehsPerHour="23.267102765654958"/>
  <flow id="JF147855" begin="5480" fromJunction="J4" toJunction="J3" end="5540" vehsPerHour="55.88974989473764"/>
  <flow id="JF147856" begin="5480" fromJunction="J7" toJunction="J0" end="5540" vehsPerHour="54.22374460656478"/>
  <flow id="JF147857" begin="5480" fromJunction="J7" toJunction="J3" end="5540" vehsPerHour="62.482364440422835"/>
  <flow id="JF147858" begin="5480" fromJunction="J5" toJunction="J0" end="5540" vehsPerHour="60.1226054363199"/>
  <flow id="JF147859" begin="5480" fromJunction="J5" toJunction="J3" end="5540" vehsPerHour="25.515692880211922"/>
  <flow id="JF147860" begin="5540" fromJunction="J0" toJunction="J3" end="5600" vehsPerHour="461.7389266033713"/>
  <flow id="JF147861" begin="5540" fromJunction="J3" toJunction="J0" end="5600" vehsPerHour="365.6729909433773"/>
  <flow id="JF147862" begin="5540" fromJunction="J0" toJunction="J6" end="5600" vehsPerHour="98.15673946291433"/>
  <flow id="JF147863" begin="5540" fromJunction="J0" toJunction="J4" end="5600" vehsPerHour="0.7443082229148508"/>
  <flow id="JF147864" begin="5540" fromJunction="J0" toJunction="J7" end="5600" vehsPerHour="30.90692184612354"/>
  <flow id="JF147865" begin="5540" fromJunction="J0" toJunction="J5" end="5600" vehsPerHour="24.15822106967121"/>
  <flow id="JF147866" begin="5540" fromJunction="J3" toJunction="J6" end="5600" vehsPerHour="69.15388991129878"/>
  <flow id="JF147867" begin="5540" fromJunction="J3" toJunction="J4" end="5600" vehsPerHour="28.029709064226516"/>
  <flow id="JF147868" begin="5540" fromJunction="J3" toJunction="J7" end="5600" vehsPerHour="110.76254914523224"/>
  <flow id="JF147869" begin="5540" fromJunction="J3" toJunction="J5" end="5600" vehsPerHour="75.1738092909368"/>
  <flow id="JF147870" begin="5540" fromJunction="J6" toJunction="J4" end="5600" vehsPerHour="14.050812492897215"/>
  <flow id="JF147871" begin="5540" fromJunction="J6" toJunction="J7" end="5600" vehsPerHour="4.90836761497019"/>
  <flow id="JF147872" begin="5540" fromJunction="J6" toJunction="J5" end="5600" vehsPerHour="22.11678535329131"/>
  <flow id="JF147873" begin="5540" fromJunction="J4" toJunction="J6" end="5600" vehsPerHour="16.722460431342615"/>
  <flow id="JF147874" begin="5540" fromJunction="J4" toJunction="J7" end="5600" vehsPerHour="19.656808033702884"/>
  <flow id="JF147875" begin="5540" fromJunction="J4" toJunction="J5" end="5600" vehsPerHour="1.7866324449123903"/>
  <flow id="JF147876" begin="5540" fromJunction="J7" toJunction="J6" end="5600" vehsPerHour="41.409899978525246"/>
  <flow id="JF147877" begin="5540" fromJunction="J7" toJunction="J4" end="5600" vehsPerHour="66.24351373873583"/>
  <flow id="JF147878" begin="5540" fromJunction="J7" toJunction="J5" end="5600" vehsPerHour="61.35458882517295"/>
  <flow id="JF147879" begin="5540" fromJunction="J5" toJunction="J6" end="5600" vehsPerHour="9.69536540108472"/>
  <flow id="JF147880" begin="5540" fromJunction="J5" toJunction="J4" end="5600" vehsPerHour="61.170264399351616"/>
  <flow id="JF147881" begin="5540" fromJunction="J5" toJunction="J7" end="5600" vehsPerHour="3.598083289795622"/>
  <flow id="JF147882" begin="5540" fromJunction="J6" toJunction="J0" end="5600" vehsPerHour="1.480113321109868"/>
  <flow id="JF147883" begin="5540" fromJunction="J6" toJunction="J3" end="5600" vehsPerHour="62.24289775141337"/>
  <flow id="JF147884" begin="5540" fromJunction="J4" toJunction="J0" end="5600" vehsPerHour="61.884671158010526"/>
  <flow id="JF147885" begin="5540" fromJunction="J4" toJunction="J3" end="5600" vehsPerHour="67.54422270857322"/>
  <flow id="JF147886" begin="5540" fromJunction="J7" toJunction="J0" end="5600" vehsPerHour="67.53201358856852"/>
  <flow id="JF147887" begin="5540" fromJunction="J7" toJunction="J3" end="5600" vehsPerHour="32.67982019660394"/>
  <flow id="JF147888" begin="5540" fromJunction="J5" toJunction="J0" end="5600" vehsPerHour="1.0301979640978274"/>
  <flow id="JF147889" begin="5540" fromJunction="J5" toJunction="J3" end="5600" vehsPerHour="65.38254712572983"/>
  <flow id="JF147890" begin="5600" fromJunction="J0" toJunction="J3" end="5660" vehsPerHour="314.7400657965432"/>
  <flow id="JF147891" begin="5600" fromJunction="J3" toJunction="J0" end="5660" vehsPerHour="327.0542532040887"/>
  <flow id="JF147892" begin="5600" fromJunction="J0" toJunction="J6" end="5660" vehsPerHour="32.35520679199832"/>
  <flow id="JF147893" begin="5600" fromJunction="J0" toJunction="J4" end="5660" vehsPerHour="94.87335872807165"/>
  <flow id="JF147894" begin="5600" fromJunction="J0" toJunction="J7" end="5660" vehsPerHour="133.50904471740873"/>
  <flow id="JF147895" begin="5600" fromJunction="J0" toJunction="J5" end="5660" vehsPerHour="97.16954184629418"/>
  <flow id="JF147896" begin="5600" fromJunction="J3" toJunction="J6" end="5660" vehsPerHour="133.78763136718516"/>
  <flow id="JF147897" begin="5600" fromJunction="J3" toJunction="J4" end="5660" vehsPerHour="38.91218831433429"/>
  <flow id="JF147898" begin="5600" fromJunction="J3" toJunction="J7" end="5660" vehsPerHour="49.93725196877682"/>
  <flow id="JF147899" begin="5600" fromJunction="J3" toJunction="J5" end="5660" vehsPerHour="127.49484659814281"/>
  <flow id="JF147900" begin="5660" fromJunction="J0" toJunction="J3" end="5720" vehsPerHour="43.24762809899211"/>
  <flow id="JF147901" begin="5660" fromJunction="J3" toJunction="J0" end="5720" vehsPerHour="266.1739121754983"/>
  <flow id="JF147902" begin="5660" fromJunction="J0" toJunction="J6" end="5720" vehsPerHour="87.37568780712104"/>
  <flow id="JF147903" begin="5660" fromJunction="J0" toJunction="J4" end="5720" vehsPerHour="108.47337356537402"/>
  <flow id="JF147904" begin="5660" fromJunction="J0" toJunction="J7" end="5720" vehsPerHour="94.49335527478108"/>
  <flow id="JF147905" begin="5660" fromJunction="J0" toJunction="J5" end="5720" vehsPerHour="71.51257926344238"/>
  <flow id="JF147906" begin="5660" fromJunction="J3" toJunction="J6" end="5720" vehsPerHour="132.3030234357742"/>
  <flow id="JF147907" begin="5660" fromJunction="J3" toJunction="J4" end="5720" vehsPerHour="69.80004205711965"/>
  <flow id="JF147908" begin="5660" fromJunction="J3" toJunction="J7" end="5720" vehsPerHour="101.98078186726485"/>
  <flow id="JF147909" begin="5660" fromJunction="J3" toJunction="J5" end="5720" vehsPerHour="48.108221687321894"/>
  <flow id="JF147910" begin="5720" fromJunction="J0" toJunction="J3" end="5780" vehsPerHour="174.77083079400396"/>
  <flow id="JF147911" begin="5720" fromJunction="J3" toJunction="J0" end="5780" vehsPerHour="166.14139399226215"/>
  <flow id="JF147912" begin="5720" fromJunction="J0" toJunction="J6" end="5780" vehsPerHour="78.49457040220781"/>
  <flow id="JF147913" begin="5720" fromJunction="J0" toJunction="J4" end="5780" vehsPerHour="88.6688082198055"/>
  <flow id="JF147914" begin="5720" fromJunction="J0" toJunction="J7" end="5780" vehsPerHour="29.00710311955903"/>
  <flow id="JF147915" begin="5720" fromJunction="J0" toJunction="J5" end="5780" vehsPerHour="29.439361824838574"/>
  <flow id="JF147916" begin="5720" fromJunction="J3" toJunction="J6" end="5780" vehsPerHour="105.76967994512414"/>
  <flow id="JF147917" begin="5720" fromJunction="J3" toJunction="J4" end="5780" vehsPerHour="102.72232422918235"/>
  <flow id="JF147918" begin="5720" fromJunction="J3" toJunction="J7" end="5780" vehsPerHour="38.16576504550626"/>
  <flow id="JF147919" begin="5720" fromJunction="J3" toJunction="J5" end="5780" vehsPerHour="9.360563041256079"/>
  <flow id="JF147920" begin="5720" fromJunction="J6" toJunction="J4" end="5780" vehsPerHour="52.414714110448685"/>