<?xml version="1.0" encoding="UTF-8"?>
<routes xmlns:xsi="http://www.w3.org/2001/XMLSchema-instance" xsi:noNamespaceSchemaLocation="http://sumo.dlr.de/xsd/routes_file.xsd">
  <flow id="JF157540" begin="0" fromJunction="J0" toJunction="J3" end="5000" vehsPerHour="401.0922941108142"/>
  <flow id="JF157541" begin="0" fromJunction="J3" toJunction="J0" end="5000" vehsPerHour="239.50538271396948"/>
  <flow id="JF157542" begin="0" fromJunction="J0" toJunction="J6" end="5000" vehsPerHour="114.74784668174362"/>
  <flow id="JF157543" begin="0" fromJunction="J0" toJunction="J4" end="5000" vehsPerHour="64.67279256561035"/>
  <flow id="JF157544" begin="0" fromJunction="J0" toJunction="J7" end="5000" vehsPerHour="12.669131198710271"/>
  <flow id="JF157545" begin="0" fromJunction="J0" toJunction="J5" end="5000" vehsPerHour="98.67559863506403"/>
  <flow id="JF157546" begin="0" fromJunction="J3" toJunction="J6" end="5000" vehsPerHour="61.132189307468025"/>
  <flow id="JF157547" begin="0" fromJunction="J3" toJunction="J4" end="5000" vehsPerHour="34.25694200169763"/>
  <flow id="JF157548" begin="0" fromJunction="J3" toJunction="J7" end="5000" vehsPerHour="43.666400303378246"/>
  <flow id="JF157549" begin="0" fromJunction="J3" toJunction="J5" end="5000" vehsPerHour="12.499930854371488"/>
  <flow id="JF157550" begin="0" fromJunction="J6" toJunction="J4" end="5000" vehsPerHour="207.8940813966648"/>
  <flow id="JF157551" begin="0" fromJunction="J6" toJunction="J7" end="5000" vehsPerHour="119.79989200075553"/>
  <flow id="JF157552" begin="0" fromJunction="J6" toJunction="J5" end="5000" vehsPerHour="183.82050086556094"/>
  <flow id="JF157553" begin="0" fromJunction="J4" toJunction="J6" end="5000" vehsPerHour="32.012552814218964"/>
  <flow id="JF157554" begin="0" fromJunction="J4" toJunction="J7" end="5000" vehsPerHour="77.56922539532881"/>
  <flow id="JF157555" begin="0" fromJunction="J4" toJunction="J5" end="5000" vehsPerHour="46.85959834535037"/>
  <flow id="JF157556" begin="0" fromJunction="J7" toJunction="J6" end="5000" vehsPerHour="138.32273526050017"/>
  <flow id="JF157557" begin="0" fromJunction="J7" toJunction="J4" end="5000" vehsPerHour="118.90588671949926"/>
  <flow id="JF157558" begin="0" fromJunction="J7" toJunction="J5" end="5000" vehsPerHour="106.56746390023048"/>
  <flow id="JF157559" begin="0" fromJunction="J5" toJunction="J6" end="5000" vehsPerHour="50.97227000470736"/>
  <flow id="JF157560" begin="0" fromJunction="J5" toJunction="J4" end="5000" vehsPerHour="247.71939571296443"/>
  <flow id="JF157561" begin="0" fromJunction="J5" toJunction="J7" end="5000" vehsPerHour="4.086573813934216"/>
  <flow id="JF157562" begin="0" fromJunction="J6" toJunction="J0" end="5000" vehsPerHour="62.34316337094818"/>
  <flow id="JF157563" begin="0" fromJunction="J6" toJunction="J3" end="5000" vehsPerHour="21.182817167413628"/>
  <flow id="JF157564" begin="0" fromJunction="J4" toJunction="J0" end="5000" vehsPerHour="60.565043771349636"/>
  <flow id="JF157565" begin="0" fromJunction="J4" toJunction="J3" end="5000" vehsPerHour="53.68159041683259"/>
  <flow id="JF157566" begin="0" fromJunction="J7" toJunction="J0" end="5000" vehsPerHour="7.346882024136824"/>
  <flow id="JF157567" begin="0" fromJunction="J7" toJunction="J3" end="5000" vehsPerHour="58.7541765236751"/>
  <flow id="JF157568" begin="0" fromJunction="J5" toJunction="J0" end="5000" vehsPerHour="20.008125770188308"/>
  <flow id="JF157569" begin="0" fromJunction="J5" toJunction="J3" end="5000" vehsPerHour="50.39144177096625"/>
  <flow id="JF157570" begin="5000" fromJunction="J0" toJunction="J3" end="5060" vehsPerHour="365.3181301411426"/>
  <flow id="JF157571" begin="5000" fromJunction="J3" toJunction="J0" end="5060" vehsPerHour="291.08634736990945"/>
  <flow id="JF157572" begin="5000" fromJunction="J0" toJunction="J6" end="5060" vehsPerHour="64.8267571144704"/>
  <flow id="JF157573" begin="5000" fromJunction="J0" toJunction="J4" end="5060" vehsPerHour="34.95175979020887"/>
  <flow id="JF157574" begin="5000" fromJunction="J0" toJunction="J7" end="5060" vehsPerHour="130.90334704900746"/>
  <flow id="JF157575" begin="5000" fromJunction="J0" toJunction="J5" end="5060" vehsPerHour="131.94354577502347"/>
  <flow id="JF157576" begin="5000" fromJunction="J3" toJunction="J6" end="5060" vehsPerHour="127.60982542852516"/>
  <flow id="JF157577" begin="5000" fromJunction="J3" toJunction="J4" end="5060" vehsPerHour="74.22105974815688"/>
  <flow id="JF157578" begin="5000" fromJunction="J3" toJunction="J7" end="5060" vehsPerHour="129.36448661792514"/>
  <flow id="JF157579" begin="5000" fromJunction="J3" toJunction="J5" end="5060" vehsPerHour="67.91586484868641"/>
  <flow id="JF157580" begin="5060" fromJunction="J0" toJunction="J3" end="5120" vehsPerHour="509.2378233567546"/>
  <flow id="JF157581" begin="5060" fromJunction="J3" toJunction="J0" end="5120" vehsPerHour="118.80223499102047"/>
  <flow id="JF157582" begin="5060" fromJunction="J0" toJunction="J6" end="5120" vehsPerHour="47.481314360561235"/>
  <flow id="JF157583" begin="5060" fromJunction="J0" toJunction="J4" end="5120" vehsPerHour="92.6117964980572"/>
  <flow id="JF157584" begin="5060" fromJunction="J0" toJunction="J7" end="5120" vehsPerHour="22.522205184315716"/>
  <flow id="JF157585" begin="5060" fromJunction="J0" toJunction="J5" end="5120" vehsPerHour="17.67190888780059"/>
  <flow id="JF157586" begin="5060" fromJunction="J3" toJunction="J6" end="5120" vehsPerHour="70.06530739493202"/>
  <flow id="JF157587" begin="5060" fromJunction="J3" toJunction="J4" end="5120" vehsPerHour="19.471935599143283"/>
  <flow id="JF157588" begin="5060" fromJunction="J3" toJunction="J7" end="5120" vehsPerHour="5.674701150223357"/>
  <flow id="JF157589" begin="5060" fromJunction="J3" toJunction="J5" end="5120" vehsPerHour="112.15723649507292"/>
  <flow id="JF157590" begin="5060" fromJunction="J6" toJunction="J4" end="5120" vehsPerHour="54.48489560878621"/>
  <flow id="JF157591" begin="5060" fromJunction="J6" toJunction="J7" end="5120" vehsPerHour="28.402269394138948"/>
  <flow id="JF157592" begin="5060" fromJunction="J6" toJunction="J5" end="5120" vehsPerHour="63.65723246562173"/>
  <flow id="JF157593" begin="5060" fromJunction="J4" toJunction="J6" end="5120" vehsPerHour="16.61395388276766"/>
  <flow id="JF157594" begin="5060" fromJunction="J4" toJunction="J7" end="5120" vehsPerHour="57.39634567855591"/>
  <flow id="JF157595" begin="5060" fromJunction="J4" toJunction="J5" end="5120" vehsPerHour="12.934464671088685"/>
  <flow id="JF157596" begin="5060" fromJunction="J7" toJunction="J6" end="5120" vehsPerHour="33.43638733683051"/>
  <flow id="JF157597" begin="5060" fromJunction="J7" toJunction="J4" end="5120" vehsPerHour="20.89264431432854"/>
  <flow id="JF157598" begin="5060" fromJunction="J7" toJunction="J5" end="5120" vehsPerHour="2.75664989296643"/>
  <flow id="JF157599" begin="5060" fromJunction="J5" toJunction="J6" end="5120" vehsPerHour="39.140537302702036"/>
  <flow id="JF157600" begin="5060" fromJunction="J5" toJunction="J4" end="5120" vehsPerHour="48.884523523967275"/>
  <flow id="JF157601" begin="5060" fromJunction="J5" toJunction="J7" end="5120" vehsPerHour="50.20952123282649"/>
  <flow id="JF157602" begin="5060" fromJunction="J6" toJunction="J0" end="5120" vehsPerHour="61.665015399482435"/>
  <flow id="JF157603" begin="5060" fromJunction="J6" toJunction="J3" end="5120" vehsPerHour="46.96501561898851"/>
  <flow id="JF157604" begin="5060" fromJunction="J4" toJunction="J0" end="5120" vehsPerHour="15.906160105857339"/>
  <flow id="JF157605" begin="5060" fromJunction="J4" toJunction="J3" end="5120" vehsPerHour="24.06705161530624"/>
  <flow id="JF157606" begin="5060" fromJunction="J7" toJunction="J0" end="5120" vehsPerHour="57.18362322707848"/>
  <flow id="JF157607" begin="5060" fromJunction="J7" toJunction="J3" end="5120" vehsPerHour="9.756149633682275"/>
  <flow id="JF157608" begin="5060" fromJunction="J5" toJunction="J0" end="5120" vehsPerHour="59.10128827217199"/>
  <flow id="JF157609" begin="5060" fromJunction="J5" toJunction="J3" end="5120" vehsPerHour="44.61024544005943"/>
  <flow id="JF157610" begin="5120" fromJunction="J0" toJunction="J3" end="5180" vehsPerHour="40.258623459701525"/>
  <flow id="JF157611" begin="5120" fromJunction="J3" toJunction="J0" end="5180" vehsPerHour="1.825857324131999"/>
  <flow id="JF157612" begin="5120" fromJunction="J0" toJunction="J6" end="5180" vehsPerHour="83.3338366000027"/>
  <flow id="JF157613" begin="5120" fromJunction="J0" toJunction="J4" end="5180" vehsPerHour="12.429830213665708"/>
  <flow id="JF157614" begin="5120" fromJunction="J0" toJunction="J7" end="5180" vehsPerHour="90.63224586563393"/>
  <flow id="JF157615" begin="5120" fromJunction="J0" toJunction="J5" end="5180" vehsPerHour="125.26219718049501"/>
  <flow id="JF157616" begin="5120" fromJunction="J3" toJunction="J6" end="5180" vehsPerHour="56.51001552597181"/>
  <flow id="JF157617" begin="5120" fromJunction="J3" toJunction="J4" end="5180" vehsPerHour="47.46075097848785"/>
  <flow id="JF157618" begin="5120" fromJunction="J3" toJunction="J7" end="5180" vehsPerHour="83.69992770044351"/>
  <flow id="JF157619" begin="5120" fromJunction="J3" toJunction="J5" end="5180" vehsPerHour="103.15303314943048"/>
  <flow id="JF157620" begin="5180" fromJunction="J0" toJunction="J3" end="5240" vehsPerHour="295.7066341626685"/>
  <flow id="JF157621" begin="5180" fromJunction="J3" toJunction="J0" end="5240" vehsPerHour="543.5568771788805"/>
  <flow id="JF157622" begin="5180" fromJunction="J0" toJunction="J6" end="5240" vehsPerHour="92.30574153971021"/>
  <flow id="JF157623" begin="5180" fromJunction="J0" toJunction="J4" end="5240" vehsPerHour="85.74341264941528"/>
  <flow id="JF157624" begin="5180" fromJunction="J0" toJunction="J7" end="5240" vehsPerHour="0.6741918722912089"/>
  <flow id="JF157625" begin="5180" fromJunction="J0" toJunction="J5" end="5240" vehsPerHour="82.02841254759515"/>
  <flow id="JF157626" begin="5180" fromJunction="J3" toJunction="J6" end="5240" vehsPerHour="55.037785671787596"/>
  <flow id="JF157627" begin="5180" fromJunction="J3" toJunction="J4" end="5240" vehsPerHour="118.022610390855"/>
  <flow id="JF157628" begin="5180" fromJunction="J3" toJunction="J7" end="5240" vehsPerHour="124.1136809546167"/>
  <flow id="JF157629" begin="5180" fromJunction="J3" toJunction="J5" end="5240" vehsPerHour="124.12096480002008"/>
  <flow id="JF157630" begin="5180" fromJunction="J6" toJunction="J4" end="5240" vehsPerHour="11.913115296992158"/>
  <flow id="JF157631" begin="5180" fromJunction="J6" toJunction="J7" end="5240" vehsPerHour="64.24945124248208"/>
  <flow id="JF157632" begin="5180" fromJunction="J6" toJunction="J5" end="5240" vehsPerHour="59.67809596759024"/>
  <flow id="JF157633" begin="5180" fromJunction="J4" toJunction="J6" end="5240" vehsPerHour="47.752518156390515"/>
  <flow id="JF157634" begin="5180" fromJunction="J4" toJunction="J7" end="5240" vehsPerHour="28.096545652684938"/>
  <flow id="JF157635" begin="5180" fromJunction="J4" toJunction="J5" end="5240" vehsPerHour="39.776464818475404"/>
  <flow id="JF157636" begin="5180" fromJunction="J7" toJunction="J6" end="5240" vehsPerHour="0.9835721768439224"/>
  <flow id="JF157637" begin="5180" fromJunction="J7" toJunction="J4" end="5240" vehsPerHour="31.150111679483427"/>
  <flow id="JF157638" begin="5180" fromJunction="J7" toJunction="J5" end="5240" vehsPerHour="61.03595101769677"/>
  <flow id="JF157639" begin="5180" fromJunction="J5" toJunction="J6" end="5240" vehsPerHour="22.09442081411204"/>
  <flow id="JF157640" begin="5180" fromJunction="J5" toJunction="J4" end="5240" vehsPerHour="67.85795204935746"/>
  <flow id="JF157641" begin="5180" fromJunction="J5" toJunction="J7" end="5240" vehsPerHour="24.420264419446394"/>
  <flow id="JF157642" begin="5180" fromJunction="J6" toJunction="J0" end="5240" vehsPerHour="25.909436518306688"/>
  <flow id="JF157643" begin="5180" fromJunction="J6" toJunction="J3" end="5240" vehsPerHour="35.37488381962631"/>
  <flow id="JF157644" begin="5180" fromJunction="J4" toJunction="J0" end="5240" vehsPerHour="41.30559524440659"/>
  <flow id="JF157645" begin="5180" fromJunction="J4" toJunction="J3" end="5240" vehsPerHour="59.362455926920696"/>
  <flow id="JF157646" begin="5180" fromJunction="J7" toJunction="J0" end="5240" vehsPerHour="12.931814211248263"/>
  <flow id="JF157647" begin="5180" fromJunction="J7" toJunction="J3" end="5240" vehsPerHour="9.96912227915788"/>
  <flow id="JF157648" begin="5180" fromJunction="J5" toJunction="J0" end="5240" vehsPerHour="31.284632049417624"/>
  <flow id="JF157649" begin="5180" fromJunction="J5" toJunction="J3" end="5240" vehsPerHour="30.739824404462123"/>
  <flow id="JF157650" begin="5240" fromJunction="J0" toJunction="J3" end="5300" vehsPerHour="140.77634745605408"/>
  <flow id="JF157651" begin="5240" fromJunction="J3" toJunction="J0" end="5300" vehsPerHour="237.80178353362257"/>
  <flow id="JF157652" begin="5240" fromJunction="J0" toJunction="J6" end="5300" vehsPerHour="45.38002280247823"/>
  <flow id="JF157653" begin="5240" fromJunction="J0" toJunction="J4" end="5300" vehsPerHour="114.1619684200081"/>
  <flow id="JF157654" begin="5240" fromJunction="J0" toJunction="J7" end="5300" vehsPerHour="34.65708293999322"/>
  <flow id="JF157655" begin="5240" fromJunction="J0" toJunction="J5" end="5300" vehsPerHour="51.382526775065195"/>
  <flow id="JF157656" begin="5240" fromJunction="J3" toJunction="J6" end="5300" vehsPerHour="20.06866392383216"/>
  <flow id="JF157657" begin="5240" fromJunction="J3" toJunction="J4" end="5300" vehsPerHour="39.77446923435586"/>
  <flow id="JF157658" begin="5240" fromJunction="J3" toJunction="J7" end="5300" vehsPerHour="68.8977891466117"/>
  <flow id="JF157659" begin="5240" fromJunction="J3" toJunction="J5" end="5300" vehsPerHour="47.25919891839588"/>
  <flow id="JF157660" begin="5300" fromJunction="J0" toJunction="J3" end="5360" vehsPerHour="389.7342986683461"/>
  <flow id="JF157661" begin="5300" fromJunction="J3" toJunction="J0" end="5360" vehsPerHour="271.37441995409876"/>
  <flow id="JF157662" begin="5300" fromJunction="J0" toJunction="J6" end="5360" vehsPerHour="34.08565454369376"/>
  <flow id="JF157663" begin="5300" fromJunction="J0" toJunction="J4" end="5360" vehsPerHour="24.532642039034485"/>
  <flow id="JF157664" begin="5300" fromJunction="J0" toJunction="J7" end="5360" vehsPerHour="117.92053630727348"/>
  <flow id="JF157665" begin="5300" fromJunction="J0" toJunction="J5" end="5360" vehsPerHour="93.92123462905259"/>
  <flow id="JF157666" begin="5300" fromJunction="J3" toJunction="J6" end="5360" vehsPerHour="113.23360893960415"/>
  <flow id="JF157667" begin="5300" fromJunction="J3" toJunction="J4" end="5360" vehsPerHour="6.209501402734802"/>
  <flow id="JF157668" begin="5300" fromJunction="J3" toJunction="J7" end="5360" vehsPerHour="5.737906559636178"/>
  <flow id="JF157669" begin="5300" fromJunction="J3" toJunction="J5" end="5360" vehsPerHour="17.616855331539973"/>
  <flow id="JF157670" begin="5300" fromJunction="J6" toJunction="J4" end="5360" vehsPerHour="57.608459007808555"/>
  <flow id="JF157671" begin="5300" fromJunction="J6" toJunction="J7" end="5360" vehsPerHour="12.676570351514885"/>
  <flow id="JF157672" begin="5300" fromJunction="J6" toJunction="J5" end="5360" vehsPerHour="68.54399939414384"/>
  <flow id="JF157673" begin="5300" fromJunction="J4" toJunction="J6" end="5360" vehsPerHour="39.722305565647815"/>
  <flow id="JF157674" begin="5300" fromJunction="J4" toJunction="J7" end="5360" vehsPerHour="47.320263311519724"/>
  <flow id="JF157675" begin="5300" fromJunction="J4" toJunction="J5" end="5360" vehsPerHour="46.817375274194035"/>
  <flow id="JF157676" begin="5300" fromJunction="J7" toJunction="J6" end="5360" vehsPerHour="43.28977038867126"/>
  <flow id="JF157677" begin="5300" fromJunction="J7" toJunction="J4" end="5360" vehsPerHour="53.50859129585828"/>
  <flow id="JF157678" begin="5300" fromJunction="J7" toJunction="J5" end="5360" vehsPerHour="6.473483068429974"/>
  <flow id="JF157679" begin="5300" fromJunction="J5" toJunction="J6" end="5360" vehsPerHour="52.54351018651864"/>
  <flow id="JF157680" begin="5300" fromJunction="J5" toJunction="J4" end="5360" vehsPerHour="7.252338666603827"/>
  <flow id="JF157681" begin="5300" fromJunction="J5" toJunction="J7" end="5360" vehsPerHour="45.780417163560315"/>
  <flow id="JF157682" begin="5300" fromJunction="J6" toJunction="J0" end="5360" vehsPerHour="46.79583057421922"/>
  <flow id="JF157683" begin="5300" fromJunction="J6" toJunction="J3" end="5360" vehsPerHour="65.71551434629453"/>
  <flow id="JF157684" begin="5300" fromJunction="J4" toJunction="J0" end="5360" vehsPerHour="5.185993254174052"/>
  <flow id="JF157685" begin="5300" fromJunction="J4" toJunction="J3" end="5360" vehsPerHour="46.35115452719293"/>
  <flow id="JF157686" begin="5300" fromJunction="J7" toJunction="J0" end="5360" vehsPerHour="29.870561700416104"/>
  <flow id="JF157687" begin="5300" fromJunction="J7" toJunction="J3" end="5360" vehsPerHour="50.92496990406543"/>
  <flow id="JF157688" begin="5300" fromJunction="J5" toJunction="J0" end="5360" vehsPerHour="8.692989139580838"/>
  <flow id="JF157689" begin="5300" fromJunction="J5" toJunction="J3" end="5360" vehsPerHour="39.992124159374"/>
  <flow id="JF157690" begin="5360" fromJunction="J0" toJunction="J3" end="5420" vehsPerHour="24.596029441850533"/>
  <flow id="JF157691" begin="5360" fromJunction="J3" toJunction="J0" end="5420" vehsPerHour="97.41472598374736"/>
  <flow id="JF157692" begin="5360" fromJunction="J0" toJunction="J6" end="5420" vehsPerHour="65.04737279792158"/>
  <flow id="JF157693" begin="5360" fromJunction="J0" toJunction="J4" end="5420" vehsPerHour="116.67458835642962"/>
  <flow id="JF157694" begin="5360" fromJunction="J0" toJunction="J7" end="5420" vehsPerHour="3.4015083812060154"/>
  <flow id="JF157695" begin="5360" fromJunction="J0" toJunction="J5" end="5420" vehsPerHour="109.91061600653263"/>
  <flow id="JF157696" begin="5360" fromJunction="J3" toJunction="J6" end="5420" vehsPerHour="99.21812148505278"/>
  <flow id="JF157697" begin="5360" fromJunction="J3" toJunction="J4" end="5420" vehsPerHour="87.50480270757355"/>
  <flow id="JF157698" begin="5360" fromJunction="J3" toJunction="J7" end="5420" vehsPerHour="93.62464150304977"/>
  <flow id="JF157699" begin="5360" fromJunction="J3" toJunction="J5" end="5420" vehsPerHour="26.97669486888984"/>
  <flow id="JF157700" begin="5360" fromJunction="J6" toJunction="J4" end="5420" vehsPerHour="65.21059602248103"/>
  <flow id="JF157701" begin="5360" fromJunction="J6" toJunction="J7" end="5420" vehsPerHour="64.20337104860951"/>
  <flow id="JF157702" begin="5360" fromJunction="J6" toJunction="J5" end="5420" vehsPerHour="1.742849807596666"/>
  <flow id="JF157703" begin="5360" fromJunction="J4" toJunction="J6" end="5420" vehsPerHour="53.00173881907073"/>
  <flow id="JF157704" begin="5360" fromJunction="J4" toJunction="J7" end="5420" vehsPerHour="13.712254461482699"/>
  <flow id="JF157705" begin="5360" fromJunction="J4" toJunction="J5" end="5420" vehsPerHour="1.8755236645027498"/>
  <flow id="JF157706" begin="5360" fromJunction="J7" toJunction="J6" end="5420" vehsPerHour="53.20238222681918"/>
  <flow id="JF157707" begin="5360" fromJunction="J7" toJunction="J4" end="5420" vehsPerHour="26.784428187530004"/>
  <flow id="JF157708" begin="5360" fromJunction="J7" toJunction="J5" end="5420" vehsPerHour="21.323987188468685"/>
  <flow id="JF157709" begin="5360" fromJunction="J5" toJunction="J6" end="5420" vehsPerHour="37.06772672561787"/>
  <flow id="JF157710" begin="5360" fromJunction="J5" toJunction="J4" end="5420" vehsPerHour="37.48780059812672"/>
  <flow id="JF157711" begin="5360" fromJunction="J5" toJunction="J7" end="5420" vehsPerHour="49.4029285901789"/>
  <flow id="JF157712" begin="5360" fromJunction="J6" toJunction="J0" end="5420" vehsPerHour="31.429496207511736"/>
  <flow id="JF157713" begin="5360" fromJunction="J6" toJunction="J3" end="5420" vehsPerHour="28.898052478165173"/>
  <flow id="JF157714" begin="5360" fromJunction="J4" toJunction="J0" end="5420" vehsPerHour="62.54805345006669"/>
  <flow id="JF157715" begin="5360" fromJunction="J4" toJunction="J3" end="5420" vehsPerHour="45.713166930842256"/>
  <flow id="JF157716" begin="5360" fromJunction="J7" toJunction="J0" end="5420" vehsPerHour="43.02362050248307"/>
  <flow id="JF157717" begin="5360" fromJunction="J7" toJunction="J3" end="5420" vehsPerHour="62.09992052926764"/>
  <flow id="JF157718" begin="5360" fromJunction="J5" toJunction="J0" end="5420" vehsPerHour="26.054655459488504"/>
  <flow id="JF157719" begin="5360" fromJunction="J5" toJunction="J3" end="5420" vehsPerHour="10.079076541533766"/>
  <flow id="JF157720" begin="5420" fromJunction="J0" toJunction="J3" end="5480" vehsPerHour="301.47899716198174"/>
  <flow id="JF157721" begin="5420" fromJunction="J3" toJunction="J0" end="5480" vehsPerHour="387.9062808704537"/>
  <flow id="JF157722" begin="5420" fromJunction="J0" toJunction="J6" end="5480" vehsPerHour="78.98843379249247"/>
  <flow id="JF157723" begin="5420" fromJunction="J0" toJunction="J4" end="5480" vehsPerHour="41.05054105957587"/>
  <flow id="JF157724" begin="5420" fromJunction="J0" toJunction="J7" end="5480" vehsPerHour="79.51604528114055"/>
  <flow id="JF157725" begin="5420" fromJunction="J0" toJunction="J5" end="5480" vehsPerHour="42.96291189390919"/>
  <flow id="JF157726" begin="5420" fromJunction="J3" toJunction="J6" end="5480" vehsPerHour="115.7777115939475"/>
  <flow id="JF157727" begin="5420" fromJunction="J3" toJunction="J4" end="5480" vehsPerHour="46.28517989634148"/>
  <flow id="JF157728" begin="5420" fromJunction="J3" toJunction="J7" end="5480" vehsPerHour="126.17159973642106"/>
  <flow id="JF157729" begin="5420" fromJunction="J3" toJunction="J5" end="5480" vehsPerHour="36.38056873360948"/>
  <flow id="JF157730" begin="5420" fromJunction="J6" toJunction="J4" end="5480" vehsPerHour="17.13284924415156"/>
  <flow id="JF157731" begin="5420" fromJunction="J6" toJunction="J7" end="5480" vehsPerHour="58.940668772284305"/>
  <flow id="JF157732" begin="5420" fromJunction="J6" toJunction="J5" end="5480" vehsPerHour="27.630676117144414"/>
  <flow id="JF157733" begin="5420" fromJunction="J4" toJunction="J6" end="5480" vehsPerHour="34.32429102890893"/>
  <flow id="JF157734" begin="5420" fromJunction="J4" toJunction="J7" end="5480" vehsPerHour="0.06325428337104409"/>
  <flow id="JF157735" begin="5420" fromJunction="J4" toJunction="J5" end="5480" vehsPerHour="14.523476846584291"/>
  <flow id="JF157736" begin="5420" fromJunction="J7" toJunction="J6" end="5480" vehsPerHour="23.001529850296542"/>
  <flow id="JF157737" begin="5420" fromJunction="J7" toJunction="J4" end="5480" vehsPerHour="53.497230629134776"/>
  <flow id="JF157738" begin="5420" fromJunction="J7" toJunction="J5" end="5480" vehsPerHour="5.50026680626715"/>
  <flow id="JF157739" begin="5420" fromJunction="J5" toJunction="J6" end="5480" vehsPerHour="2.553052810769758"/>
  <flow id="JF157740" begin="5420" fromJunction="J5" toJunction="J4" end="5480" vehsPerHour="28.09907300546352"/>
  <flow id="JF157741" begin="5420" fromJunction="J5" toJunction="J7" end="5480" vehsPerHour="19.52364906455707"/>
  <flow id="JF157742" begin="5420" fromJunction="J6" toJunction="J0" end="5480" vehsPerHour="57.51466877909934"/>
  <flow id="JF157743" begin="5420" fromJunction="J6" toJunction="J3" end="5480" vehsPerHour="63.99537738695173"/>
  <flow id="JF157744" begin="5420" fromJunction="J4" toJunction="J0" end="5480" vehsPerHour="12.356673576634526"/>
  <flow id="JF157745" begin="5420" fromJunction="J4" toJunction="J3" end="5480" vehsPerHour="26.19116890496963"/>
  <flow id="JF157746" begin="5420" fromJunction="J7" toJunction="J0" end="5480" vehsPerHour="47.87699027656074"/>
  <flow id="JF157747" begin="5420" fromJunction="J7" toJunction="J3" end="5480" vehsPerHour="16.417214678092094"/>
  <flow id="JF157748" begin="5420" fromJunction="J5" toJunction="J0" end="5480" vehsPerHour="5.247786100497665"/>
  <flow id="JF157749" begin="5420" fromJunction="J5" toJunction="J3" end="5480" vehsPerHour="52.02493716775415"/>
  <flow id="JF157750" begin="5480" fromJunction="J0" toJunction="J3" end="5540" vehsPerHour="486.9511267827069"/>
  <flow id="JF157751" begin="5480" fromJunction="J3" toJunction="J0" end="5540" vehsPerHour="78.74122523395262"/>
  <flow id="JF157752" begin="5480" fromJunction="J0" toJunction="J6" end="5540" vehsPerHour="31.997972287637253"/>
  <flow id="JF157753" begin="5480" fromJunction="J0" toJunction="J4" end="5540" vehsPerHour="96.19701628300552"/>
  <flow id="JF157754" begin="5480" fromJunction="J0" toJunction="J7" end="5540" vehsPerHour="96.69643347763297"/>
  <flow id="JF157755" begin="5480" fromJunction="J0" toJunction="J5" end="5540" vehsPerHour="92.55498273684437"/>
  <flow id="JF157756" begin="5480" fromJunction="J3" toJunction="J6" end="5540" vehsPerHour="98.40018056610114"/>
  <flow id="JF157757" begin="5480" fromJunction="J3" toJunction="J4" end="5540" vehsPerHour="17.624110261894653"/>
  <flow id="JF157758" begin="5480" fromJunction="J3" toJunction="J7" end="5540" vehsPerHour="103.8773616820748"/>
  <flow id="JF157759" begin="5480" fromJunction="J3" toJunction="J5" end="5540" vehsPerHour="129.55585629039302"/>
  <flow id="JF157760" begin="5480" fromJunction="J6" toJunction="J4" end="5540" vehsPerHour="8.697393319661257"/>
  <flow id="JF157761" begin="5480" fromJunction="J6" toJunction="J7" end="5540" vehsPerHour="0.8674824139623393"/>
  <flow id="JF157762" begin="5480" fromJunction="J6" toJunction="J5" end="5540" vehsPerHour="42.61084767959001"/>
  <flow id="JF157763" begin="5480" fromJunction="J4" toJunction="J6" end="5540" vehsPerHour="3.2058862733865965"/>
  <flow id="JF157764" begin="5480" fromJunction="J4" toJunction="J7" end="5540" vehsPerHour="59.43023257257706"/>
  <flow id="JF157765" begin="5480" fromJunction="J4" toJunction="J5" end="5540" vehsPerHour="42.08016761918841"/>
  <flow id="JF157766" begin="5480" fromJunction="J7" toJunction="J6" end="5540" vehsPerHour="33.27441465844855"/>
  <flow id="JF157767" begin="5480" fromJunction="J7" toJunction="J4" end="5540" vehsPerHour="9.658799102130022"/>
  <flow id="JF157768" begin="5480" fromJunction="J7" toJunction="J5" end="5540" vehsPerHour="60.837257528471675"/>
  <flow id="JF157769" begin="5480" fromJunction="J5" toJunction="J6" end="5540" vehsPerHour="36.557073195004754"/>
  <flow id="JF157770" begin="5480" fromJunction="J5" toJunction="J4" end="5540" vehsPerHour="60.53482492813533"/>
  <flow id="JF157771" begin="5480" fromJunction="J5" toJunction="J7" end="5540" vehsPerHour="7.508785212622382"/>
  <flow id="JF157772" begin="5480" fromJunction="J6" toJunction="J0" end="5540" vehsPerHour="49.65894127951674"/>
  <flow id="JF157773" begin="5480" fromJunction="J6" toJunction="J3" end="5540" vehsPerHour="21.792308626103036"/>
  <flow id="JF157774" begin="5480" fromJunction="J4" toJunction="J0" end="5540" vehsPerHour="6.694775675643296"/>
  <flow id="JF157775" begin="5480" fromJunction="J4" toJunction="J3" end="5540" vehsPerHour="46.48920896275717"/>
  <flow id="JF157776" begin="5480" fromJunction="J7" toJunction="J0" end="5540" vehsPerHour="25.618301867331454"/>
  <flow id="JF157777" begin="5480" fromJunction="J7" toJunction="J3" end="5540" vehsPerHour="35.121183787887205"/>
  <flow id="JF157778" begin="5480" fromJunction="J5" toJunction="J0" end="5540" vehsPerHour="40.412031154508355"/>
  <flow id="JF157779" begin="5480" fromJunction="J5" toJunction="J3" end="5540" vehsPerHour="58.0281837889666"/>
  <flow id="JF157780" begin="5540" fromJunction="J0" toJunction="J3" end="5600" vehsPerHour="163.57916641321634"/>
  <flow id="JF157781" begin="5540" fromJunction="J3" toJunction="J0" end="5600" vehsPerHour="234.82891947225036"/>
  <flow id="JF157782" begin="5540" fromJunction="J0" toJunction="J6" end="5600" vehsPerHour="74.71474386583523"/>
  <flow id="JF157783" begin="5540" fromJunction="J0" toJunction="J4" end="5600" vehsPerHour="108.87674812978511"/>
  <flow id="JF157784" begin="5540" fromJunction="J0" toJunction="J7" end="5600" vehsPerHour="85.9833344091425"/>
  <flow id="JF157785" begin="5540" fromJunction="J0" toJunction="J5" end="5600" vehsPerHour="72.94799076297154"/>
  <flow id="JF157786" begin="5540" fromJunction="J3" toJunction="J6" end="5600" vehsPerHour="25.9868896657436"/>
  <flow id="JF157787" begin="5540" fromJunction="J3" toJunction="J4" end="5600" vehsPerHour="48.442094474218"/>
  <flow id="JF157788" begin="5540" fromJunction="J3" toJunction="J7" end="5600" vehsPerHour="105.64896156033936"/>
  <flow id="JF157789" begin="5540" fromJunction="J3" toJunction="J5" end="5600" vehsPerHour="114.01954640539343"/>
  <flow id="JF157790" begin="5600" fromJunction="J0" toJunction="J3" end="5660" vehsPerHour="438.35825688255835"/>
  <flow id="JF157791" begin="5600" fromJunction="J3" toJunction="J0" end="5660" vehsPerHour="463.7480939392293"/>
  <flow id="JF157792" begin="5600" fromJunction="J0" toJunction="J6" end="5660" vehsPerHour="129.4930629083761"/>
  <flow id="JF157793" begin="5600" fromJunction="J0" toJunction="J4" end="5660" vehsPerHour="19.851924489106217"/>
  <flow id="JF157794" begin="5600" fromJunction="J0" toJunction="J7" end="5660" vehsPerHour="41.85294146770377"/>
  <flow id="JF157795" begin="5600" fromJunction="J0" toJunction="J5" end="5660" vehsPerHour="132.76099399347507"/>
  <flow id="JF157796" begin="5600" fromJunction="J3" toJunction="J6" end="5660" vehsPerHour="105.62091262794577"/>
  <flow id="JF157797" begin="5600" fromJunction="J3" toJunction="J4" end="5660" vehsPerHour="131.69547843978455"/>
  <flow id="JF157798" begin="5600" fromJunction="J3" toJunction="J7" end="5660" vehsPerHour="107.32413671743889"/>
  <flow id="JF157799" begin="5600" fromJunction="J3" toJunction="J5" end="5660" vehsPerHour="133.60100633868228"/>
  <flow id="JF157800" begin="5600" fromJunction="J6" toJunction="J4" end="5660" vehsPerHour="53.64818901517513"/>