<?xml version="1.0" encoding="UTF-8"?>
<routes xmlns:xsi="http://www.w3.org/2001/XMLSchema-instance" xsi:noNamespaceSchemaLocation="http://sumo.dlr.de/xsd/routes_file.xsd">
  <flow id="JF151580" begin="0" fromJunction="J0" toJunction="J3" end="5000" vehsPerHour="769.3319610233458"/>
  <flow id="JF151581" begin="0" fromJunction="J3" toJunction="J0" end="5000" vehsPerHour="692.012355783005"/>
  <flow id="JF151582" begin="0" fromJunction="J0" toJunction="J6" end="5000" vehsPerHour="134.25710756644204"/>
  <flow id="JF151583" begin="0" fromJunction="J0" toJunction="J4" end="5000" vehsPerHour="47.21945135361857"/>
  <flow id="JF151584" begin="0" fromJunction="J0" toJunction="J7" end="5000" vehsPerHour="95.23756758975348"/>
  <flow id="JF151585" begin="0" fromJunction="J0" toJunction="J5" end="5000" vehsPerHour="37.02572351907223"/>
  <flow id="JF151586" begin="0" fromJunction="J3" toJunction="J6" end="5000" vehsPerHour="130.145141992778"/>
  <flow id="JF151587" begin="0" fromJunction="J3" toJunction="J4" end="5000" vehsPerHour="78.09184436133421"/>
  <flow id="JF151588" begin="0" fromJunction="J3" toJunction="J7" end="5000" vehsPerHour="2.4406285957069773"/>
  <flow id="JF151589" begin="0" fromJunction="J3" toJunction="J5" end="5000" vehsPerHour="22.893623086179097"/>
  <flow id="JF151590" begin="0" fromJunction="J6" toJunction="J4" end="5000" vehsPerHour="90.71039504889545"/>
  <flow id="JF151591" begin="0" fromJunction="J6" toJunction="J7" end="5000" vehsPerHour="100.54444963291401"/>
  <flow id="JF151592" begin="0" fromJunction="J6" toJunction="J5" end="5000" vehsPerHour="47.15842979820112"/>
  <flow id="JF151593" begin="0" fromJunction="J4" toJunction="J6" end="5000" vehsPerHour="244.33821037806976"/>
  <flow id="JF151594" begin="0" fromJunction="J4" toJunction="J7" end="5000" vehsPerHour="185.3273504266024"/>
  <flow id="JF151595" begin="0" fromJunction="J4" toJunction="J5" end="5000" vehsPerHour="175.0896118604104"/>
  <flow id="JF151596" begin="0" fromJunction="J7" toJunction="J6" end="5000" vehsPerHour="55.419522291932445"/>
  <flow id="JF151597" begin="0" fromJunction="J7" toJunction="J4" end="5000" vehsPerHour="271.38786407592266"/>
  <flow id="JF151598" begin="0" fromJunction="J7" toJunction="J5" end="5000" vehsPerHour="4.928147995820992"/>
  <flow id="JF151599" begin="0" fromJunction="J5" toJunction="J6" end="5000" vehsPerHour="91.90297858340979"/>
  <flow id="JF151600" begin="0" fromJunction="J5" toJunction="J4" end="5000" vehsPerHour="175.9526477958617"/>
  <flow id="JF151601" begin="0" fromJunction="J5" toJunction="J7" end="5000" vehsPerHour="62.21673952049618"/>
  <flow id="JF151602" begin="0" fromJunction="J6" toJunction="J0" end="5000" vehsPerHour="52.048618893986266"/>
  <flow id="JF151603" begin="0" fromJunction="J6" toJunction="J3" end="5000" vehsPerHour="68.36371408243897"/>
  <flow id="JF151604" begin="0" fromJunction="J4" toJunction="J0" end="5000" vehsPerHour="47.27086994362557"/>
  <flow id="JF151605" begin="0" fromJunction="J4" toJunction="J3" end="5000" vehsPerHour="21.609569027661802"/>
  <flow id="JF151606" begin="0" fromJunction="J7" toJunction="J0" end="5000" vehsPerHour="49.49560518214096"/>
  <flow id="JF151607" begin="0" fromJunction="J7" toJunction="J3" end="5000" vehsPerHour="15.073616969497168"/>
  <flow id="JF151608" begin="0" fromJunction="J5" toJunction="J0" end="5000" vehsPerHour="29.2536878237299"/>
  <flow id="JF151609" begin="0" fromJunction="J5" toJunction="J3" end="5000" vehsPerHour="68.19547932915158"/>
  <flow id="JF151610" begin="5000" fromJunction="J0" toJunction="J3" end="5060" vehsPerHour="60.56050498893048"/>
  <flow id="JF151611" begin="5000" fromJunction="J3" toJunction="J0" end="5060" vehsPerHour="159.93949493855825"/>
  <flow id="JF151612" begin="5000" fromJunction="J0" toJunction="J6" end="5060" vehsPerHour="56.65306761664684"/>
  <flow id="JF151613" begin="5000" fromJunction="J0" toJunction="J4" end="5060" vehsPerHour="89.4421290648463"/>
  <flow id="JF151614" begin="5000" fromJunction="J0" toJunction="J7" end="5060" vehsPerHour="98.3258712032768"/>
  <flow id="JF151615" begin="5000" fromJunction="J0" toJunction="J5" end="5060" vehsPerHour="30.387571436285857"/>
  <flow id="JF151616" begin="5000" fromJunction="J3" toJunction="J6" end="5060" vehsPerHour="75.23485648085364"/>
  <flow id="JF151617" begin="5000" fromJunction="J3" toJunction="J4" end="5060" vehsPerHour="22.22914588058665"/>
  <flow id="JF151618" begin="5000" fromJunction="J3" toJunction="J7" end="5060" vehsPerHour="119.63118142301718"/>
  <flow id="JF151619" begin="5000" fromJunction="J3" toJunction="J5" end="5060" vehsPerHour="81.22474155412408"/>
  <flow id="JF151620" begin="5000" fromJunction="J6" toJunction="J4" end="5060" vehsPerHour="41.236991790375086"/>
  <flow id="JF151621" begin="5000" fromJunction="J6" toJunction="J7" end="5060" vehsPerHour="0.10200814648858608"/>
  <flow id="JF151622" begin="5000" fromJunction="J6" toJunction="J5" end="5060" vehsPerHour="4.428134693831642"/>
  <flow id="JF151623" begin="5000" fromJunction="J4" toJunction="J6" end="5060" vehsPerHour="35.083517962301755"/>
  <flow id="JF151624" begin="5000" fromJunction="J4" toJunction="J7" end="5060" vehsPerHour="7.1371742068048265"/>
  <flow id="JF151625" begin="5000" fromJunction="J4" toJunction="J5" end="5060" vehsPerHour="63.095926470181425"/>
  <flow id="JF151626" begin="5000" fromJunction="J7" toJunction="J6" end="5060" vehsPerHour="67.35165441859678"/>
  <flow id="JF151627" begin="5000" fromJunction="J7" toJunction="J4" end="5060" vehsPerHour="55.16379919484218"/>
  <flow id="JF151628" begin="5000" fromJunction="J7" toJunction="J5" end="5060" vehsPerHour="3.1528634070804165"/>
  <flow id="JF151629" begin="5000" fromJunction="J5" toJunction="J6" end="5060" vehsPerHour="34.40231781891162"/>
  <flow id="JF151630" begin="5000" fromJunction="J5" toJunction="J4" end="5060" vehsPerHour="31.907408722829583"/>
  <flow id="JF151631" begin="5000" fromJunction="J5" toJunction="J7" end="5060" vehsPerHour="64.88469829876341"/>
  <flow id="JF151632" begin="5000" fromJunction="J6" toJunction="J0" end="5060" vehsPerHour="36.63607657146259"/>
  <flow id="JF151633" begin="5000" fromJunction="J6" toJunction="J3" end="5060" vehsPerHour="30.066404847134155"/>
  <flow id="JF151634" begin="5000" fromJunction="J4" toJunction="J0" end="5060" vehsPerHour="24.360298004468312"/>
  <flow id="JF151635" begin="5000" fromJunction="J4" toJunction="J3" end="5060" vehsPerHour="9.049432698036584"/>
  <flow id="JF151636" begin="5000" fromJunction="J7" toJunction="J0" end="5060" vehsPerHour="59.64771918984267"/>
  <flow id="JF151637" begin="5000" fromJunction="J7" toJunction="J3" end="5060" vehsPerHour="64.91960080580294"/>
  <flow id="JF151638" begin="5000" fromJunction="J5" toJunction="J0" end="5060" vehsPerHour="6.262665903978532"/>
  <flow id="JF151639" begin="5000" fromJunction="J5" toJunction="J3" end="5060" vehsPerHour="31.725263835943988"/>
  <flow id="JF151640" begin="5060" fromJunction="J0" toJunction="J3" end="5120" vehsPerHour="411.5669136346484"/>
  <flow id="JF151641" begin="5060" fromJunction="J3" toJunction="J0" end="5120" vehsPerHour="408.0215815258369"/>
  <flow id="JF151642" begin="5060" fromJunction="J0" toJunction="J6" end="5120" vehsPerHour="18.3305258296739"/>
  <flow id="JF151643" begin="5060" fromJunction="J0" toJunction="J4" end="5120" vehsPerHour="43.93071336483928"/>
  <flow id="JF151644" begin="5060" fromJunction="J0" toJunction="J7" end="5120" vehsPerHour="9.68692109219458"/>
  <flow id="JF151645" begin="5060" fromJunction="J0" toJunction="J5" end="5120" vehsPerHour="61.43893527846526"/>
  <flow id="JF151646" begin="5060" fromJunction="J3" toJunction="J6" end="5120" vehsPerHour="120.59717725855252"/>
  <flow id="JF151647" begin="5060" fromJunction="J3" toJunction="J4" end="5120" vehsPerHour="117.50566983494258"/>
  <flow id="JF151648" begin="5060" fromJunction="J3" toJunction="J7" end="5120" vehsPerHour="92.69607713966165"/>
  <flow id="JF151649" begin="5060" fromJunction="J3" toJunction="J5" end="5120" vehsPerHour="94.43780905961486"/>
  <flow id="JF151650" begin="5060" fromJunction="J6" toJunction="J4" end="5120" vehsPerHour="35.63021557356199"/>
  <flow id="JF151651" begin="5060" fromJunction="J6" toJunction="J7" end="5120" vehsPerHour="32.97327031711681"/>
  <flow id="JF151652" begin="5060" fromJunction="J6" toJunction="J5" end="5120" vehsPerHour="54.96617894648065"/>
  <flow id="JF151653" begin="5060" fromJunction="J4" toJunction="J6" end="5120" vehsPerHour="36.399815732524544"/>
  <flow id="JF151654" begin="5060" fromJunction="J4" toJunction="J7" end="5120" vehsPerHour="39.51098693413139"/>
  <flow id="JF151655" begin="5060" fromJunction="J4" toJunction="J5" end="5120" vehsPerHour="10.756250081539436"/>
  <flow id="JF151656" begin="5060" fromJunction="J7" toJunction="J6" end="5120" vehsPerHour="34.90234351419737"/>
  <flow id="JF151657" begin="5060" fromJunction="J7" toJunction="J4" end="5120" vehsPerHour="65.7790600113992"/>
  <flow id="JF151658" begin="5060" fromJunction="J7" toJunction="J5" end="5120" vehsPerHour="42.23939644206063"/>
  <flow id="JF151659" begin="5060" fromJunction="J5" toJunction="J6" end="5120" vehsPerHour="6.779662786753862"/>
  <flow id="JF151660" begin="5060" fromJunction="J5" toJunction="J4" end="5120" vehsPerHour="50.41673556290696"/>
  <flow id="JF151661" begin="5060" fromJunction="J5" toJunction="J7" end="5120" vehsPerHour="29.38891555179273"/>
  <flow id="JF151662" begin="5060" fromJunction="J6" toJunction="J0" end="5120" vehsPerHour="62.77026950885978"/>
  <flow id="JF151663" begin="5060" fromJunction="J6" toJunction="J3" end="5120" vehsPerHour="55.27630963195519"/>
  <flow id="JF151664" begin="5060" fromJunction="J4" toJunction="J0" end="5120" vehsPerHour="14.159235030221184"/>
  <flow id="JF151665" begin="5060" fromJunction="J4" toJunction="J3" end="5120" vehsPerHour="27.570923783920676"/>
  <flow id="JF151666" begin="5060" fromJunction="J7" toJunction="J0" end="5120" vehsPerHour="9.72520360832167"/>
  <flow id="JF151667" begin="5060" fromJunction="J7" toJunction="J3" end="5120" vehsPerHour="40.6078194459048"/>
  <flow id="JF151668" begin="5060" fromJunction="J5" toJunction="J0" end="5120" vehsPerHour="19.487258476135022"/>
  <flow id="JF151669" begin="5060" fromJunction="J5" toJunction="J3" end="5120" vehsPerHour="42.40874147116203"/>
  <flow id="JF151670" begin="5120" fromJunction="J0" toJunction="J3" end="5180" vehsPerHour="54.31981531219926"/>
  <flow id="JF151671" begin="5120" fromJunction="J3" toJunction="J0" end="5180" vehsPerHour="469.9020464134544"/>
  <flow id="JF151672" begin="5120" fromJunction="J0" toJunction="J6" end="5180" vehsPerHour="131.30934337886023"/>
  <flow id="JF151673" begin="5120" fromJunction="J0" toJunction="J4" end="5180" vehsPerHour="55.69748155551541"/>
  <flow id="JF151674" begin="5120" fromJunction="J0" toJunction="J7" end="5180" vehsPerHour="67.61670505136664"/>
  <flow id="JF151675" begin="5120" fromJunction="J0" toJunction="J5" end="5180" vehsPerHour="86.98024133332086"/>
  <flow id="JF151676" begin="5120" fromJunction="J3" toJunction="J6" end="5180" vehsPerHour="72.60284233016755"/>
  <flow id="JF151677" begin="5120" fromJunction="J3" toJunction="J4" end="5180" vehsPerHour="56.15631053122609"/>
  <flow id="JF151678" begin="5120" fromJunction="J3" toJunction="J7" end="5180" vehsPerHour="83.0085198275073"/>
  <flow id="JF151679" begin="5120" fromJunction="J3" toJunction="J5" end="5180" vehsPerHour="94.19627816452605"/>
  <flow id="JF151680" begin="5180" fromJunction="J0" toJunction="J3" end="5240" vehsPerHour="264.97404229312144"/>
  <flow id="JF151681" begin="5180" fromJunction="J3" toJunction="J0" end="5240" vehsPerHour="531.30953293989"/>
  <flow id="JF151682" begin="5180" fromJunction="J0" toJunction="J6" end="5240" vehsPerHour="70.37024664683803"/>
  <flow id="JF151683" begin="5180" fromJunction="J0" toJunction="J4" end="5240" vehsPerHour="119.06189847215651"/>
  <flow id="JF151684" begin="5180" fromJunction="J0" toJunction="J7" end="5240" vehsPerHour="97.77033332742946"/>
  <flow id="JF151685" begin="5180" fromJunction="J0" toJunction="J5" end="5240" vehsPerHour="53.861016876827755"/>
  <flow id="JF151686" begin="5180" fromJunction="J3" toJunction="J6" end="5240" vehsPerHour="111.66874553374791"/>
  <flow id="JF151687" begin="5180" fromJunction="J3" toJunction="J4" end="5240" vehsPerHour="6.534408625403633"/>
  <flow id="JF151688" begin="5180" fromJunction="J3" toJunction="J7" end="5240" vehsPerHour="66.57756689934799"/>
  <flow id="JF151689" begin="5180" fromJunction="J3" toJunction="J5" end="5240" vehsPerHour="23.260409626967203"/>
  <flow id="JF151690" begin="5180" fromJunction="J6" toJunction="J4" end="5240" vehsPerHour="29.675419088248074"/>
  <flow id="JF151691" begin="5180" fromJunction="J6" toJunction="J7" end="5240" vehsPerHour="63.4901206641533"/>
  <flow id="JF151692" begin="5180" fromJunction="J6" toJunction="J5" end="5240" vehsPerHour="42.47257820759741"/>
  <flow id="JF151693" begin="5180" fromJunction="J4" toJunction="J6" end="5240" vehsPerHour="48.77720142229465"/>
  <flow id="JF151694" begin="5180" fromJunction="J4" toJunction="J7" end="5240" vehsPerHour="5.172704803334638"/>
  <flow id="JF151695" begin="5180" fromJunction="J4" toJunction="J5" end="5240" vehsPerHour="62.48000715973686"/>
  <flow id="JF151696" begin="5180" fromJunction="J7" toJunction="J6" end="5240" vehsPerHour="47.41504586872527"/>
  <flow id="JF151697" begin="5180" fromJunction="J7" toJunction="J4" end="5240" vehsPerHour="0.9663689526814759"/>
  <flow id="JF151698" begin="5180" fromJunction="J7" toJunction="J5" end="5240" vehsPerHour="50.248092214667686"/>
  <flow id="JF151699" begin="5180" fromJunction="J5" toJunction="J6" end="5240" vehsPerHour="56.31018916920094"/>
  <flow id="JF151700" begin="5180" fromJunction="J5" toJunction="J4" end="5240" vehsPerHour="35.62017601820012"/>
  <flow id="JF151701" begin="5180" fromJunction="J5" toJunction="J7" end="5240" vehsPerHour="11.084913955029691"/>
  <flow id="JF151702" begin="5180" fromJunction="J6" toJunction="J0" end="5240" vehsPerHour="30.273061894656937"/>
  <flow id="JF151703" begin="5180" fromJunction="J6" toJunction="J3" end="5240" vehsPerHour="8.504737241177986"/>
  <flow id="JF151704" begin="5180" fromJunction="J4" toJunction="J0" end="5240" vehsPerHour="49.80140074673949"/>
  <flow id="JF151705" begin="5180" fromJunction="J4" toJunction="J3" end="5240" vehsPerHour="55.99851406485269"/>
  <flow id="JF151706" begin="5180" fromJunction="J7" toJunction="J0" end="5240" vehsPerHour="46.25062029541033"/>
  <flow id="JF151707" begin="5180" fromJunction="J7" toJunction="J3" end="5240" vehsPerHour="33.781557484802356"/>
  <flow id="JF151708" begin="5180" fromJunction="J5" toJunction="J0" end="5240" vehsPerHour="17.35613913916357"/>
  <flow id="JF151709" begin="5180" fromJunction="J5" toJunction="J3" end="5240" vehsPerHour="29.94830222931257"/>
  <flow id="JF151710" begin="5240" fromJunction="J0" toJunction="J3" end="5300" vehsPerHour="392.37083490728895"/>
  <flow id="JF151711" begin="5240" fromJunction="J3" toJunction="J0" end="5300" vehsPerHour="506.1120901064107"/>
  <flow id="JF151712" begin="5240" fromJunction="J0" toJunction="J6" end="5300" vehsPerHour="4.594170350098903"/>
  <flow id="JF151713" begin="5240" fromJunction="J0" toJunction="J4" end="5300" vehsPerHour="79.10272408117703"/>
  <flow id="JF151714" begin="5240" fromJunction="J0" toJunction="J7" end="5300" vehsPerHour="120.60211482174938"/>
  <flow id="JF151715" begin="5240" fromJunction="J0" toJunction="J5" end="5300" vehsPerHour="66.36391690688696"/>
  <flow id="JF151716" begin="5240" fromJunction="J3" toJunction="J6" end="5300" vehsPerHour="99.5273670482553"/>
  <flow id="JF151717" begin="5240" fromJunction="J3" toJunction="J4" end="5300" vehsPerHour="34.93938310872717"/>
  <flow id="JF151718" begin="5240" fromJunction="J3" toJunction="J7" end="5300" vehsPerHour="85.9271060548117"/>
  <flow id="JF151719" begin="5240" fromJunction="J3" toJunction="J5" end="5300" vehsPerHour="20.375095504009785"/>
  <flow id="JF151720" begin="5240" fromJunction="J6" toJunction="J4" end="5300" vehsPerHour="14.672815870528973"/>
  <flow id="JF151721" begin="5240" fromJunction="J6" toJunction="J7" end="5300" vehsPerHour="37.99743436754701"/>
  <flow id="JF151722" begin="5240" fromJunction="J6" toJunction="J5" end="5300" vehsPerHour="29.60427610917793"/>
  <flow id="JF151723" begin="5240" fromJunction="J4" toJunction="J6" end="5300" vehsPerHour="26.681024774914743"/>
  <flow id="JF151724" begin="5240" fromJunction="J4" toJunction="J7" end="5300" vehsPerHour="7.941930531493509"/>
  <flow id="JF151725" begin="5240" fromJunction="J4" toJunction="J5" end="5300" vehsPerHour="1.6232380869059635"/>
  <flow id="JF151726" begin="5240" fromJunction="J7" toJunction="J6" end="5300" vehsPerHour="13.912198010332919"/>
  <flow id="JF151727" begin="5240" fromJunction="J7" toJunction="J4" end="5300" vehsPerHour="18.161674527096434"/>
  <flow id="JF151728" begin="5240" fromJunction="J7" toJunction="J5" end="5300" vehsPerHour="60.7192837009334"/>
  <flow id="JF151729" begin="5240" fromJunction="J5" toJunction="J6" end="5300" vehsPerHour="61.433761666677796"/>
  <flow id="JF151730" begin="5240" fromJunction="J5" toJunction="J4" end="5300" vehsPerHour="52.82064226237412"/>
  <flow id="JF151731" begin="5240" fromJunction="J5" toJunction="J7" end="5300" vehsPerHour="4.589131791391436"/>
  <flow id="JF151732" begin="5240" fromJunction="J6" toJunction="J0" end="5300" vehsPerHour="15.632589105220331"/>
  <flow id="JF151733" begin="5240" fromJunction="J6" toJunction="J3" end="5300" vehsPerHour="16.482115307548323"/>
  <flow id="JF151734" begin="5240" fromJunction="J4" toJunction="J0" end="5300" vehsPerHour="33.63888842198422"/>
  <flow id="JF151735" begin="5240" fromJunction="J4" toJunction="J3" end="5300" vehsPerHour="55.192216370472565"/>
  <flow id="JF151736" begin="5240" fromJunction="J7" toJunction="J0" end="5300" vehsPerHour="34.33138043848112"/>
  <flow id="JF151737" begin="5240" fromJunction="J7" toJunction="J3" end="5300" vehsPerHour="62.62250176438777"/>
  <flow id="JF151738" begin="5240" fromJunction="J5" toJunction="J0" end="5300" vehsPerHour="68.20245564927163"/>
  <flow id="JF151739" begin="5240" fromJunction="J5" toJunction="J3" end="5300" vehsPerHour="29.047418904405923"/>
  <flow id="JF151740" begin="5300" fromJunction="J0" toJunction="J3" end="5360" vehsPerHour="441.6753209458479"/>
  <flow id="JF151741" begin="5300" fromJunction="J3" toJunction="J0" end="5360" vehsPerHour="292.6084627045397"/>
  <flow id="JF151742" begin="5300" fromJunction="J0" toJunction="J6" end="5360" vehsPerHour="31.090319422724615"/>
  <flow id="JF151743" begin="5300" fromJunction="J0" toJunction="J4" end="5360" vehsPerHour="19.06091501877573"/>
  <flow id="JF151744" begin="5300" fromJunction="J0" toJunction="J7" end="5360" vehsPerHour="128.48955448087594"/>
  <flow id="JF151745" begin="5300" fromJunction="J0" toJunction="J5" end="5360" vehsPerHour="90.86206631513664"/>
  <flow id="JF151746" begin="5300" fromJunction="J3" toJunction="J6" end="5360" vehsPerHour="14.114823234094557"/>
  <flow id="JF151747" begin="5300" fromJunction="J3" toJunction="J4" end="5360" vehsPerHour="23.691942480365462"/>
  <flow id="JF151748" begin="5300" fromJunction="J3" toJunction="J7" end="5360" vehsPerHour="118.20142144662387"/>
  <flow id="JF151749" begin="5300" fromJunction="J3" toJunction="J5" end="5360" vehsPerHour="42.8621242386757"/>
  <flow id="JF151750" begin="5360" fromJunction="J0" toJunction="J3" end="5420" vehsPerHour="13.015534961627187"/>
  <flow id="JF151751" begin="5360" fromJunction="J3" toJunction="J0" end="5420" vehsPerHour="479.1066417326998"/>
  <flow id="JF151752" begin="5360" fromJunction="J0" toJunction="J6" end="5420" vehsPerHour="33.29759718500477"/>
  <flow id="JF151753" begin="5360" fromJunction="J0" toJunction="J4" end="5420" vehsPerHour="80.43109519973251"/>
  <flow id="JF151754" begin="5360" fromJunction="J0" toJunction="J7" end="5420" vehsPerHour="51.36008746284639"/>
  <flow id="JF151755" begin="5360" fromJunction="J0" toJunction="J5" end="5420" vehsPerHour="123.42025271538841"/>
  <flow id="JF151756" begin="5360" fromJunction="J3" toJunction="J6" end="5420" vehsPerHour="125.65290041093647"/>
  <flow id="JF151757" begin="5360" fromJunction="J3" toJunction="J4" end="5420" vehsPerHour="68.36614920191667"/>
  <flow id="JF151758" begin="5360" fromJunction="J3" toJunction="J7" end="5420" vehsPerHour="111.41365731760769"/>
  <flow id="JF151759" begin="5360" fromJunction="J3" toJunction="J5" end="5420" vehsPerHour="103.45768036116513"/>
  <flow id="JF151760" begin="5420" fromJunction="J0" toJunction="J3" end="5480" vehsPerHour="197.2414271519844"/>
  <flow id="JF151761" begin="5420" fromJunction="J3" toJunction="J0" end="5480" vehsPerHour="161.99402347508013"/>
  <flow id="JF151762" begin="5420" fromJunction="J0" toJunction="J6" end="5480" vehsPerHour="116.24941597295978"/>
  <flow id="JF151763" begin="5420" fromJunction="J0" toJunction="J4" end="5480" vehsPerHour="45.6603471296229"/>
  <flow id="JF151764" begin="5420" fromJunction="J0" toJunction="J7" end="5480" vehsPerHour="72.715911325451"/>
  <flow id="JF151765" begin="5420" fromJunction="J0" toJunction="J5" end="5480" vehsPerHour="73.22648510585519"/>
  <flow id="JF151766" begin="5420" fromJunction="J3" toJunction="J6" end="5480" vehsPerHour="122.49861649631197"/>
  <flow id="JF151767" begin="5420" fromJunction="J3" toJunction="J4" end="5480" vehsPerHour="70.88465143434782"/>
  <flow id="JF151768" begin="5420" fromJunction="J3" toJunction="J7" end="5480" vehsPerHour="107.29969859241291"/>
  <flow id="JF151769" begin="5420" fromJunction="J3" toJunction="J5" end="5480" vehsPerHour="56.01184900084121"/>
  <flow id="JF151770" begin="5420" fromJunction="J6" toJunction="J4" end="5480" vehsPerHour="56.97641892733709"/>
  <flow id="JF151771" begin="5420" fromJunction="J6" toJunction="J7" end="5480" vehsPerHour="13.21637411531448"/>
  <flow id="JF151772" begin="5420" fromJunction="J6" toJunction="J5" end="5480" vehsPerHour="44.869372169151845"/>
  <flow id="JF151773" begin="5420" fromJunction="J4" toJunction="J6" end="5480" vehsPerHour="49.37708844955021"/>
  <flow id="JF151774" begin="5420" fromJunction="J4" toJunction="J7" end="5480" vehsPerHour="39.86098494897277"/>
  <flow id="JF151775" begin="5420" fromJunction="J4" toJunction="J5" end="5480" vehsPerHour="30.486202950618626"/>
  <flow id="JF151776" begin="5420" fromJunction="J7" toJunction="J6" end="5480" vehsPerHour="45.05516587544246"/>
  <flow id="JF151777" begin="5420" fromJunction="J7" toJunction="J4" end="5480" vehsPerHour="21.59990517575576"/>
  <flow id="JF151778" begin="5420" fromJunction="J7" toJunction="J5" end="5480" vehsPerHour="11.487495233572293"/>
  <flow id="JF151779" begin="5420" fromJunction="J5" toJunction="J6" end="5480" vehsPerHour="44.69568472479241"/>
  <flow id="JF151780" begin="5420" fromJunction="J5" toJunction="J4" end="5480" vehsPerHour="53.724463942818005"/>
  <flow id="JF151781" begin="5420" fromJunction="J5" toJunction="J7" end="5480" vehsPerHour="26.089830510545493"/>
  <flow id="JF151782" begin="5420" fromJunction="J6" toJunction="J0" end="5480" vehsPerHour="27.627874907926138"/>
  <flow id="JF151783" begin="5420" fromJunction="J6" toJunction="J3" end="5480" vehsPerHour="10.586458934437783"/>
  <flow id="JF151784" begin="5420" fromJunction="J4" toJunction="J0" end="5480" vehsPerHour="53.24515671048855"/>
  <flow id="JF151785" begin="5420" fromJunction="J4" toJunction="J3" end="5480" vehsPerHour="45.154109383434594"/>
  <flow id="JF151786" begin="5420" fromJunction="J7" toJunction="J0" end="5480" vehsPerHour="40.724270396556406"/>
  <flow id="JF151787" begin="5420" fromJunction="J7" toJunction="J3" end="5480" vehsPerHour="35.996627121988794"/>
  <flow id="JF151788" begin="5420" fromJunction="J5" toJunction="J0" end="5480" vehsPerHour="20.03297146893216"/>
  <flow id="JF151789" begin="5420" fromJunction="J5" toJunction="J3" end="5480" vehsPerHour="3.6183773537435444"/>
  <flow id="JF151790" begin="5480" fromJunction="J0" toJunction="J3" end="5540" vehsPerHour="286.3522074926984"/>
  <flow id="JF151791" begin="5480" fromJunction="J3" toJunction="J0" end="5540" vehsPerHour="539.9068232954004"/>
  <flow id="JF151792" begin="5480" fromJunction="J0" toJunction="J6" end="5540" vehsPerHour="79.14594091619047"/>
  <flow id="JF151793" begin="5480" fromJunction="J0" toJunction="J4" end="5540" vehsPerHour="15.049250155618212"/>
  <flow id="JF151794" begin="5480" fromJunction="J0" toJunction="J7" end="5540" vehsPerHour="96.08159958487404"/>
  <flow id="JF151795" begin="5480" fromJunction="J0" toJunction="J5" end="5540" vehsPerHour="95.12043443968288"/>
  <flow id="JF151796" begin="5480" fromJunction="J3" toJunction="J6" end="5540" vehsPerHour="51.780271091418086"/>
  <flow id="JF151797" begin="5480" fromJunction="J3" toJunction="J4" end="5540" vehsPerHour="129.30834499929634"/>
  <flow id="JF151798" begin="5480" fromJunction="J3" toJunction="J7" end="5540" vehsPerHour="44.20590214334983"/>
  <flow id="JF151799" begin="5480" fromJunction="J3" toJunction="J5" end="5540" vehsPerHour="13.682534295100766"/>
  <flow id="JF151800" begin="5480" fromJunction="J6" toJunction="J4" end="5540" vehsPerHour="10.710695596610883"/>
  <flow id="JF151801" begin="5480" fromJunction="J6" toJunction="J7" end="5540" vehsPerHour="38.27997910568703"/>
  <flow id="JF151802" begin="5480" fromJunction="J6" toJunction="J5" end="5540" vehsPerHour="42.23741345349881"/>
  <flow id="JF151803" begin="5480" fromJunction="J4" toJunction="J6" end="5540" vehsPerHour="65.98848884095861"/>
  <flow id="JF151804" begin="5480" fromJunction="J4" toJunction="J7" end="5540" vehsPerHour="2.1106680708560974"/>
  <flow id="JF151805" begin="5480" fromJunction="J4" toJunction="J5" end="5540" vehsPerHour="42.279660837991294"/>
  <flow id="JF151806" begin="5480" fromJunction="J7" toJunction="J6" end="5540" vehsPerHour="40.400927872074284"/>
  <flow id="JF151807" begin="5480" fromJunction="J7" toJunction="J4" end="5540" vehsPerHour="61.72908383057735"/>
  <flow id="JF151808" begin="5480" fromJunction="J7" toJunction="J5" end="5540" vehsPerHour="55.75303937655942"/>
  <flow id="JF151809" begin="5480" fromJunction="J5" toJunction="J6" end="5540" vehsPerHour="32.47031644225986"/>
  <flow id="JF151810" begin="5480" fromJunction="J5" toJunction="J4" end="5540" vehsPerHour="60.9725785967917"/>
  <flow id="JF151811" begin="5480" fromJunction="J5" toJunction="J7" end="5540" vehsPerHour="0.5723327534866139"/>
  <flow id="JF151812" begin="5480" fromJunction="J6" toJunction="J0" end="5540" vehsPerHour="40.639922686083366"/>
  <flow id="JF151813" begin="5480" fromJunction="J6" toJunction="J3" end="5540" vehsPerHour="20.245865219725527"/>
  <flow id="JF151814" begin="5480" fromJunction="J4" toJunction="J0" end="5540" vehsPerHour="67.42626004443126"/>
  <flow id="JF151815" begin="5480" fromJunction="J4" toJunction="J3" end="5540" vehsPerHour="66.07172095142919"/>
  <flow id="JF151816" begin="5480" fromJunction="J7" toJunction="J0" end="5540" vehsPerHour="55.83751403598224"/>
  <flow id="JF151817" begin="5480" fromJunction="J7" toJunction="J3" end="5540" vehsPerHour="55.75320311663463"/>
  <flow id="JF151818" begin="5480" fromJunction="J5" toJunction="J0" end="5540" vehsPerHour="15.449635891732926"/>
  <flow id="JF151819" begin="5480" fromJunction="J5" toJunction="J3" end="5540" vehsPerHour="11.42953701684924"/>
  <flow id="JF151820" begin="5540" fromJunction="J0" toJunction="J3" end="5600" vehsPerHour="40.767024022834896"/>
  <flow id="JF151821" begin="5540" fromJunction="J3" toJunction="J0" end="5600" vehsPerHour="354.63543431134786"/>
  <flow id="JF151822" begin="5540" fromJunction="J0" toJunction="J6" end="5600" vehsPerHour="87.03303207008743"/>
  <flow id="JF151823" begin="5540" fromJunction="J0" toJunction="J4" end="5600" vehsPerHour="128.51245837926388"/>
  <flow id="JF151824" begin="5540" fromJunction="J0" toJunction="J7" end="5600" vehsPerHour="67.37547042741252"/>
  <flow id="JF151825" begin="5540" fromJunction="J0" toJunction="J5" end="5600" vehsPerHour="52.17262906191607"/>
  <flow id="JF151826" begin="5540" fromJunction="J3" toJunction="J6" end="5600" vehsPerHour="114.87145695252042"/>
  <flow id="JF151827" begin="5540" fromJunction="J3" toJunction="J4" end="5600" vehsPerHour="15.664338089134551"/>
  <flow id="JF151828" begin="5540" fromJunction="J3" toJunction="J7" end="5600" vehsPerHour="99.71557424308179"/>
  <flow id="JF151829" begin="5540" fromJunction="J3" toJunction="J5" end="5600" vehsPerHour="132.91516254725408"/>
  <flow id="JF151830" begin="5540" fromJunction="J6" toJunction="J4" end="5600" vehsPerHour="39.96803904729508"/>
  <flow id="JF151831" begin="5540" fromJunction="J6" toJunction="J7" end="5600" vehsPerHour="23.946367986134405"/>
  <flow id="JF151832" begin="5540" fromJunction="J6" toJunction="J5" end="5600" vehsPerHour="40.80977875008487"/>
  <flow id="JF151833" begin="5540" fromJunction="J4" toJunction="J6" end="5600" vehsPerHour="66.81043816150415"/>
  <flow id="JF151834" begin="5540" fromJunction="J4" toJunction="J7" end="5600" vehsPerHour="57.99402194165707"/>
  <flow id="JF151835" begin="5540" fromJunction="J4" toJunction="J5" end="5600" vehsPerHour="45.50510958184018"/>
  <flow id="JF151836" begin="5540" fromJunction="J7" toJunction="J6" end="5600" vehsPerHour="3.9740093212374004"/>
  <flow id="JF151837" begin="5540" fromJunction="J7" toJunction="J4" end="5600" vehsPerHour="15.896333014675887"/>
  <flow id="JF151838" begin="5540" fromJunction="J7" toJunction="J5" end="5600" vehsPerHour="30.41370790573072"/>
  <flow id="JF151839" begin="5540" fromJunction="J5" toJunction="J6" end="5600" vehsPerHour="60.31185441290072"/>
  <flow id="JF151840" begin="5540" fromJunction="J5" toJunction="J4" end="5600" vehsPerHour="64.91283556766629"/>