<?xml version="1.0" encoding="UTF-8"?>
<routes xmlns:xsi="http://www.w3.org/2001/XMLSchema-instance" xsi:noNamespaceSchemaLocation="http://sumo.dlr.de/xsd/routes_file.xsd">
  <flow id="JF159640" begin="0" fromJunction="J0" toJunction="J3" end="5000" vehsPerHour="1362.083176535128"/>
  <flow id="JF159641" begin="0" fromJunction="J3" toJunction="J0" end="5000" vehsPerHour="1312.4631027812509"/>
  <flow id="JF159642" begin="0" fromJunction="J0" toJunction="J6" end="5000" vehsPerHour="47.12385263636905"/>
  <flow id="JF159643" begin="0" fromJunction="J0" toJunction="J4" end="5000" vehsPerHour="53.1810230494988"/>
  <flow id="JF159644" begin="0" fromJunction="J0" toJunction="J7" end="5000" vehsPerHour="124.9188540974805"/>
  <flow id="JF159645" begin="0" fromJunction="J0" toJunction="J5" end="5000" vehsPerHour="126.15189551760824"/>
  <flow id="JF159646" begin="0" fromJunction="J3" toJunction="J6" end="5000" vehsPerHour="117.18385148421847"/>
  <flow id="JF159647" begin="0" fromJunction="J3" toJunction="J4" end="5000" vehsPerHour="15.432782136604805"/>
  <flow id="JF159648" begin="0" fromJunction="J3" toJunction="J7" end="5000" vehsPerHour="70.98837735562567"/>
  <flow id="JF159649" begin="0" fromJunction="J3" toJunction="J5" end="5000" vehsPerHour="131.19071034587296"/>
  <flow id="JF159650" begin="0" fromJunction="J6" toJunction="J4" end="5000" vehsPerHour="269.4975146063499"/>
  <flow id="JF159651" begin="0" fromJunction="J6" toJunction="J7" end="5000" vehsPerHour="209.38985384028962"/>
  <flow id="JF159652" begin="0" fromJunction="J6" toJunction="J5" end="5000" vehsPerHour="58.829136858138185"/>
  <flow id="JF159653" begin="0" fromJunction="J4" toJunction="J6" end="5000" vehsPerHour="105.56622994884752"/>
  <flow id="JF159654" begin="0" fromJunction="J4" toJunction="J7" end="5000" vehsPerHour="210.4888907468195"/>
  <flow id="JF159655" begin="0" fromJunction="J4" toJunction="J5" end="5000" vehsPerHour="25.698156054544256"/>
  <flow id="JF159656" begin="0" fromJunction="J7" toJunction="J6" end="5000" vehsPerHour="216.3310167862472"/>
  <flow id="JF159657" begin="0" fromJunction="J7" toJunction="J4" end="5000" vehsPerHour="115.6811557447792"/>
  <flow id="JF159658" begin="0" fromJunction="J7" toJunction="J5" end="5000" vehsPerHour="44.04772309212661"/>
  <flow id="JF159659" begin="0" fromJunction="J5" toJunction="J6" end="5000" vehsPerHour="135.23663374868124"/>
  <flow id="JF159660" begin="0" fromJunction="J5" toJunction="J4" end="5000" vehsPerHour="176.7854020067628"/>
  <flow id="JF159661" begin="0" fromJunction="J5" toJunction="J7" end="5000" vehsPerHour="200.72632633649073"/>
  <flow id="JF159662" begin="0" fromJunction="J6" toJunction="J0" end="5000" vehsPerHour="8.24651421138496"/>
  <flow id="JF159663" begin="0" fromJunction="J6" toJunction="J3" end="5000" vehsPerHour="45.69443569562544"/>
  <flow id="JF159664" begin="0" fromJunction="J4" toJunction="J0" end="5000" vehsPerHour="5.654668016336862"/>
  <flow id="JF159665" begin="0" fromJunction="J4" toJunction="J3" end="5000" vehsPerHour="45.80716933650796"/>
  <flow id="JF159666" begin="0" fromJunction="J7" toJunction="J0" end="5000" vehsPerHour="24.223797024406878"/>
  <flow id="JF159667" begin="0" fromJunction="J7" toJunction="J3" end="5000" vehsPerHour="41.277184773325416"/>
  <flow id="JF159668" begin="0" fromJunction="J5" toJunction="J0" end="5000" vehsPerHour="20.79504347518579"/>
  <flow id="JF159669" begin="0" fromJunction="J5" toJunction="J3" end="5000" vehsPerHour="67.75248351927041"/>
  <flow id="JF159670" begin="5000" fromJunction="J0" toJunction="J3" end="5060" vehsPerHour="449.8303474269743"/>
  <flow id="JF159671" begin="5000" fromJunction="J3" toJunction="J0" end="5060" vehsPerHour="300.8401573361884"/>
  <flow id="JF159672" begin="5000" fromJunction="J0" toJunction="J6" end="5060" vehsPerHour="2.48636073772461"/>
  <flow id="JF159673" begin="5000" fromJunction="J0" toJunction="J4" end="5060" vehsPerHour="103.64777103329213"/>
  <flow id="JF159674" begin="5000" fromJunction="J0" toJunction="J7" end="5060" vehsPerHour="67.23216856244278"/>
  <flow id="JF159675" begin="5000" fromJunction="J0" toJunction="J5" end="5060" vehsPerHour="106.56060530752714"/>
  <flow id="JF159676" begin="5000" fromJunction="J3" toJunction="J6" end="5060" vehsPerHour="126.62856094119451"/>
  <flow id="JF159677" begin="5000" fromJunction="J3" toJunction="J4" end="5060" vehsPerHour="60.02433273541182"/>
  <flow id="JF159678" begin="5000" fromJunction="J3" toJunction="J7" end="5060" vehsPerHour="61.48799225024863"/>
  <flow id="JF159679" begin="5000" fromJunction="J3" toJunction="J5" end="5060" vehsPerHour="59.890563252382506"/>
  <flow id="JF159680" begin="5000" fromJunction="J6" toJunction="J4" end="5060" vehsPerHour="15.223648992291372"/>
  <flow id="JF159681" begin="5000" fromJunction="J6" toJunction="J7" end="5060" vehsPerHour="68.28701842370853"/>
  <flow id="JF159682" begin="5000" fromJunction="J6" toJunction="J5" end="5060" vehsPerHour="14.977023099810557"/>
  <flow id="JF159683" begin="5000" fromJunction="J4" toJunction="J6" end="5060" vehsPerHour="41.80843050892489"/>
  <flow id="JF159684" begin="5000" fromJunction="J4" toJunction="J7" end="5060" vehsPerHour="12.476828340186236"/>
  <flow id="JF159685" begin="5000" fromJunction="J4" toJunction="J5" end="5060" vehsPerHour="51.29664593665233"/>
  <flow id="JF159686" begin="5000" fromJunction="J7" toJunction="J6" end="5060" vehsPerHour="0.9846464410524386"/>
  <flow id="JF159687" begin="5000" fromJunction="J7" toJunction="J4" end="5060" vehsPerHour="5.7070873344739415"/>
  <flow id="JF159688" begin="5000" fromJunction="J7" toJunction="J5" end="5060" vehsPerHour="11.314086022699579"/>
  <flow id="JF159689" begin="5000" fromJunction="J5" toJunction="J6" end="5060" vehsPerHour="54.88714641650479"/>
  <flow id="JF159690" begin="5000" fromJunction="J5" toJunction="J4" end="5060" vehsPerHour="20.162580006315395"/>
  <flow id="JF159691" begin="5000" fromJunction="J5" toJunction="J7" end="5060" vehsPerHour="28.43050539071526"/>
  <flow id="JF159692" begin="5000" fromJunction="J6" toJunction="J0" end="5060" vehsPerHour="48.305842710528985"/>
  <flow id="JF159693" begin="5000" fromJunction="J6" toJunction="J3" end="5060" vehsPerHour="44.016387264754385"/>
  <flow id="JF159694" begin="5000" fromJunction="J4" toJunction="J0" end="5060" vehsPerHour="6.952354757628951"/>
  <flow id="JF159695" begin="5000" fromJunction="J4" toJunction="J3" end="5060" vehsPerHour="4.491630254326854"/>
  <flow id="JF159696" begin="5000" fromJunction="J7" toJunction="J0" end="5060" vehsPerHour="27.019051365797736"/>
  <flow id="JF159697" begin="5000" fromJunction="J7" toJunction="J3" end="5060" vehsPerHour="66.59558806381982"/>
  <flow id="JF159698" begin="5000" fromJunction="J5" toJunction="J0" end="5060" vehsPerHour="10.8044314852517"/>
  <flow id="JF159699" begin="5000" fromJunction="J5" toJunction="J3" end="5060" vehsPerHour="43.09803896980829"/>
  <flow id="JF159700" begin="5060" fromJunction="J0" toJunction="J3" end="5120" vehsPerHour="512.8566304504785"/>
  <flow id="JF159701" begin="5060" fromJunction="J3" toJunction="J0" end="5120" vehsPerHour="36.56665748598483"/>
  <flow id="JF159702" begin="5060" fromJunction="J0" toJunction="J6" end="5120" vehsPerHour="108.77934598623347"/>
  <flow id="JF159703" begin="5060" fromJunction="J0" toJunction="J4" end="5120" vehsPerHour="69.37039652002484"/>
  <flow id="JF159704" begin="5060" fromJunction="J0" toJunction="J7" end="5120" vehsPerHour="54.95858194559483"/>
  <flow id="JF159705" begin="5060" fromJunction="J0" toJunction="J5" end="5120" vehsPerHour="67.09631729984727"/>
  <flow id="JF159706" begin="5060" fromJunction="J3" toJunction="J6" end="5120" vehsPerHour="78.08745322032289"/>
  <flow id="JF159707" begin="5060" fromJunction="J3" toJunction="J4" end="5120" vehsPerHour="80.81772612462913"/>
  <flow id="JF159708" begin="5060" fromJunction="J3" toJunction="J7" end="5120" vehsPerHour="77.80669376796115"/>
  <flow id="JF159709" begin="5060" fromJunction="J3" toJunction="J5" end="5120" vehsPerHour="66.00310095637992"/>
  <flow id="JF159710" begin="5120" fromJunction="J0" toJunction="J3" end="5180" vehsPerHour="284.54450283766255"/>
  <flow id="JF159711" begin="5120" fromJunction="J3" toJunction="J0" end="5180" vehsPerHour="244.59221540133618"/>
  <flow id="JF159712" begin="5120" fromJunction="J0" toJunction="J6" end="5180" vehsPerHour="15.71879670446008"/>
  <flow id="JF159713" begin="5120" fromJunction="J0" toJunction="J4" end="5180" vehsPerHour="89.8524413558487"/>
  <flow id="JF159714" begin="5120" fromJunction="J0" toJunction="J7" end="5180" vehsPerHour="67.1284436678623"/>
  <flow id="JF159715" begin="5120" fromJunction="J0" toJunction="J5" end="5180" vehsPerHour="1.8873817113482496"/>
  <flow id="JF159716" begin="5120" fromJunction="J3" toJunction="J6" end="5180" vehsPerHour="61.209441366864404"/>
  <flow id="JF159717" begin="5120" fromJunction="J3" toJunction="J4" end="5180" vehsPerHour="78.70851380238419"/>
  <flow id="JF159718" begin="5120" fromJunction="J3" toJunction="J7" end="5180" vehsPerHour="115.03462269715278"/>
  <flow id="JF159719" begin="5120" fromJunction="J3" toJunction="J5" end="5180" vehsPerHour="126.05687196691973"/>
  <flow id="JF159720" begin="5180" fromJunction="J0" toJunction="J3" end="5240" vehsPerHour="185.1941142280487"/>
  <flow id="JF159721" begin="5180" fromJunction="J3" toJunction="J0" end="5240" vehsPerHour="244.0191882211503"/>
  <flow id="JF159722" begin="5180" fromJunction="J0" toJunction="J6" end="5240" vehsPerHour="30.99091866277262"/>
  <flow id="JF159723" begin="5180" fromJunction="J0" toJunction="J4" end="5240" vehsPerHour="114.38335650101897"/>
  <flow id="JF159724" begin="5180" fromJunction="J0" toJunction="J7" end="5240" vehsPerHour="18.22889037236784"/>
  <flow id="JF159725" begin="5180" fromJunction="J0" toJunction="J5" end="5240" vehsPerHour="30.980454680758466"/>
  <flow id="JF159726" begin="5180" fromJunction="J3" toJunction="J6" end="5240" vehsPerHour="127.73947304276997"/>
  <flow id="JF159727" begin="5180" fromJunction="J3" toJunction="J4" end="5240" vehsPerHour="17.735232360399596"/>
  <flow id="JF159728" begin="5180" fromJunction="J3" toJunction="J7" end="5240" vehsPerHour="110.01861573651995"/>
  <flow id="JF159729" begin="5180" fromJunction="J3" toJunction="J5" end="5240" vehsPerHour="2.5448100454205913"/>
  <flow id="JF159730" begin="5180" fromJunction="J6" toJunction="J4" end="5240" vehsPerHour="8.515001392435204"/>
  <flow id="JF159731" begin="5180" fromJunction="J6" toJunction="J7" end="5240" vehsPerHour="4.168337621292237"/>
  <flow id="JF159732" begin="5180" fromJunction="J6" toJunction="J5" end="5240" vehsPerHour="16.722901505807187"/>
  <flow id="JF159733" begin="5180" fromJunction="J4" toJunction="J6" end="5240" vehsPerHour="17.82522388662812"/>
  <flow id="JF159734" begin="5180" fromJunction="J4" toJunction="J7" end="5240" vehsPerHour="20.560552628353566"/>
  <flow id="JF159735" begin="5180" fromJunction="J4" toJunction="J5" end="5240" vehsPerHour="66.39573838638947"/>
  <flow id="JF159736" begin="5180" fromJunction="J7" toJunction="J6" end="5240" vehsPerHour="62.01937268951586"/>
  <flow id="JF159737" begin="5180" fromJunction="J7" toJunction="J4" end="5240" vehsPerHour="20.780723301909486"/>
  <flow id="JF159738" begin="5180" fromJunction="J7" toJunction="J5" end="5240" vehsPerHour="34.68006907443666"/>
  <flow id="JF159739" begin="5180" fromJunction="J5" toJunction="J6" end="5240" vehsPerHour="2.728385479773988"/>
  <flow id="JF159740" begin="5180" fromJunction="J5" toJunction="J4" end="5240" vehsPerHour="10.491837503143499"/>
  <flow id="JF159741" begin="5180" fromJunction="J5" toJunction="J7" end="5240" vehsPerHour="0.8652445548010519"/>
  <flow id="JF159742" begin="5180" fromJunction="J6" toJunction="J0" end="5240" vehsPerHour="37.589336690406334"/>
  <flow id="JF159743" begin="5180" fromJunction="J6" toJunction="J3" end="5240" vehsPerHour="12.142352952813152"/>
  <flow id="JF159744" begin="5180" fromJunction="J4" toJunction="J0" end="5240" vehsPerHour="23.9077721834475"/>
  <flow id="JF159745" begin="5180" fromJunction="J4" toJunction="J3" end="5240" vehsPerHour="36.320877582834854"/>
  <flow id="JF159746" begin="5180" fromJunction="J7" toJunction="J0" end="5240" vehsPerHour="61.32862814079064"/>
  <flow id="JF159747" begin="5180" fromJunction="J7" toJunction="J3" end="5240" vehsPerHour="2.7508820395286064"/>
  <flow id="JF159748" begin="5180" fromJunction="J5" toJunction="J0" end="5240" vehsPerHour="17.71826867012781"/>
  <flow id="JF159749" begin="5180" fromJunction="J5" toJunction="J3" end="5240" vehsPerHour="51.835685269304804"/>
  <flow id="JF159750" begin="5240" fromJunction="J0" toJunction="J3" end="5300" vehsPerHour="493.3457997876607"/>
  <flow id="JF159751" begin="5240" fromJunction="J3" toJunction="J0" end="5300" vehsPerHour="90.88902164201473"/>
  <flow id="JF159752" begin="5240" fromJunction="J0" toJunction="J6" end="5300" vehsPerHour="62.65452947864845"/>
  <flow id="JF159753" begin="5240" fromJunction="J0" toJunction="J4" end="5300" vehsPerHour="24.172570070576455"/>
  <flow id="JF159754" begin="5240" fromJunction="J0" toJunction="J7" end="5300" vehsPerHour="62.12686072584181"/>
  <flow id="JF159755" begin="5240" fromJunction="J0" toJunction="J5" end="5300" vehsPerHour="3.211725307136075"/>
  <flow id="JF159756" begin="5240" fromJunction="J3" toJunction="J6" end="5300" vehsPerHour="28.77332508578287"/>
  <flow id="JF159757" begin="5240" fromJunction="J3" toJunction="J4" end="5300" vehsPerHour="112.951540460782"/>
  <flow id="JF159758" begin="5240" fromJunction="J3" toJunction="J7" end="5300" vehsPerHour="40.65998225034813"/>
  <flow id="JF159759" begin="5240" fromJunction="J3" toJunction="J5" end="5300" vehsPerHour="97.56163476016289"/>
  <flow id="JF159760" begin="5240" fromJunction="J6" toJunction="J4" end="5300" vehsPerHour="22.905211001306213"/>
  <flow id="JF159761" begin="5240" fromJunction="J6" toJunction="J7" end="5300" vehsPerHour="40.70530017812641"/>
  <flow id="JF159762" begin="5240" fromJunction="J6" toJunction="J5" end="5300" vehsPerHour="33.85946690123223"/>
  <flow id="JF159763" begin="5240" fromJunction="J4" toJunction="J6" end="5300" vehsPerHour="60.9916670904592"/>
  <flow id="JF159764" begin="5240" fromJunction="J4" toJunction="J7" end="5300" vehsPerHour="11.199193376110603"/>
  <flow id="JF159765" begin="5240" fromJunction="J4" toJunction="J5" end="5300" vehsPerHour="7.196612686622522"/>
  <flow id="JF159766" begin="5240" fromJunction="J7" toJunction="J6" end="5300" vehsPerHour="66.65335383060336"/>
  <flow id="JF159767" begin="5240" fromJunction="J7" toJunction="J4" end="5300" vehsPerHour="57.491093713241405"/>
  <flow id="JF159768" begin="5240" fromJunction="J7" toJunction="J5" end="5300" vehsPerHour="37.952553076707474"/>
  <flow id="JF159769" begin="5240" fromJunction="J5" toJunction="J6" end="5300" vehsPerHour="25.49416864900693"/>
  <flow id="JF159770" begin="5240" fromJunction="J5" toJunction="J4" end="5300" vehsPerHour="16.195689052356702"/>
  <flow id="JF159771" begin="5240" fromJunction="J5" toJunction="J7" end="5300" vehsPerHour="2.631742253050326"/>
  <flow id="JF159772" begin="5240" fromJunction="J6" toJunction="J0" end="5300" vehsPerHour="22.70862457108056"/>
  <flow id="JF159773" begin="5240" fromJunction="J6" toJunction="J3" end="5300" vehsPerHour="60.321942234644986"/>
  <flow id="JF159774" begin="5240" fromJunction="J4" toJunction="J0" end="5300" vehsPerHour="34.95886281998328"/>
  <flow id="JF159775" begin="5240" fromJunction="J4" toJunction="J3" end="5300" vehsPerHour="47.73720720486834"/>
  <flow id="JF159776" begin="5240" fromJunction="J7" toJunction="J0" end="5300" vehsPerHour="62.9436262072281"/>
  <flow id="JF159777" begin="5240" fromJunction="J7" toJunction="J3" end="5300" vehsPerHour="34.033411236761005"/>
  <flow id="JF159778" begin="5240" fromJunction="J5" toJunction="J0" end="5300" vehsPerHour="61.67117452645322"/>
  <flow id="JF159779" begin="5240" fromJunction="J5" toJunction="J3" end="5300" vehsPerHour="27.338732065000908"/>
  <flow id="JF159780" begin="5300" fromJunction="J0" toJunction="J3" end="5360" vehsPerHour="303.15990994169954"/>
  <flow id="JF159781" begin="5300" fromJunction="J3" toJunction="J0" end="5360" vehsPerHour="164.43641001971702"/>
  <flow id="JF159782" begin="5300" fromJunction="J0" toJunction="J6" end="5360" vehsPerHour="30.678755118585396"/>
  <flow id="JF159783" begin="5300" fromJunction="J0" toJunction="J4" end="5360" vehsPerHour="117.72120795577258"/>
  <flow id="JF159784" begin="5300" fromJunction="J0" toJunction="J7" end="5360" vehsPerHour="17.998807222996447"/>
  <flow id="JF159785" begin="5300" fromJunction="J0" toJunction="J5" end="5360" vehsPerHour="36.06705222911762"/>
  <flow id="JF159786" begin="5300" fromJunction="J3" toJunction="J6" end="5360" vehsPerHour="72.93885445800564"/>
  <flow id="JF159787" begin="5300" fromJunction="J3" toJunction="J4" end="5360" vehsPerHour="55.44225496831824"/>
  <flow id="JF159788" begin="5300" fromJunction="J3" toJunction="J7" end="5360" vehsPerHour="36.68640986406911"/>
  <flow id="JF159789" begin="5300" fromJunction="J3" toJunction="J5" end="5360" vehsPerHour="52.7800221860293"/>
  <flow id="JF159790" begin="5300" fromJunction="J6" toJunction="J4" end="5360" vehsPerHour="15.157870249455833"/>
  <flow id="JF159791" begin="5300" fromJunction="J6" toJunction="J7" end="5360" vehsPerHour="3.8201075619712466"/>
  <flow id="JF159792" begin="5300" fromJunction="J6" toJunction="J5" end="5360" vehsPerHour="19.998256453782858"/>
  <flow id="JF159793" begin="5300" fromJunction="J4" toJunction="J6" end="5360" vehsPerHour="62.9880298798409"/>
  <flow id="JF159794" begin="5300" fromJunction="J4" toJunction="J7" end="5360" vehsPerHour="52.250346831574255"/>
  <flow id="JF159795" begin="5300" fromJunction="J4" toJunction="J5" end="5360" vehsPerHour="33.20578036921037"/>
  <flow id="JF159796" begin="5300" fromJunction="J7" toJunction="J6" end="5360" vehsPerHour="39.02197373525103"/>
  <flow id="JF159797" begin="5300" fromJunction="J7" toJunction="J4" end="5360" vehsPerHour="17.95406323867492"/>
  <flow id="JF159798" begin="5300" fromJunction="J7" toJunction="J5" end="5360" vehsPerHour="13.05590720805642"/>
  <flow id="JF159799" begin="5300" fromJunction="J5" toJunction="J6" end="5360" vehsPerHour="17.53911353786354"/>
  <flow id="JF159800" begin="5300" fromJunction="J5" toJunction="J4" end="5360" vehsPerHour="37.312827048028446"/>
  <flow id="JF159801" begin="5300" fromJunction="J5" toJunction="J7" end="5360" vehsPerHour="55.94005667303903"/>
  <flow id="JF159802" begin="5300" fromJunction="J6" toJunction="J0" end="5360" vehsPerHour="34.7701443008553"/>
  <flow id="JF159803" begin="5300" fromJunction="J6" toJunction="J3" end="5360" vehsPerHour="22.006459365648407"/>
  <flow id="JF159804" begin="5300" fromJunction="J4" toJunction="J0" end="5360" vehsPerHour="66.70005622483612"/>
  <flow id="JF159805" begin="5300" fromJunction="J4" toJunction="J3" end="5360" vehsPerHour="50.511964880976926"/>
  <flow id="JF159806" begin="5300" fromJunction="J7" toJunction="J0" end="5360" vehsPerHour="42.630756704053766"/>
  <flow id="JF159807" begin="5300" fromJunction="J7" toJunction="J3" end="5360" vehsPerHour="5.750588837986426"/>
  <flow id="JF159808" begin="5300" fromJunction="J5" toJunction="J0" end="5360" vehsPerHour="39.216445425399215"/>
  <flow id="JF159809" begin="5300" fromJunction="J5" toJunction="J3" end="5360" vehsPerHour="36.58830054109876"/>
  <flow id="JF159810" begin="5360" fromJunction="J0" toJunction="J3" end="5420" vehsPerHour="317.91745056745157"/>
  <flow id="JF159811" begin="5360" fromJunction="J3" toJunction="J0" end="5420" vehsPerHour="19.321322454125315"/>
  <flow id="JF159812" begin="5360" fromJunction="J0" toJunction="J6" end="5420" vehsPerHour="75.23035237959722"/>
  <flow id="JF159813" begin="5360" fromJunction="J0" toJunction="J4" end="5420" vehsPerHour="55.1324487699143"/>
  <flow id="JF159814" begin="5360" fromJunction="J0" toJunction="J7" end="5420" vehsPerHour="114.09041979272013"/>
  <flow id="JF159815" begin="5360" fromJunction="J0" toJunction="J5" end="5420" vehsPerHour="51.05976687100804"/>
  <flow id="JF159816" begin="5360" fromJunction="J3" toJunction="J6" end="5420" vehsPerHour="93.27117885338377"/>
  <flow id="JF159817" begin="5360" fromJunction="J3" toJunction="J4" end="5420" vehsPerHour="30.792689924609657"/>
  <flow id="JF159818" begin="5360" fromJunction="J3" toJunction="J7" end="5420" vehsPerHour="66.79186711844281"/>
  <flow id="JF159819" begin="5360" fromJunction="J3" toJunction="J5" end="5420" vehsPerHour="2.9053212767053846"/>
  <flow id="JF159820" begin="5360" fromJunction="J6" toJunction="J4" end="5420" vehsPerHour="7.257822269420526"/>
  <flow id="JF159821" begin="5360" fromJunction="J6" toJunction="J7" end="5420" vehsPerHour="12.271069659604033"/>
  <flow id="JF159822" begin="5360" fromJunction="J6" toJunction="J5" end="5420" vehsPerHour="32.33137317918395"/>
  <flow id="JF159823" begin="5360" fromJunction="J4" toJunction="J6" end="5420" vehsPerHour="11.181436894005127"/>
  <flow id="JF159824" begin="5360" fromJunction="J4" toJunction="J7" end="5420" vehsPerHour="61.490314728044304"/>
  <flow id="JF159825" begin="5360" fromJunction="J4" toJunction="J5" end="5420" vehsPerHour="63.44244944210519"/>
  <flow id="JF159826" begin="5360" fromJunction="J7" toJunction="J6" end="5420" vehsPerHour="60.86962437260916"/>
  <flow id="JF159827" begin="5360" fromJunction="J7" toJunction="J4" end="5420" vehsPerHour="53.286024313577244"/>
  <flow id="JF159828" begin="5360" fromJunction="J7" toJunction="J5" end="5420" vehsPerHour="5.486659156073677"/>
  <flow id="JF159829" begin="5360" fromJunction="J5" toJunction="J6" end="5420" vehsPerHour="36.52175178009076"/>
  <flow id="JF159830" begin="5360" fromJunction="J5" toJunction="J4" end="5420" vehsPerHour="45.36761391281975"/>
  <flow id="JF159831" begin="5360" fromJunction="J5" toJunction="J7" end="5420" vehsPerHour="35.28486080738509"/>
  <flow id="JF159832" begin="5360" fromJunction="J6" toJunction="J0" end="5420" vehsPerHour="36.942936650910745"/>
  <flow id="JF159833" begin="5360" fromJunction="J6" toJunction="J3" end="5420" vehsPerHour="66.48360511318359"/>
  <flow id="JF159834" begin="5360" fromJunction="J4" toJunction="J0" end="5420" vehsPerHour="38.09451621933463"/>
  <flow id="JF159835" begin="5360" fromJunction="J4" toJunction="J3" end="5420" vehsPerHour="57.40907799687544"/>
  <flow id="JF159836" begin="5360" fromJunction="J7" toJunction="J0" end="5420" vehsPerHour="25.848844251445996"/>
  <flow id="JF159837" begin="5360" fromJunction="J7" toJunction="J3" end="5420" vehsPerHour="48.078078032480384"/>
  <flow id="JF159838" begin="5360" fromJunction="J5" toJunction="J0" end="5420" vehsPerHour="2.6207161530147913"/>
  <flow id="JF159839" begin="5360" fromJunction="J5" toJunction="J3" end="5420" vehsPerHour="65.82569986367702"/>
  <flow id="JF159840" begin="5420" fromJunction="J0" toJunction="J3" end="5480" vehsPerHour="34.660226279771464"/>
  <flow id="JF159841" begin="5420" fromJunction="J3" toJunction="J0" end="5480" vehsPerHour="166.49540652974468"/>
  <flow id="JF159842" begin="5420" fromJunction="J0" toJunction="J6" end="5480" vehsPerHour="117.93068973271282"/>
  <flow id="JF159843" begin="5420" fromJunction="J0" toJunction="J4" end="5480" vehsPerHour="96.97906159592269"/>
  <flow id="JF159844" begin="5420" fromJunction="J0" toJunction="J7" end="5480" vehsPerHour="97.38678208874487"/>
  <flow id="JF159845" begin="5420" fromJunction="J0" toJunction="J5" end="5480" vehsPerHour="80.81932148823475"/>
  <flow id="JF159846" begin="5420" fromJunction="J3" toJunction="J6" end="5480" vehsPerHour="115.0412925365918"/>
  <flow id="JF159847" begin="5420" fromJunction="J3" toJunction="J4" end="5480" vehsPerHour="96.05545573588111"/>
  <flow id="JF159848" begin="5420" fromJunction="J3" toJunction="J7" end="5480" vehsPerHour="63.41914714335928"/>
  <flow id="JF159849" begin="5420" fromJunction="J3" toJunction="J5" end="5480" vehsPerHour="52.69844344949357"/>
  <flow id="JF159850" begin="5420" fromJunction="J6" toJunction="J4" end="5480" vehsPerHour="51.97192984604252"/>
  <flow id="JF159851" begin="5420" fromJunction="J6" toJunction="J7" end="5480" vehsPerHour="23.94385836154022"/>
  <flow id="JF159852" begin="5420" fromJunction="J6" toJunction="J5" end="5480" vehsPerHour="34.486888784293804"/>
  <flow id="JF159853" begin="5420" fromJunction="J4" toJunction="J6" end="5480" vehsPerHour="39.79097395493095"/>
  <flow id="JF159854" begin="5420" fromJunction="J4" toJunction="J7" end="5480" vehsPerHour="18.769878439369762"/>
  <flow id="JF159855" begin="5420" fromJunction="J4" toJunction="J5" end="5480" vehsPerHour="4.3695370079385425"/>
  <flow id="JF159856" begin="5420" fromJunction="J7" toJunction="J6" end="5480" vehsPerHour="42.87095491391538"/>
  <flow id="JF159857" begin="5420" fromJunction="J7" toJunction="J4" end="5480" vehsPerHour="66.8087784277071"/>
  <flow id="JF159858" begin="5420" fromJunction="J7" toJunction="J5" end="5480" vehsPerHour="40.685162291560246"/>
  <flow id="JF159859" begin="5420" fromJunction="J5" toJunction="J6" end="5480" vehsPerHour="39.51812541165085"/>
  <flow id="JF159860" begin="5420" fromJunction="J5" toJunction="J4" end="5480" vehsPerHour="66.05712605572731"/>
  <flow id="JF159861" begin="5420" fromJunction="J5" toJunction="J7" end="5480" vehsPerHour="9.498063321868962"/>
  <flow id="JF159862" begin="5420" fromJunction="J6" toJunction="J0" end="5480" vehsPerHour="62.539862008058535"/>
  <flow id="JF159863" begin="5420" fromJunction="J6" toJunction="J3" end="5480" vehsPerHour="24.599219478815517"/>
  <flow id="JF159864" begin="5420" fromJunction="J4" toJunction="J0" end="5480" vehsPerHour="50.970355032640754"/>
  <flow id="JF159865" begin="5420" fromJunction="J4" toJunction="J3" end="5480" vehsPerHour="4.365605779418437"/>
  <flow id="JF159866" begin="5420" fromJunction="J7" toJunction="J0" end="5480" vehsPerHour="25.222155515405117"/>
  <flow id="JF159867" begin="5420" fromJunction="J7" toJunction="J3" end="5480" vehsPerHour="36.49505565434753"/>
  <flow id="JF159868" begin="5420" fromJunction="J5" toJunction="J0" end="5480" vehsPerHour="35.65777167713934"/>
  <flow id="JF159869" begin="5420" fromJunction="J5" toJunction="J3" end="5480" vehsPerHour="47.07827205620155"/>
  <flow id="JF159870" begin="5480" fromJunction="J0" toJunction="J3" end="5540" vehsPerHour="297.30343216667166"/>
  <flow id="JF159871" begin="5480" fromJunction="J3" toJunction="J0" end="5540" vehsPerHour="235.72960790960593"/>
  <flow id="JF159872" begin="5480" fromJunction="J0" toJunction="J6" end="5540" vehsPerHour="131.36754767523422"/>
  <flow id="JF159873" begin="5480" fromJunction="J0" toJunction="J4" end="5540" vehsPerHour="95.46133803267666"/>
  <flow id="JF159874" begin="5480" fromJunction="J0" toJunction="J7" end="5540" vehsPerHour="99.9299128849606"/>
  <flow id="JF159875" begin="5480" fromJunction="J0" toJunction="J5" end="5540" vehsPerHour="29.755560412550192"/>
  <flow id="JF159876" begin="5480" fromJunction="J3" toJunction="J6" end="5540" vehsPerHour="7.484715411619279"/>
  <flow id="JF159877" begin="5480" fromJunction="J3" toJunction="J4" end="5540" vehsPerHour="9.309444941924808"/>
  <flow id="JF159878" begin="5480" fromJunction="J3" toJunction="J7" end="5540" vehsPerHour="91.39132391781945"/>
  <flow id="JF159879" begin="5480" fromJunction="J3" toJunction="J5" end="5540" vehsPerHour="19.773795138000807"/>
  <flow id="JF159880" begin="5480" fromJunction="J6" toJunction="J4" end="5540" vehsPerHour="12.660390429178253"/>
  <flow id="JF159881" begin="5480" fromJunction="J6" toJunction="J7" end="5540" vehsPerHour="20.874789780716736"/>
  <flow id="JF159882" begin="5480" fromJunction="J6" toJunction="J5" end="5540" vehsPerHour="54.55201597637508"/>
  <flow id="JF159883" begin="5480" fromJunction="J4" toJunction="J6" end="5540" vehsPerHour="39.96459895824153"/>
  <flow id="JF159884" begin="5480" fromJunction="J4" toJunction="J7" end="5540" vehsPerHour="20.2717662822923"/>
  <flow id="JF159885" begin="5480" fromJunction="J4" toJunction="J5" end="5540" vehsPerHour="22.82023008058567"/>
  <flow id="JF159886" begin="5480" fromJunction="J7" toJunction="J6" end="5540" vehsPerHour="39.60771747273622"/>
  <flow id="JF159887" begin="5480" fromJunction="J7" toJunction="J4" end="5540" vehsPerHour="1.8489608784637257"/>
  <flow id="JF159888" begin="5480" fromJunction="J7" toJunction="J5" end="5540" vehsPerHour="28.39656301887784"/>
  <flow id="JF159889" begin="5480" fromJunction="J5" toJunction="J6" end="5540" vehsPerHour="2.725531201315465"/>
  <flow id="JF159890" begin="5480" fromJunction="J5" toJunction="J4" end="5540" vehsPerHour="25.386385796649968"/>
  <flow id="JF159891" begin="5480" fromJunction="J5" toJunction="J7" end="5540" vehsPerHour="1.777516384573158"/>
  <flow id="JF159892" begin="5480" fromJunction="J6" toJunction="J0" end="5540" vehsPerHour="44.47621423843525"/>
  <flow id="JF159893" begin="5480" fromJunction="J6" toJunction="J3" end="5540" vehsPerHour="11.367124883573512"/>
  <flow id="JF159894" begin="5480" fromJunction="J4" toJunction="J0" end="5540" vehsPerHour="51.691928730657324"/>
  <flow id="JF159895" begin="5480" fromJunction="J4" toJunction="J3" end="5540" vehsPerHour="6.01904384983009"/>
  <flow id="JF159896" begin="5480" fromJunction="J7" toJunction="J0" end="5540" vehsPerHour="11.772770792636322"/>
  <flow id="JF159897" begin="5480" fromJunction="J7" toJunction="J3" end="5540" vehsPerHour="3.185620904958809"/>
  <flow id="JF159898" begin="5480" fromJunction="J5" toJunction="J0" end="5540" vehsPerHour="10.047968977428397"/>
  <flow id="JF159899" begin="5480" fromJunction="J5" toJunction="J3" end="5540" vehsPerHour="62.032482663043176"/>
  <flow id="JF159900" begin="5540" fromJunction="J0" toJunction="J3" end="5600" vehsPerHour="503.00562411562373"/>