<?xml version="1.0" encoding="UTF-8"?>
<routes xmlns:xsi="http://www.w3.org/2001/XMLSchema-instance" xsi:noNamespaceSchemaLocation="http://sumo.dlr.de/xsd/routes_file.xsd">
  <flow id="JF149600" begin="0" fromJunction="J0" toJunction="J3" end="5000" vehsPerHour="650.7601983660976"/>
  <flow id="JF149601" begin="0" fromJunction="J3" toJunction="J0" end="5000" vehsPerHour="910.566814063871"/>
  <flow id="JF149602" begin="0" fromJunction="J0" toJunction="J6" end="5000" vehsPerHour="99.09891727949498"/>
  <flow id="JF149603" begin="0" fromJunction="J0" toJunction="J4" end="5000" vehsPerHour="135.98658049989368"/>
  <flow id="JF149604" begin="0" fromJunction="J0" toJunction="J7" end="5000" vehsPerHour="121.60469965206336"/>
  <flow id="JF149605" begin="0" fromJunction="J0" toJunction="J5" end="5000" vehsPerHour="113.57410963537481"/>
  <flow id="JF149606" begin="0" fromJunction="J3" toJunction="J6" end="5000" vehsPerHour="80.73808562939989"/>
  <flow id="JF149607" begin="0" fromJunction="J3" toJunction="J4" end="5000" vehsPerHour="120.2428850320776"/>
  <flow id="JF149608" begin="0" fromJunction="J3" toJunction="J7" end="5000" vehsPerHour="121.39235939523381"/>
  <flow id="JF149609" begin="0" fromJunction="J3" toJunction="J5" end="5000" vehsPerHour="133.30794791904793"/>
  <flow id="JF149610" begin="0" fromJunction="J6" toJunction="J4" end="5000" vehsPerHour="274.7449896840613"/>
  <flow id="JF149611" begin="0" fromJunction="J6" toJunction="J7" end="5000" vehsPerHour="163.24953067967408"/>
  <flow id="JF149612" begin="0" fromJunction="J6" toJunction="J5" end="5000" vehsPerHour="82.78556935121793"/>
  <flow id="JF149613" begin="0" fromJunction="J4" toJunction="J6" end="5000" vehsPerHour="81.4837319276123"/>
  <flow id="JF149614" begin="0" fromJunction="J4" toJunction="J7" end="5000" vehsPerHour="46.50655006203759"/>
  <flow id="JF149615" begin="0" fromJunction="J4" toJunction="J5" end="5000" vehsPerHour="211.73532428223734"/>
  <flow id="JF149616" begin="0" fromJunction="J7" toJunction="J6" end="5000" vehsPerHour="69.8751697514197"/>
  <flow id="JF149617" begin="0" fromJunction="J7" toJunction="J4" end="5000" vehsPerHour="166.59769084025444"/>
  <flow id="JF149618" begin="0" fromJunction="J7" toJunction="J5" end="5000" vehsPerHour="61.085148640928566"/>
  <flow id="JF149619" begin="0" fromJunction="J5" toJunction="J6" end="5000" vehsPerHour="17.58520213113023"/>
  <flow id="JF149620" begin="0" fromJunction="J5" toJunction="J4" end="5000" vehsPerHour="18.784439898195927"/>
  <flow id="JF149621" begin="0" fromJunction="J5" toJunction="J7" end="5000" vehsPerHour="41.217291525839386"/>
  <flow id="JF149622" begin="0" fromJunction="J6" toJunction="J0" end="5000" vehsPerHour="12.96649861108648"/>
  <flow id="JF149623" begin="0" fromJunction="J6" toJunction="J3" end="5000" vehsPerHour="51.904488736163465"/>
  <flow id="JF149624" begin="0" fromJunction="J4" toJunction="J0" end="5000" vehsPerHour="33.94799890483021"/>
  <flow id="JF149625" begin="0" fromJunction="J4" toJunction="J3" end="5000" vehsPerHour="68.51771303899596"/>
  <flow id="JF149626" begin="0" fromJunction="J7" toJunction="J0" end="5000" vehsPerHour="15.721726876715316"/>
  <flow id="JF149627" begin="0" fromJunction="J7" toJunction="J3" end="5000" vehsPerHour="45.82270843977248"/>
  <flow id="JF149628" begin="0" fromJunction="J5" toJunction="J0" end="5000" vehsPerHour="63.16162253125471"/>
  <flow id="JF149629" begin="0" fromJunction="J5" toJunction="J3" end="5000" vehsPerHour="50.63987637336358"/>
  <flow id="JF149630" begin="5000" fromJunction="J0" toJunction="J3" end="5060" vehsPerHour="340.71973204564006"/>
  <flow id="JF149631" begin="5000" fromJunction="J3" toJunction="J0" end="5060" vehsPerHour="342.7476755608063"/>
  <flow id="JF149632" begin="5000" fromJunction="J0" toJunction="J6" end="5060" vehsPerHour="84.5771493738176"/>
  <flow id="JF149633" begin="5000" fromJunction="J0" toJunction="J4" end="5060" vehsPerHour="41.50128764066939"/>
  <flow id="JF149634" begin="5000" fromJunction="J0" toJunction="J7" end="5060" vehsPerHour="60.48347872215607"/>
  <flow id="JF149635" begin="5000" fromJunction="J0" toJunction="J5" end="5060" vehsPerHour="129.5641496643207"/>
  <flow id="JF149636" begin="5000" fromJunction="J3" toJunction="J6" end="5060" vehsPerHour="85.9197725783308"/>
  <flow id="JF149637" begin="5000" fromJunction="J3" toJunction="J4" end="5060" vehsPerHour="64.53747220691235"/>
  <flow id="JF149638" begin="5000" fromJunction="J3" toJunction="J7" end="5060" vehsPerHour="77.33986281971298"/>
  <flow id="JF149639" begin="5000" fromJunction="J3" toJunction="J5" end="5060" vehsPerHour="16.184453757497018"/>
  <flow id="JF149640" begin="5060" fromJunction="J0" toJunction="J3" end="5120" vehsPerHour="217.4942993300741"/>
  <flow id="JF149641" begin="5060" fromJunction="J3" toJunction="J0" end="5120" vehsPerHour="401.92847539959484"/>
  <flow id="JF149642" begin="5060" fromJunction="J0" toJunction="J6" end="5120" vehsPerHour="75.44593202298454"/>
  <flow id="JF149643" begin="5060" fromJunction="J0" toJunction="J4" end="5120" vehsPerHour="106.27372607724703"/>
  <flow id="JF149644" begin="5060" fromJunction="J0" toJunction="J7" end="5120" vehsPerHour="57.92224920374207"/>
  <flow id="JF149645" begin="5060" fromJunction="J0" toJunction="J5" end="5120" vehsPerHour="125.73311079777626"/>
  <flow id="JF149646" begin="5060" fromJunction="J3" toJunction="J6" end="5120" vehsPerHour="12.482189973554238"/>
  <flow id="JF149647" begin="5060" fromJunction="J3" toJunction="J4" end="5120" vehsPerHour="51.975607167616495"/>
  <flow id="JF149648" begin="5060" fromJunction="J3" toJunction="J7" end="5120" vehsPerHour="50.316451668454455"/>
  <flow id="JF149649" begin="5060" fromJunction="J3" toJunction="J5" end="5120" vehsPerHour="56.785485231429284"/>
  <flow id="JF149650" begin="5120" fromJunction="J0" toJunction="J3" end="5180" vehsPerHour="416.5609322159675"/>
  <flow id="JF149651" begin="5120" fromJunction="J3" toJunction="J0" end="5180" vehsPerHour="347.9301935358872"/>
  <flow id="JF149652" begin="5120" fromJunction="J0" toJunction="J6" end="5180" vehsPerHour="68.24816667365091"/>
  <flow id="JF149653" begin="5120" fromJunction="J0" toJunction="J4" end="5180" vehsPerHour="34.21168221432965"/>
  <flow id="JF149654" begin="5120" fromJunction="J0" toJunction="J7" end="5180" vehsPerHour="66.4016335789497"/>
  <flow id="JF149655" begin="5120" fromJunction="J0" toJunction="J5" end="5180" vehsPerHour="61.587612188220625"/>
  <flow id="JF149656" begin="5120" fromJunction="J3" toJunction="J6" end="5180" vehsPerHour="1.636391034423211"/>
  <flow id="JF149657" begin="5120" fromJunction="J3" toJunction="J4" end="5180" vehsPerHour="119.80796095606709"/>
  <flow id="JF149658" begin="5120" fromJunction="J3" toJunction="J7" end="5180" vehsPerHour="58.547264551209196"/>
  <flow id="JF149659" begin="5120" fromJunction="J3" toJunction="J5" end="5180" vehsPerHour="117.79350330022594"/>
  <flow id="JF149660" begin="5120" fromJunction="J6" toJunction="J4" end="5180" vehsPerHour="11.194888790568957"/>
  <flow id="JF149661" begin="5120" fromJunction="J6" toJunction="J7" end="5180" vehsPerHour="21.135731561436817"/>
  <flow id="JF149662" begin="5120" fromJunction="J6" toJunction="J5" end="5180" vehsPerHour="35.054067671119235"/>
  <flow id="JF149663" begin="5120" fromJunction="J4" toJunction="J6" end="5180" vehsPerHour="7.4563537190980025"/>
  <flow id="JF149664" begin="5120" fromJunction="J4" toJunction="J7" end="5180" vehsPerHour="64.13900573098381"/>
  <flow id="JF149665" begin="5120" fromJunction="J4" toJunction="J5" end="5180" vehsPerHour="15.030355621025631"/>
  <flow id="JF149666" begin="5120" fromJunction="J7" toJunction="J6" end="5180" vehsPerHour="67.26406148840418"/>
  <flow id="JF149667" begin="5120" fromJunction="J7" toJunction="J4" end="5180" vehsPerHour="51.509110829138805"/>
  <flow id="JF149668" begin="5120" fromJunction="J7" toJunction="J5" end="5180" vehsPerHour="59.340543311914395"/>
  <flow id="JF149669" begin="5120" fromJunction="J5" toJunction="J6" end="5180" vehsPerHour="52.70186085375174"/>
  <flow id="JF149670" begin="5120" fromJunction="J5" toJunction="J4" end="5180" vehsPerHour="11.322649262500514"/>
  <flow id="JF149671" begin="5120" fromJunction="J5" toJunction="J7" end="5180" vehsPerHour="43.30202151730471"/>
  <flow id="JF149672" begin="5120" fromJunction="J6" toJunction="J0" end="5180" vehsPerHour="19.511330087102447"/>
  <flow id="JF149673" begin="5120" fromJunction="J6" toJunction="J3" end="5180" vehsPerHour="39.565265378339625"/>
  <flow id="JF149674" begin="5120" fromJunction="J4" toJunction="J0" end="5180" vehsPerHour="22.433075536089774"/>
  <flow id="JF149675" begin="5120" fromJunction="J4" toJunction="J3" end="5180" vehsPerHour="57.53698183723099"/>
  <flow id="JF149676" begin="5120" fromJunction="J7" toJunction="J0" end="5180" vehsPerHour="27.0999140617442"/>
  <flow id="JF149677" begin="5120" fromJunction="J7" toJunction="J3" end="5180" vehsPerHour="40.69097377788527"/>
  <flow id="JF149678" begin="5120" fromJunction="J5" toJunction="J0" end="5180" vehsPerHour="49.90577977601314"/>
  <flow id="JF149679" begin="5120" fromJunction="J5" toJunction="J3" end="5180" vehsPerHour="50.76695729277338"/>
  <flow id="JF149680" begin="5180" fromJunction="J0" toJunction="J3" end="5240" vehsPerHour="201.4817513231578"/>
  <flow id="JF149681" begin="5180" fromJunction="J3" toJunction="J0" end="5240" vehsPerHour="491.09661694839133"/>
  <flow id="JF149682" begin="5180" fromJunction="J0" toJunction="J6" end="5240" vehsPerHour="66.00482552283646"/>
  <flow id="JF149683" begin="5180" fromJunction="J0" toJunction="J4" end="5240" vehsPerHour="95.8996540345789"/>
  <flow id="JF149684" begin="5180" fromJunction="J0" toJunction="J7" end="5240" vehsPerHour="25.64839440559407"/>
  <flow id="JF149685" begin="5180" fromJunction="J0" toJunction="J5" end="5240" vehsPerHour="69.76900112080789"/>
  <flow id="JF149686" begin="5180" fromJunction="J3" toJunction="J6" end="5240" vehsPerHour="97.1193325789276"/>
  <flow id="JF149687" begin="5180" fromJunction="J3" toJunction="J4" end="5240" vehsPerHour="114.41861224555659"/>
  <flow id="JF149688" begin="5180" fromJunction="J3" toJunction="J7" end="5240" vehsPerHour="114.6041577628769"/>
  <flow id="JF149689" begin="5180" fromJunction="J3" toJunction="J5" end="5240" vehsPerHour="63.61799180172369"/>
  <flow id="JF149690" begin="5180" fromJunction="J6" toJunction="J4" end="5240" vehsPerHour="52.03803646269645"/>
  <flow id="JF149691" begin="5180" fromJunction="J6" toJunction="J7" end="5240" vehsPerHour="49.0310098207029"/>
  <flow id="JF149692" begin="5180" fromJunction="J6" toJunction="J5" end="5240" vehsPerHour="65.55514365567929"/>
  <flow id="JF149693" begin="5180" fromJunction="J4" toJunction="J6" end="5240" vehsPerHour="10.394776715763369"/>
  <flow id="JF149694" begin="5180" fromJunction="J4" toJunction="J7" end="5240" vehsPerHour="48.572100130138914"/>
  <flow id="JF149695" begin="5180" fromJunction="J4" toJunction="J5" end="5240" vehsPerHour="56.53984542796989"/>
  <flow id="JF149696" begin="5180" fromJunction="J7" toJunction="J6" end="5240" vehsPerHour="49.966677741204904"/>
  <flow id="JF149697" begin="5180" fromJunction="J7" toJunction="J4" end="5240" vehsPerHour="57.06224687819682"/>
  <flow id="JF149698" begin="5180" fromJunction="J7" toJunction="J5" end="5240" vehsPerHour="2.0115628535719194"/>
  <flow id="JF149699" begin="5180" fromJunction="J5" toJunction="J6" end="5240" vehsPerHour="22.290854992959176"/>
  <flow id="JF149700" begin="5180" fromJunction="J5" toJunction="J4" end="5240" vehsPerHour="36.87888142275982"/>
  <flow id="JF149701" begin="5180" fromJunction="J5" toJunction="J7" end="5240" vehsPerHour="28.081784342562656"/>
  <flow id="JF149702" begin="5180" fromJunction="J6" toJunction="J0" end="5240" vehsPerHour="39.27254491886587"/>
  <flow id="JF149703" begin="5180" fromJunction="J6" toJunction="J3" end="5240" vehsPerHour="2.4127413243189637"/>
  <flow id="JF149704" begin="5180" fromJunction="J4" toJunction="J0" end="5240" vehsPerHour="65.98138025021574"/>
  <flow id="JF149705" begin="5180" fromJunction="J4" toJunction="J3" end="5240" vehsPerHour="56.799342580587"/>
  <flow id="JF149706" begin="5180" fromJunction="J7" toJunction="J0" end="5240" vehsPerHour="45.82055411079468"/>
  <flow id="JF149707" begin="5180" fromJunction="J7" toJunction="J3" end="5240" vehsPerHour="41.75176401354461"/>
  <flow id="JF149708" begin="5180" fromJunction="J5" toJunction="J0" end="5240" vehsPerHour="63.05660580960183"/>
  <flow id="JF149709" begin="5180" fromJunction="J5" toJunction="J3" end="5240" vehsPerHour="30.006493607366338"/>
  <flow id="JF149710" begin="5240" fromJunction="J0" toJunction="J3" end="5300" vehsPerHour="42.29952311473534"/>
  <flow id="JF149711" begin="5240" fromJunction="J3" toJunction="J0" end="5300" vehsPerHour="127.27210043841171"/>
  <flow id="JF149712" begin="5240" fromJunction="J0" toJunction="J6" end="5300" vehsPerHour="102.59219416783768"/>
  <flow id="JF149713" begin="5240" fromJunction="J0" toJunction="J4" end="5300" vehsPerHour="44.02858197235695"/>
  <flow id="JF149714" begin="5240" fromJunction="J0" toJunction="J7" end="5300" vehsPerHour="128.80380927969165"/>
  <flow id="JF149715" begin="5240" fromJunction="J0" toJunction="J5" end="5300" vehsPerHour="16.316520037170438"/>
  <flow id="JF149716" begin="5240" fromJunction="J3" toJunction="J6" end="5300" vehsPerHour="123.40380835475207"/>
  <flow id="JF149717" begin="5240" fromJunction="J3" toJunction="J4" end="5300" vehsPerHour="15.536886491830423"/>
  <flow id="JF149718" begin="5240" fromJunction="J3" toJunction="J7" end="5300" vehsPerHour="125.50672422453727"/>
  <flow id="JF149719" begin="5240" fromJunction="J3" toJunction="J5" end="5300" vehsPerHour="82.90780843581415"/>
  <flow id="JF149720" begin="5240" fromJunction="J6" toJunction="J4" end="5300" vehsPerHour="42.31773336256378"/>
  <flow id="JF149721" begin="5240" fromJunction="J6" toJunction="J7" end="5300" vehsPerHour="16.495035989451445"/>
  <flow id="JF149722" begin="5240" fromJunction="J6" toJunction="J5" end="5300" vehsPerHour="10.255044418213306"/>
  <flow id="JF149723" begin="5240" fromJunction="J4" toJunction="J6" end="5300" vehsPerHour="4.444394924191821"/>
  <flow id="JF149724" begin="5240" fromJunction="J4" toJunction="J7" end="5300" vehsPerHour="6.132587800408561"/>
  <flow id="JF149725" begin="5240" fromJunction="J4" toJunction="J5" end="5300" vehsPerHour="7.433985950948652"/>
  <flow id="JF149726" begin="5240" fromJunction="J7" toJunction="J6" end="5300" vehsPerHour="4.476912236485017"/>
  <flow id="JF149727" begin="5240" fromJunction="J7" toJunction="J4" end="5300" vehsPerHour="3.0780468887627164"/>
  <flow id="JF149728" begin="5240" fromJunction="J7" toJunction="J5" end="5300" vehsPerHour="55.36121250495207"/>
  <flow id="JF149729" begin="5240" fromJunction="J5" toJunction="J6" end="5300" vehsPerHour="53.24089940679764"/>
  <flow id="JF149730" begin="5240" fromJunction="J5" toJunction="J4" end="5300" vehsPerHour="17.252913862553488"/>
  <flow id="JF149731" begin="5240" fromJunction="J5" toJunction="J7" end="5300" vehsPerHour="26.828279402290974"/>
  <flow id="JF149732" begin="5240" fromJunction="J6" toJunction="J0" end="5300" vehsPerHour="12.536774929243558"/>
  <flow id="JF149733" begin="5240" fromJunction="J6" toJunction="J3" end="5300" vehsPerHour="60.326432975048874"/>
  <flow id="JF149734" begin="5240" fromJunction="J4" toJunction="J0" end="5300" vehsPerHour="62.93961599313075"/>
  <flow id="JF149735" begin="5240" fromJunction="J4" toJunction="J3" end="5300" vehsPerHour="29.389834538359334"/>
  <flow id="JF149736" begin="5240" fromJunction="J7" toJunction="J0" end="5300" vehsPerHour="33.45248347884588"/>
  <flow id="JF149737" begin="5240" fromJunction="J7" toJunction="J3" end="5300" vehsPerHour="29.16148259879726"/>
  <flow id="JF149738" begin="5240" fromJunction="J5" toJunction="J0" end="5300" vehsPerHour="19.968446731483194"/>
  <flow id="JF149739" begin="5240" fromJunction="J5" toJunction="J3" end="5300" vehsPerHour="63.79426720092118"/>
  <flow id="JF149740" begin="5300" fromJunction="J0" toJunction="J3" end="5360" vehsPerHour="79.27185933901671"/>
  <flow id="JF149741" begin="5300" fromJunction="J3" toJunction="J0" end="5360" vehsPerHour="52.369553923214326"/>
  <flow id="JF149742" begin="5300" fromJunction="J0" toJunction="J6" end="5360" vehsPerHour="64.5948179014898"/>
  <flow id="JF149743" begin="5300" fromJunction="J0" toJunction="J4" end="5360" vehsPerHour="95.2387227474171"/>
  <flow id="JF149744" begin="5300" fromJunction="J0" toJunction="J7" end="5360" vehsPerHour="111.18599479595689"/>
  <flow id="JF149745" begin="5300" fromJunction="J0" toJunction="J5" end="5360" vehsPerHour="100.45325254256753"/>
  <flow id="JF149746" begin="5300" fromJunction="J3" toJunction="J6" end="5360" vehsPerHour="118.33920108085816"/>
  <flow id="JF149747" begin="5300" fromJunction="J3" toJunction="J4" end="5360" vehsPerHour="110.28235942524039"/>
  <flow id="JF149748" begin="5300" fromJunction="J3" toJunction="J7" end="5360" vehsPerHour="51.706497040507394"/>
  <flow id="JF149749" begin="5300" fromJunction="J3" toJunction="J5" end="5360" vehsPerHour="113.62222401984918"/>
  <flow id="JF149750" begin="5300" fromJunction="J6" toJunction="J4" end="5360" vehsPerHour="59.85219359142985"/>
  <flow id="JF149751" begin="5300" fromJunction="J6" toJunction="J7" end="5360" vehsPerHour="28.162412520497845"/>
  <flow id="JF149752" begin="5300" fromJunction="J6" toJunction="J5" end="5360" vehsPerHour="7.789846879966663"/>
  <flow id="JF149753" begin="5300" fromJunction="J4" toJunction="J6" end="5360" vehsPerHour="23.49699894837386"/>
  <flow id="JF149754" begin="5300" fromJunction="J4" toJunction="J7" end="5360" vehsPerHour="29.619061855905795"/>
  <flow id="JF149755" begin="5300" fromJunction="J4" toJunction="J5" end="5360" vehsPerHour="16.36902659763142"/>
  <flow id="JF149756" begin="5300" fromJunction="J7" toJunction="J6" end="5360" vehsPerHour="53.85754532133141"/>
  <flow id="JF149757" begin="5300" fromJunction="J7" toJunction="J4" end="5360" vehsPerHour="27.487769187470555"/>
  <flow id="JF149758" begin="5300" fromJunction="J7" toJunction="J5" end="5360" vehsPerHour="8.06868988895324"/>
  <flow id="JF149759" begin="5300" fromJunction="J5" toJunction="J6" end="5360" vehsPerHour="8.622648011154395"/>
  <flow id="JF149760" begin="5300" fromJunction="J5" toJunction="J4" end="5360" vehsPerHour="14.943176564916683"/>
  <flow id="JF149761" begin="5300" fromJunction="J5" toJunction="J7" end="5360" vehsPerHour="12.860590303281757"/>
  <flow id="JF149762" begin="5300" fromJunction="J6" toJunction="J0" end="5360" vehsPerHour="27.298993940865632"/>
  <flow id="JF149763" begin="5300" fromJunction="J6" toJunction="J3" end="5360" vehsPerHour="11.835592609475794"/>
  <flow id="JF149764" begin="5300" fromJunction="J4" toJunction="J0" end="5360" vehsPerHour="60.6776547913777"/>
  <flow id="JF149765" begin="5300" fromJunction="J4" toJunction="J3" end="5360" vehsPerHour="51.303360635280576"/>
  <flow id="JF149766" begin="5300" fromJunction="J7" toJunction="J0" end="5360" vehsPerHour="28.31659241536952"/>
  <flow id="JF149767" begin="5300" fromJunction="J7" toJunction="J3" end="5360" vehsPerHour="9.974971477001885"/>
  <flow id="JF149768" begin="5300" fromJunction="J5" toJunction="J0" end="5360" vehsPerHour="0.0959789002025682"/>
  <flow id="JF149769" begin="5300" fromJunction="J5" toJunction="J3" end="5360" vehsPerHour="53.92309328372445"/>
  <flow id="JF149770" begin="5360" fromJunction="J0" toJunction="J3" end="5420" vehsPerHour="412.9820624361464"/>
  <flow id="JF149771" begin="5360" fromJunction="J3" toJunction="J0" end="5420" vehsPerHour="540.9806655940066"/>
  <flow id="JF149772" begin="5360" fromJunction="J0" toJunction="J6" end="5420" vehsPerHour="4.074418632428894"/>
  <flow id="JF149773" begin="5360" fromJunction="J0" toJunction="J4" end="5420" vehsPerHour="39.275849057826676"/>
  <flow id="JF149774" begin="5360" fromJunction="J0" toJunction="J7" end="5420" vehsPerHour="92.61497064578505"/>
  <flow id="JF149775" begin="5360" fromJunction="J0" toJunction="J5" end="5420" vehsPerHour="89.55346318766078"/>
  <flow id="JF149776" begin="5360" fromJunction="J3" toJunction="J6" end="5420" vehsPerHour="78.73856293968325"/>
  <flow id="JF149777" begin="5360" fromJunction="J3" toJunction="J4" end="5420" vehsPerHour="38.26441709838186"/>
  <flow id="JF149778" begin="5360" fromJunction="J3" toJunction="J7" end="5420" vehsPerHour="28.791739582027763"/>
  <flow id="JF149779" begin="5360" fromJunction="J3" toJunction="J5" end="5420" vehsPerHour="37.89774246394618"/>
  <flow id="JF149780" begin="5360" fromJunction="J6" toJunction="J4" end="5420" vehsPerHour="63.51968685171301"/>
  <flow id="JF149781" begin="5360" fromJunction="J6" toJunction="J7" end="5420" vehsPerHour="17.07937266004882"/>
  <flow id="JF149782" begin="5360" fromJunction="J6" toJunction="J5" end="5420" vehsPerHour="9.702283420573306"/>
  <flow id="JF149783" begin="5360" fromJunction="J4" toJunction="J6" end="5420" vehsPerHour="58.43163399740482"/>
  <flow id="JF149784" begin="5360" fromJunction="J4" toJunction="J7" end="5420" vehsPerHour="58.34956883085253"/>
  <flow id="JF149785" begin="5360" fromJunction="J4" toJunction="J5" end="5420" vehsPerHour="9.593154988294827"/>
  <flow id="JF149786" begin="5360" fromJunction="J7" toJunction="J6" end="5420" vehsPerHour="2.1408207235328294"/>
  <flow id="JF149787" begin="5360" fromJunction="J7" toJunction="J4" end="5420" vehsPerHour="17.47693565879725"/>
  <flow id="JF149788" begin="5360" fromJunction="J7" toJunction="J5" end="5420" vehsPerHour="3.951237773653791"/>
  <flow id="JF149789" begin="5360" fromJunction="J5" toJunction="J6" end="5420" vehsPerHour="58.65256066100555"/>
  <flow id="JF149790" begin="5360" fromJunction="J5" toJunction="J4" end="5420" vehsPerHour="42.28446907540564"/>
  <flow id="JF149791" begin="5360" fromJunction="J5" toJunction="J7" end="5420" vehsPerHour="8.881859581993478"/>
  <flow id="JF149792" begin="5360" fromJunction="J6" toJunction="J0" end="5420" vehsPerHour="47.03726070278489"/>
  <flow id="JF149793" begin="5360" fromJunction="J6" toJunction="J3" end="5420" vehsPerHour="23.93183943599619"/>
  <flow id="JF149794" begin="5360" fromJunction="J4" toJunction="J0" end="5420" vehsPerHour="18.795706074896597"/>
  <flow id="JF149795" begin="5360" fromJunction="J4" toJunction="J3" end="5420" vehsPerHour="37.7013900714031"/>
  <flow id="JF149796" begin="5360" fromJunction="J7" toJunction="J0" end="5420" vehsPerHour="3.7071428937816884"/>
  <flow id="JF149797" begin="5360" fromJunction="J7" toJunction="J3" end="5420" vehsPerHour="32.266086262838925"/>
  <flow id="JF149798" begin="5360" fromJunction="J5" toJunction="J0" end="5420" vehsPerHour="57.627642247986415"/>
  <flow id="JF149799" begin="5360" fromJunction="J5" toJunction="J3" end="5420" vehsPerHour="16.429045248183364"/>
  <flow id="JF149800" begin="5420" fromJunction="J0" toJunction="J3" end="5480" vehsPerHour="119.08252889812414"/>
  <flow id="JF149801" begin="5420" fromJunction="J3" toJunction="J0" end="5480" vehsPerHour="415.4052908778035"/>
  <flow id="JF149802" begin="5420" fromJunction="J0" toJunction="J6" end="5480" vehsPerHour="79.35486546127402"/>
  <flow id="JF149803" begin="5420" fromJunction="J0" toJunction="J4" end="5480" vehsPerHour="124.1777069788505"/>
  <flow id="JF149804" begin="5420" fromJunction="J0" toJunction="J7" end="5480" vehsPerHour="80.51007623156886"/>
  <flow id="JF149805" begin="5420" fromJunction="J0" toJunction="J5" end="5480" vehsPerHour="101.39022738015326"/>
  <flow id="JF149806" begin="5420" fromJunction="J3" toJunction="J6" end="5480" vehsPerHour="115.5461281446589"/>
  <flow id="JF149807" begin="5420" fromJunction="J3" toJunction="J4" end="5480" vehsPerHour="39.02306608167608"/>
  <flow id="JF149808" begin="5420" fromJunction="J3" toJunction="J7" end="5480" vehsPerHour="40.68419993255128"/>
  <flow id="JF149809" begin="5420" fromJunction="J3" toJunction="J5" end="5480" vehsPerHour="89.67719263822835"/>
  <flow id="JF149810" begin="5420" fromJunction="J6" toJunction="J4" end="5480" vehsPerHour="46.3234880674706"/>
  <flow id="JF149811" begin="5420" fromJunction="J6" toJunction="J7" end="5480" vehsPerHour="65.05864445907035"/>
  <flow id="JF149812" begin="5420" fromJunction="J6" toJunction="J5" end="5480" vehsPerHour="14.026762107281911"/>
  <flow id="JF149813" begin="5420" fromJunction="J4" toJunction="J6" end="5480" vehsPerHour="37.63866138662132"/>
  <flow id="JF149814" begin="5420" fromJunction="J4" toJunction="J7" end="5480" vehsPerHour="27.133168987267037"/>
  <flow id="JF149815" begin="5420" fromJunction="J4" toJunction="J5" end="5480" vehsPerHour="66.88477005097809"/>
  <flow id="JF149816" begin="5420" fromJunction="J7" toJunction="J6" end="5480" vehsPerHour="51.32535119389045"/>
  <flow id="JF149817" begin="5420" fromJunction="J7" toJunction="J4" end="5480" vehsPerHour="18.36227646411751"/>
  <flow id="JF149818" begin="5420" fromJunction="J7" toJunction="J5" end="5480" vehsPerHour="40.324751243651505"/>
  <flow id="JF149819" begin="5420" fromJunction="J5" toJunction="J6" end="5480" vehsPerHour="52.481254618522094"/>
  <flow id="JF149820" begin="5420" fromJunction="J5" toJunction="J4" end="5480" vehsPerHour="2.606220870964449"/>
  <flow id="JF149821" begin="5420" fromJunction="J5" toJunction="J7" end="5480" vehsPerHour="66.40499628982407"/>
  <flow id="JF149822" begin="5420" fromJunction="J6" toJunction="J0" end="5480" vehsPerHour="6.426016459135038"/>
  <flow id="JF149823" begin="5420" fromJunction="J6" toJunction="J3" end="5480" vehsPerHour="6.118316865721627"/>
  <flow id="JF149824" begin="5420" fromJunction="J4" toJunction="J0" end="5480" vehsPerHour="27.140347176977723"/>
  <flow id="JF149825" begin="5420" fromJunction="J4" toJunction="J3" end="5480" vehsPerHour="49.70490895479858"/>
  <flow id="JF149826" begin="5420" fromJunction="J7" toJunction="J0" end="5480" vehsPerHour="29.409284292026822"/>
  <flow id="JF149827" begin="5420" fromJunction="J7" toJunction="J3" end="5480" vehsPerHour="35.37992084348502"/>
  <flow id="JF149828" begin="5420" fromJunction="J5" toJunction="J0" end="5480" vehsPerHour="23.029593855754424"/>
  <flow id="JF149829" begin="5420" fromJunction="J5" toJunction="J3" end="5480" vehsPerHour="39.231620150876786"/>
  <flow id="JF149830" begin="5480" fromJunction="J0" toJunction="J3" end="5540" vehsPerHour="336.57147684787975"/>
  <flow id="JF149831" begin="5480" fromJunction="J3" toJunction="J0" end="5540" vehsPerHour="506.5611616268972"/>
  <flow id="JF149832" begin="5480" fromJunction="J0" toJunction="J6" end="5540" vehsPerHour="56.12591134185039"/>
  <flow id="JF149833" begin="5480" fromJunction="J0" toJunction="J4" end="5540" vehsPerHour="64.97138005396371"/>
  <flow id="JF149834" begin="5480" fromJunction="J0" toJunction="J7" end="5540" vehsPerHour="43.42698469161326"/>
  <flow id="JF149835" begin="5480" fromJunction="J0" toJunction="J5" end="5540" vehsPerHour="129.54576273000367"/>
  <flow id="JF149836" begin="5480" fromJunction="J3" toJunction="J6" end="5540" vehsPerHour="129.75499267643826"/>
  <flow id="JF149837" begin="5480" fromJunction="J3" toJunction="J4" end="5540" vehsPerHour="91.43480027199178"/>
  <flow id="JF149838" begin="5480" fromJunction="J3" toJunction="J7" end="5540" vehsPerHour="31.60889523644639"/>
  <flow id="JF149839" begin="5480" fromJunction="J3" toJunction="J5" end="5540" vehsPerHour="16.547786793302414"/>
  <flow id="JF149840" begin="5480" fromJunction="J6" toJunction="J4" end="5540" vehsPerHour="4.252222219718369"/>
  <flow id="JF149841" begin="5480" fromJunction="J6" toJunction="J7" end="5540" vehsPerHour="43.1120152992326"/>
  <flow id="JF149842" begin="5480" fromJunction="J6" toJunction="J5" end="5540" vehsPerHour="22.66633742784884"/>
  <flow id="JF149843" begin="5480" fromJunction="J4" toJunction="J6" end="5540" vehsPerHour="46.881528776068514"/>
  <flow id="JF149844" begin="5480" fromJunction="J4" toJunction="J7" end="5540" vehsPerHour="45.50841153468523"/>
  <flow id="JF149845" begin="5480" fromJunction="J4" toJunction="J5" end="5540" vehsPerHour="61.79231717136772"/>
  <flow id="JF149846" begin="5480" fromJunction="J7" toJunction="J6" end="5540" vehsPerHour="5.91993397446413"/>
  <flow id="JF149847" begin="5480" fromJunction="J7" toJunction="J4" end="5540" vehsPerHour="33.705878277491166"/>
  <flow id="JF149848" begin="5480" fromJunction="J7" toJunction="J5" end="5540" vehsPerHour="30.791580390564487"/>
  <flow id="JF149849" begin="5480" fromJunction="J5" toJunction="J6" end="5540" vehsPerHour="45.16345683251522"/>
  <flow id="JF149850" begin="5480" fromJunction="J5" toJunction="J4" end="5540" vehsPerHour="10.007174133692942"/>
  <flow id="JF149851" begin="5480" fromJunction="J5" toJunction="J7" end="5540" vehsPerHour="28.021696908395462"/>
  <flow id="JF149852" begin="5480" fromJunction="J6" toJunction="J0" end="5540" vehsPerHour="8.429037536967996"/>
  <flow id="JF149853" begin="5480" fromJunction="J6" toJunction="J3" end="5540" vehsPerHour="31.951153515115323"/>
  <flow id="JF149854" begin="5480" fromJunction="J4" toJunction="J0" end="5540" vehsPerHour="42.84236189734607"/>
  <flow id="JF149855" begin="5480" fromJunction="J4" toJunction="J3" end="5540" vehsPerHour="3.7877586357384474"/>
  <flow id="JF149856" begin="5480" fromJunction="J7" toJunction="J0" end="5540" vehsPerHour="22.851236257736375"/>
  <flow id="JF149857" begin="5480" fromJunction="J7" toJunction="J3" end="5540" vehsPerHour="10.633922622783826"/>
  <flow id="JF149858" begin="5480" fromJunction="J5" toJunction="J0" end="5540" vehsPerHour="57.848585029769936"/>
  <flow id="JF149859" begin="5480" fromJunction="J5" toJunction="J3" end="5540" vehsPerHour="54.91263330676805"/>
  <flow id="JF149860" begin="5540" fromJunction="J0" toJunction="J3" end="5600" vehsPerHour="306.9682194464233"/>