<?xml version="1.0" encoding="UTF-8"?>
<routes xmlns:xsi="http://www.w3.org/2001/XMLSchema-instance" xsi:noNamespaceSchemaLocation="http://sumo.dlr.de/xsd/routes_file.xsd">
  <flow id="JF161780" begin="0" fromJunction="J0" toJunction="J3" end="5000" vehsPerHour="82.55658992338736"/>
  <flow id="JF161781" begin="0" fromJunction="J3" toJunction="J0" end="5000" vehsPerHour="981.3531015133335"/>
  <flow id="JF161782" begin="0" fromJunction="J0" toJunction="J6" end="5000" vehsPerHour="21.63825793491437"/>
  <flow id="JF161783" begin="0" fromJunction="J0" toJunction="J4" end="5000" vehsPerHour="24.993355680522974"/>
  <flow id="JF161784" begin="0" fromJunction="J0" toJunction="J7" end="5000" vehsPerHour="94.34222160570137"/>
  <flow id="JF161785" begin="0" fromJunction="J0" toJunction="J5" end="5000" vehsPerHour="109.2787598628055"/>
  <flow id="JF161786" begin="0" fromJunction="J3" toJunction="J6" end="5000" vehsPerHour="66.5583477184262"/>
  <flow id="JF161787" begin="0" fromJunction="J3" toJunction="J4" end="5000" vehsPerHour="84.05998231020142"/>
  <flow id="JF161788" begin="0" fromJunction="J3" toJunction="J7" end="5000" vehsPerHour="11.293973079640374"/>
  <flow id="JF161789" begin="0" fromJunction="J3" toJunction="J5" end="5000" vehsPerHour="49.79732184505854"/>
  <flow id="JF161790" begin="0" fromJunction="J6" toJunction="J4" end="5000" vehsPerHour="22.402235004384025"/>
  <flow id="JF161791" begin="0" fromJunction="J6" toJunction="J7" end="5000" vehsPerHour="260.2419396851961"/>
  <flow id="JF161792" begin="0" fromJunction="J6" toJunction="J5" end="5000" vehsPerHour="110.57965234570844"/>
  <flow id="JF161793" begin="0" fromJunction="J4" toJunction="J6" end="5000" vehsPerHour="238.54166309879915"/>
  <flow id="JF161794" begin="0" fromJunction="J4" toJunction="J7" end="5000" vehsPerHour="110.15075837678371"/>
  <flow id="JF161795" begin="0" fromJunction="J4" toJunction="J5" end="5000" vehsPerHour="7.718796212793798"/>
  <flow id="JF161796" begin="0" fromJunction="J7" toJunction="J6" end="5000" vehsPerHour="69.40572495475698"/>
  <flow id="JF161797" begin="0" fromJunction="J7" toJunction="J4" end="5000" vehsPerHour="101.69845837798705"/>
  <flow id="JF161798" begin="0" fromJunction="J7" toJunction="J5" end="5000" vehsPerHour="200.70211920898845"/>
  <flow id="JF161799" begin="0" fromJunction="J5" toJunction="J6" end="5000" vehsPerHour="185.17912479007947"/>
  <flow id="JF161800" begin="0" fromJunction="J5" toJunction="J4" end="5000" vehsPerHour="225.6266094126661"/>
  <flow id="JF161801" begin="0" fromJunction="J5" toJunction="J7" end="5000" vehsPerHour="100.3175722756882"/>
  <flow id="JF161802" begin="0" fromJunction="J6" toJunction="J0" end="5000" vehsPerHour="45.826013164623"/>
  <flow id="JF161803" begin="0" fromJunction="J6" toJunction="J3" end="5000" vehsPerHour="9.237579906463901"/>
  <flow id="JF161804" begin="0" fromJunction="J4" toJunction="J0" end="5000" vehsPerHour="65.71235883967394"/>
  <flow id="JF161805" begin="0" fromJunction="J4" toJunction="J3" end="5000" vehsPerHour="5.566616689521275"/>
  <flow id="JF161806" begin="0" fromJunction="J7" toJunction="J0" end="5000" vehsPerHour="19.68929181658783"/>
  <flow id="JF161807" begin="0" fromJunction="J7" toJunction="J3" end="5000" vehsPerHour="30.058513515800403"/>
  <flow id="JF161808" begin="0" fromJunction="J5" toJunction="J0" end="5000" vehsPerHour="35.29988423475325"/>
  <flow id="JF161809" begin="0" fromJunction="J5" toJunction="J3" end="5000" vehsPerHour="52.41127178269002"/>
  <flow id="JF161810" begin="5000" fromJunction="J0" toJunction="J3" end="5060" vehsPerHour="547.3616800723232"/>
  <flow id="JF161811" begin="5000" fromJunction="J3" toJunction="J0" end="5060" vehsPerHour="190.96566218932765"/>
  <flow id="JF161812" begin="5000" fromJunction="J0" toJunction="J6" end="5060" vehsPerHour="121.39450634057249"/>
  <flow id="JF161813" begin="5000" fromJunction="J0" toJunction="J4" end="5060" vehsPerHour="45.80050207932342"/>
  <flow id="JF161814" begin="5000" fromJunction="J0" toJunction="J7" end="5060" vehsPerHour="73.30993177493558"/>
  <flow id="JF161815" begin="5000" fromJunction="J0" toJunction="J5" end="5060" vehsPerHour="61.71464280708227"/>
  <flow id="JF161816" begin="5000" fromJunction="J3" toJunction="J6" end="5060" vehsPerHour="50.80590884473201"/>
  <flow id="JF161817" begin="5000" fromJunction="J3" toJunction="J4" end="5060" vehsPerHour="13.10009847889584"/>
  <flow id="JF161818" begin="5000" fromJunction="J3" toJunction="J7" end="5060" vehsPerHour="14.246433687217085"/>
  <flow id="JF161819" begin="5000" fromJunction="J3" toJunction="J5" end="5060" vehsPerHour="56.66608791667795"/>
  <flow id="JF161820" begin="5000" fromJunction="J6" toJunction="J4" end="5060" vehsPerHour="23.127883889327197"/>
  <flow id="JF161821" begin="5000" fromJunction="J6" toJunction="J7" end="5060" vehsPerHour="30.300958524522294"/>
  <flow id="JF161822" begin="5000" fromJunction="J6" toJunction="J5" end="5060" vehsPerHour="66.48759937589791"/>
  <flow id="JF161823" begin="5000" fromJunction="J4" toJunction="J6" end="5060" vehsPerHour="65.4646222000759"/>
  <flow id="JF161824" begin="5000" fromJunction="J4" toJunction="J7" end="5060" vehsPerHour="68.24610330494627"/>
  <flow id="JF161825" begin="5000" fromJunction="J4" toJunction="J5" end="5060" vehsPerHour="59.03061044770811"/>
  <flow id="JF161826" begin="5000" fromJunction="J7" toJunction="J6" end="5060" vehsPerHour="14.986144335438897"/>
  <flow id="JF161827" begin="5000" fromJunction="J7" toJunction="J4" end="5060" vehsPerHour="20.311992862945193"/>
  <flow id="JF161828" begin="5000" fromJunction="J7" toJunction="J5" end="5060" vehsPerHour="7.695096681524104"/>
  <flow id="JF161829" begin="5000" fromJunction="J5" toJunction="J6" end="5060" vehsPerHour="30.936440365658072"/>
  <flow id="JF161830" begin="5000" fromJunction="J5" toJunction="J4" end="5060" vehsPerHour="54.06351665090557"/>
  <flow id="JF161831" begin="5000" fromJunction="J5" toJunction="J7" end="5060" vehsPerHour="54.63180888359234"/>
  <flow id="JF161832" begin="5000" fromJunction="J6" toJunction="J0" end="5060" vehsPerHour="30.00796459955999"/>
  <flow id="JF161833" begin="5000" fromJunction="J6" toJunction="J3" end="5060" vehsPerHour="43.95287227274899"/>
  <flow id="JF161834" begin="5000" fromJunction="J4" toJunction="J0" end="5060" vehsPerHour="14.95562741666777"/>
  <flow id="JF161835" begin="5000" fromJunction="J4" toJunction="J3" end="5060" vehsPerHour="45.50933125426524"/>
  <flow id="JF161836" begin="5000" fromJunction="J7" toJunction="J0" end="5060" vehsPerHour="51.223354098951894"/>
  <flow id="JF161837" begin="5000" fromJunction="J7" toJunction="J3" end="5060" vehsPerHour="66.28353334796385"/>
  <flow id="JF161838" begin="5000" fromJunction="J5" toJunction="J0" end="5060" vehsPerHour="27.231956934159314"/>
  <flow id="JF161839" begin="5000" fromJunction="J5" toJunction="J3" end="5060" vehsPerHour="35.32566297438517"/>
  <flow id="JF161840" begin="5060" fromJunction="J0" toJunction="J3" end="5120" vehsPerHour="476.88443637388343"/>
  <flow id="JF161841" begin="5060" fromJunction="J3" toJunction="J0" end="5120" vehsPerHour="337.20220178408334"/>
  <flow id="JF161842" begin="5060" fromJunction="J0" toJunction="J6" end="5120" vehsPerHour="51.14819687785145"/>
  <flow id="JF161843" begin="5060" fromJunction="J0" toJunction="J4" end="5120" vehsPerHour="28.69411007815692"/>
  <flow id="JF161844" begin="5060" fromJunction="J0" toJunction="J7" end="5120" vehsPerHour="67.00728751965916"/>
  <flow id="JF161845" begin="5060" fromJunction="J0" toJunction="J5" end="5120" vehsPerHour="12.991148901349783"/>
  <flow id="JF161846" begin="5060" fromJunction="J3" toJunction="J6" end="5120" vehsPerHour="115.41346221375997"/>
  <flow id="JF161847" begin="5060" fromJunction="J3" toJunction="J4" end="5120" vehsPerHour="3.9675219110810738"/>
  <flow id="JF161848" begin="5060" fromJunction="J3" toJunction="J7" end="5120" vehsPerHour="78.07469548445565"/>
  <flow id="JF161849" begin="5060" fromJunction="J3" toJunction="J5" end="5120" vehsPerHour="17.34491422714332"/>
  <flow id="JF161850" begin="5060" fromJunction="J6" toJunction="J4" end="5120" vehsPerHour="1.4633484921887896"/>
  <flow id="JF161851" begin="5060" fromJunction="J6" toJunction="J7" end="5120" vehsPerHour="21.264012955228768"/>
  <flow id="JF161852" begin="5060" fromJunction="J6" toJunction="J5" end="5120" vehsPerHour="39.06987694562285"/>
  <flow id="JF161853" begin="5060" fromJunction="J4" toJunction="J6" end="5120" vehsPerHour="49.29958667638632"/>
  <flow id="JF161854" begin="5060" fromJunction="J4" toJunction="J7" end="5120" vehsPerHour="57.74411320100212"/>
  <flow id="JF161855" begin="5060" fromJunction="J4" toJunction="J5" end="5120" vehsPerHour="44.38067592882231"/>
  <flow id="JF161856" begin="5060" fromJunction="J7" toJunction="J6" end="5120" vehsPerHour="21.1406510655071"/>
  <flow id="JF161857" begin="5060" fromJunction="J7" toJunction="J4" end="5120" vehsPerHour="6.253419394578519"/>
  <flow id="JF161858" begin="5060" fromJunction="J7" toJunction="J5" end="5120" vehsPerHour="43.17371014288584"/>
  <flow id="JF161859" begin="5060" fromJunction="J5" toJunction="J6" end="5120" vehsPerHour="6.6967996797077465"/>
  <flow id="JF161860" begin="5060" fromJunction="J5" toJunction="J4" end="5120" vehsPerHour="17.75161930038625"/>
  <flow id="JF161861" begin="5060" fromJunction="J5" toJunction="J7" end="5120" vehsPerHour="2.0682516807444737"/>
  <flow id="JF161862" begin="5060" fromJunction="J6" toJunction="J0" end="5120" vehsPerHour="57.5951008992203"/>
  <flow id="JF161863" begin="5060" fromJunction="J6" toJunction="J3" end="5120" vehsPerHour="40.03242921321807"/>
  <flow id="JF161864" begin="5060" fromJunction="J4" toJunction="J0" end="5120" vehsPerHour="12.607898388157109"/>
  <flow id="JF161865" begin="5060" fromJunction="J4" toJunction="J3" end="5120" vehsPerHour="29.37339640867947"/>
  <flow id="JF161866" begin="5060" fromJunction="J7" toJunction="J0" end="5120" vehsPerHour="44.12641384935544"/>
  <flow id="JF161867" begin="5060" fromJunction="J7" toJunction="J3" end="5120" vehsPerHour="29.41888422376561"/>
  <flow id="JF161868" begin="5060" fromJunction="J5" toJunction="J0" end="5120" vehsPerHour="62.753594579132375"/>
  <flow id="JF161869" begin="5060" fromJunction="J5" toJunction="J3" end="5120" vehsPerHour="9.71142440888356"/>
  <flow id="JF161870" begin="5120" fromJunction="J0" toJunction="J3" end="5180" vehsPerHour="466.24147556708766"/>
  <flow id="JF161871" begin="5120" fromJunction="J3" toJunction="J0" end="5180" vehsPerHour="500.18712454644617"/>
  <flow id="JF161872" begin="5120" fromJunction="J0" toJunction="J6" end="5180" vehsPerHour="47.48920662494972"/>
  <flow id="JF161873" begin="5120" fromJunction="J0" toJunction="J4" end="5180" vehsPerHour="69.73186415770262"/>
  <flow id="JF161874" begin="5120" fromJunction="J0" toJunction="J7" end="5180" vehsPerHour="82.48100997022688"/>
  <flow id="JF161875" begin="5120" fromJunction="J0" toJunction="J5" end="5180" vehsPerHour="56.57290618877191"/>
  <flow id="JF161876" begin="5120" fromJunction="J3" toJunction="J6" end="5180" vehsPerHour="2.3007975454065677"/>
  <flow id="JF161877" begin="5120" fromJunction="J3" toJunction="J4" end="5180" vehsPerHour="115.98852919014246"/>
  <flow id="JF161878" begin="5120" fromJunction="J3" toJunction="J7" end="5180" vehsPerHour="14.813956771694498"/>
  <flow id="JF161879" begin="5120" fromJunction="J3" toJunction="J5" end="5180" vehsPerHour="83.89435848786843"/>
  <flow id="JF161880" begin="5180" fromJunction="J0" toJunction="J3" end="5240" vehsPerHour="247.32897599896307"/>
  <flow id="JF161881" begin="5180" fromJunction="J3" toJunction="J0" end="5240" vehsPerHour="85.92549024547404"/>
  <flow id="JF161882" begin="5180" fromJunction="J0" toJunction="J6" end="5240" vehsPerHour="5.42266673826133"/>
  <flow id="JF161883" begin="5180" fromJunction="J0" toJunction="J4" end="5240" vehsPerHour="126.48563502333842"/>
  <flow id="JF161884" begin="5180" fromJunction="J0" toJunction="J7" end="5240" vehsPerHour="93.23276200235264"/>
  <flow id="JF161885" begin="5180" fromJunction="J0" toJunction="J5" end="5240" vehsPerHour="110.98215769614893"/>
  <flow id="JF161886" begin="5180" fromJunction="J3" toJunction="J6" end="5240" vehsPerHour="105.91722714402083"/>
  <flow id="JF161887" begin="5180" fromJunction="J3" toJunction="J4" end="5240" vehsPerHour="51.78442393886277"/>
  <flow id="JF161888" begin="5180" fromJunction="J3" toJunction="J7" end="5240" vehsPerHour="132.86995872524997"/>
  <flow id="JF161889" begin="5180" fromJunction="J3" toJunction="J5" end="5240" vehsPerHour="34.998601257049536"/>
  <flow id="JF161890" begin="5240" fromJunction="J0" toJunction="J3" end="5300" vehsPerHour="252.51871599501703"/>
  <flow id="JF161891" begin="5240" fromJunction="J3" toJunction="J0" end="5300" vehsPerHour="403.37004883010064"/>
  <flow id="JF161892" begin="5240" fromJunction="J0" toJunction="J6" end="5300" vehsPerHour="2.8703339366178486"/>
  <flow id="JF161893" begin="5240" fromJunction="J0" toJunction="J4" end="5300" vehsPerHour="58.48227664133488"/>
  <flow id="JF161894" begin="5240" fromJunction="J0" toJunction="J7" end="5300" vehsPerHour="8.525261648051055"/>
  <flow id="JF161895" begin="5240" fromJunction="J0" toJunction="J5" end="5300" vehsPerHour="115.16908152286106"/>
  <flow id="JF161896" begin="5240" fromJunction="J3" toJunction="J6" end="5300" vehsPerHour="6.470055542108526"/>
  <flow id="JF161897" begin="5240" fromJunction="J3" toJunction="J4" end="5300" vehsPerHour="77.39723987581134"/>
  <flow id="JF161898" begin="5240" fromJunction="J3" toJunction="J7" end="5300" vehsPerHour="113.91517731111614"/>
  <flow id="JF161899" begin="5240" fromJunction="J3" toJunction="J5" end="5300" vehsPerHour="77.62474793063494"/>
  <flow id="JF161900" begin="5240" fromJunction="J6" toJunction="J4" end="5300" vehsPerHour="58.47900801676927"/>
  <flow id="JF161901" begin="5240" fromJunction="J6" toJunction="J7" end="5300" vehsPerHour="22.525860137330397"/>
  <flow id="JF161902" begin="5240" fromJunction="J6" toJunction="J5" end="5300" vehsPerHour="32.628557424472305"/>
  <flow id="JF161903" begin="5240" fromJunction="J4" toJunction="J6" end="5300" vehsPerHour="66.39068747421572"/>
  <flow id="JF161904" begin="5240" fromJunction="J4" toJunction="J7" end="5300" vehsPerHour="4.001422531704337"/>
  <flow id="JF161905" begin="5240" fromJunction="J4" toJunction="J5" end="5300" vehsPerHour="28.983626059850565"/>
  <flow id="JF161906" begin="5240" fromJunction="J7" toJunction="J6" end="5300" vehsPerHour="29.0100656593799"/>
  <flow id="JF161907" begin="5240" fromJunction="J7" toJunction="J4" end="5300" vehsPerHour="19.665918482406852"/>
  <flow id="JF161908" begin="5240" fromJunction="J7" toJunction="J5" end="5300" vehsPerHour="20.046961632134316"/>
  <flow id="JF161909" begin="5240" fromJunction="J5" toJunction="J6" end="5300" vehsPerHour="30.338987164369268"/>
  <flow id="JF161910" begin="5240" fromJunction="J5" toJunction="J4" end="5300" vehsPerHour="63.179943209683735"/>
  <flow id="JF161911" begin="5240" fromJunction="J5" toJunction="J7" end="5300" vehsPerHour="32.22756689623906"/>
  <flow id="JF161912" begin="5240" fromJunction="J6" toJunction="J0" end="5300" vehsPerHour="58.111403272018876"/>
  <flow id="JF161913" begin="5240" fromJunction="J6" toJunction="J3" end="5300" vehsPerHour="31.79297518943492"/>
  <flow id="JF161914" begin="5240" fromJunction="J4" toJunction="J0" end="5300" vehsPerHour="1.0958382400191635"/>
  <flow id="JF161915" begin="5240" fromJunction="J4" toJunction="J3" end="5300" vehsPerHour="61.27438164312832"/>
  <flow id="JF161916" begin="5240" fromJunction="J7" toJunction="J0" end="5300" vehsPerHour="2.4896147321339694"/>
  <flow id="JF161917" begin="5240" fromJunction="J7" toJunction="J3" end="5300" vehsPerHour="35.57404724100771"/>
  <flow id="JF161918" begin="5240" fromJunction="J5" toJunction="J0" end="5300" vehsPerHour="65.63107346077155"/>
  <flow id="JF161919" begin="5240" fromJunction="J5" toJunction="J3" end="5300" vehsPerHour="58.00379968753526"/>
  <flow id="JF161920" begin="5300" fromJunction="J0" toJunction="J3" end="5360" vehsPerHour="472.7819360675158"/>
  <flow id="JF161921" begin="5300" fromJunction="J3" toJunction="J0" end="5360" vehsPerHour="422.5100553591748"/>
  <flow id="JF161922" begin="5300" fromJunction="J0" toJunction="J6" end="5360" vehsPerHour="120.10048588068346"/>
  <flow id="JF161923" begin="5300" fromJunction="J0" toJunction="J4" end="5360" vehsPerHour="135.55357578245142"/>
  <flow id="JF161924" begin="5300" fromJunction="J0" toJunction="J7" end="5360" vehsPerHour="97.65928476554315"/>
  <flow id="JF161925" begin="5300" fromJunction="J0" toJunction="J5" end="5360" vehsPerHour="10.291264912264834"/>
  <flow id="JF161926" begin="5300" fromJunction="J3" toJunction="J6" end="5360" vehsPerHour="122.63056205033915"/>
  <flow id="JF161927" begin="5300" fromJunction="J3" toJunction="J4" end="5360" vehsPerHour="106.435050597589"/>
  <flow id="JF161928" begin="5300" fromJunction="J3" toJunction="J7" end="5360" vehsPerHour="97.78489882544368"/>
  <flow id="JF161929" begin="5300" fromJunction="J3" toJunction="J5" end="5360" vehsPerHour="80.61635724791445"/>
  <flow id="JF161930" begin="5300" fromJunction="J6" toJunction="J4" end="5360" vehsPerHour="41.55153301020268"/>
  <flow id="JF161931" begin="5300" fromJunction="J6" toJunction="J7" end="5360" vehsPerHour="37.13594850823847"/>
  <flow id="JF161932" begin="5300" fromJunction="J6" toJunction="J5" end="5360" vehsPerHour="18.44727175380272"/>
  <flow id="JF161933" begin="5300" fromJunction="J4" toJunction="J6" end="5360" vehsPerHour="35.49398169138449"/>
  <flow id="JF161934" begin="5300" fromJunction="J4" toJunction="J7" end="5360" vehsPerHour="16.553065947498734"/>
  <flow id="JF161935" begin="5300" fromJunction="J4" toJunction="J5" end="5360" vehsPerHour="4.723642561234741"/>
  <flow id="JF161936" begin="5300" fromJunction="J7" toJunction="J6" end="5360" vehsPerHour="33.55821458782781"/>
  <flow id="JF161937" begin="5300" fromJunction="J7" toJunction="J4" end="5360" vehsPerHour="27.9805833598693"/>
  <flow id="JF161938" begin="5300" fromJunction="J7" toJunction="J5" end="5360" vehsPerHour="1.1247054945830548"/>
  <flow id="JF161939" begin="5300" fromJunction="J5" toJunction="J6" end="5360" vehsPerHour="14.362758817931477"/>
  <flow id="JF161940" begin="5300" fromJunction="J5" toJunction="J4" end="5360" vehsPerHour="32.32551246389572"/>
  <flow id="JF161941" begin="5300" fromJunction="J5" toJunction="J7" end="5360" vehsPerHour="15.711909908903088"/>
  <flow id="JF161942" begin="5300" fromJunction="J6" toJunction="J0" end="5360" vehsPerHour="52.76368169163784"/>
  <flow id="JF161943" begin="5300" fromJunction="J6" toJunction="J3" end="5360" vehsPerHour="35.03754657037193"/>
  <flow id="JF161944" begin="5300" fromJunction="J4" toJunction="J0" end="5360" vehsPerHour="8.996496637222112"/>
  <flow id="JF161945" begin="5300" fromJunction="J4" toJunction="J3" end="5360" vehsPerHour="9.271165814870699"/>
  <flow id="JF161946" begin="5300" fromJunction="J7" toJunction="J0" end="5360" vehsPerHour="50.23162203506835"/>
  <flow id="JF161947" begin="5300" fromJunction="J7" toJunction="J3" end="5360" vehsPerHour="54.20308504133223"/>
  <flow id="JF161948" begin="5300" fromJunction="J5" toJunction="J0" end="5360" vehsPerHour="42.18528165095453"/>
  <flow id="JF161949" begin="5300" fromJunction="J5" toJunction="J3" end="5360" vehsPerHour="30.020546499275518"/>
  <flow id="JF161950" begin="5360" fromJunction="J0" toJunction="J3" end="5420" vehsPerHour="135.792964580685"/>
  <flow id="JF161951" begin="5360" fromJunction="J3" toJunction="J0" end="5420" vehsPerHour="37.34672370851427"/>
  <flow id="JF161952" begin="5360" fromJunction="J0" toJunction="J6" end="5420" vehsPerHour="98.13679347403853"/>
  <flow id="JF161953" begin="5360" fromJunction="J0" toJunction="J4" end="5420" vehsPerHour="22.544451277194362"/>
  <flow id="JF161954" begin="5360" fromJunction="J0" toJunction="J7" end="5420" vehsPerHour="13.362419573858313"/>
  <flow id="JF161955" begin="5360" fromJunction="J0" toJunction="J5" end="5420" vehsPerHour="113.33272752045774"/>
  <flow id="JF161956" begin="5360" fromJunction="J3" toJunction="J6" end="5420" vehsPerHour="22.188757773623824"/>
  <flow id="JF161957" begin="5360" fromJunction="J3" toJunction="J4" end="5420" vehsPerHour="74.706797489022"/>
  <flow id="JF161958" begin="5360" fromJunction="J3" toJunction="J7" end="5420" vehsPerHour="86.39937874971301"/>
  <flow id="JF161959" begin="5360" fromJunction="J3" toJunction="J5" end="5420" vehsPerHour="49.565890136317826"/>
  <flow id="JF161960" begin="5360" fromJunction="J6" toJunction="J4" end="5420" vehsPerHour="1.6073794072112428"/>
  <flow id="JF161961" begin="5360" fromJunction="J6" toJunction="J7" end="5420" vehsPerHour="6.598628277922574"/>
  <flow id="JF161962" begin="5360" fromJunction="J6" toJunction="J5" end="5420" vehsPerHour="14.849232532418824"/>
  <flow id="JF161963" begin="5360" fromJunction="J4" toJunction="J6" end="5420" vehsPerHour="4.257638206455827"/>
  <flow id="JF161964" begin="5360" fromJunction="J4" toJunction="J7" end="5420" vehsPerHour="60.54047794060561"/>
  <flow id="JF161965" begin="5360" fromJunction="J4" toJunction="J5" end="5420" vehsPerHour="12.93653094304193"/>
  <flow id="JF161966" begin="5360" fromJunction="J7" toJunction="J6" end="5420" vehsPerHour="35.7228393392607"/>
  <flow id="JF161967" begin="5360" fromJunction="J7" toJunction="J4" end="5420" vehsPerHour="13.049677032120261"/>
  <flow id="JF161968" begin="5360" fromJunction="J7" toJunction="J5" end="5420" vehsPerHour="56.30498293335248"/>
  <flow id="JF161969" begin="5360" fromJunction="J5" toJunction="J6" end="5420" vehsPerHour="37.87460026988031"/>
  <flow id="JF161970" begin="5360" fromJunction="J5" toJunction="J4" end="5420" vehsPerHour="36.23241538975189"/>
  <flow id="JF161971" begin="5360" fromJunction="J5" toJunction="J7" end="5420" vehsPerHour="64.7169937154296"/>
  <flow id="JF161972" begin="5360" fromJunction="J6" toJunction="J0" end="5420" vehsPerHour="58.12740035811978"/>
  <flow id="JF161973" begin="5360" fromJunction="J6" toJunction="J3" end="5420" vehsPerHour="14.612022507172325"/>
  <flow id="JF161974" begin="5360" fromJunction="J4" toJunction="J0" end="5420" vehsPerHour="28.424565957418412"/>
  <flow id="JF161975" begin="5360" fromJunction="J4" toJunction="J3" end="5420" vehsPerHour="5.1252404105679465"/>
  <flow id="JF161976" begin="5360" fromJunction="J7" toJunction="J0" end="5420" vehsPerHour="30.674255921359787"/>
  <flow id="JF161977" begin="5360" fromJunction="J7" toJunction="J3" end="5420" vehsPerHour="53.38049553639985"/>
  <flow id="JF161978" begin="5360" fromJunction="J5" toJunction="J0" end="5420" vehsPerHour="27.354402769639883"/>
  <flow id="JF161979" begin="5360" fromJunction="J5" toJunction="J3" end="5420" vehsPerHour="7.227255535460704"/>
  <flow id="JF161980" begin="5420" fromJunction="J0" toJunction="J3" end="5480" vehsPerHour="518.6443502092253"/>
  <flow id="JF161981" begin="5420" fromJunction="J3" toJunction="J0" end="5480" vehsPerHour="516.4537611241763"/>
  <flow id="JF161982" begin="5420" fromJunction="J0" toJunction="J6" end="5480" vehsPerHour="12.97724122445396"/>
  <flow id="JF161983" begin="5420" fromJunction="J0" toJunction="J4" end="5480" vehsPerHour="60.70785829625395"/>
  <flow id="JF161984" begin="5420" fromJunction="J0" toJunction="J7" end="5480" vehsPerHour="94.72365754891688"/>
  <flow id="JF161985" begin="5420" fromJunction="J0" toJunction="J5" end="5480" vehsPerHour="9.483628718966834"/>
  <flow id="JF161986" begin="5420" fromJunction="J3" toJunction="J6" end="5480" vehsPerHour="25.60355171318768"/>
  <flow id="JF161987" begin="5420" fromJunction="J3" toJunction="J4" end="5480" vehsPerHour="49.94240564026134"/>
  <flow id="JF161988" begin="5420" fromJunction="J3" toJunction="J7" end="5480" vehsPerHour="20.36816415658165"/>
  <flow id="JF161989" begin="5420" fromJunction="J3" toJunction="J5" end="5480" vehsPerHour="88.31826058187994"/>
  <flow id="JF161990" begin="5420" fromJunction="J6" toJunction="J4" end="5480" vehsPerHour="39.05354056197194"/>
  <flow id="JF161991" begin="5420" fromJunction="J6" toJunction="J7" end="5480" vehsPerHour="16.981705895417424"/>
  <flow id="JF161992" begin="5420" fromJunction="J6" toJunction="J5" end="5480" vehsPerHour="38.28194448736263"/>
  <flow id="JF161993" begin="5420" fromJunction="J4" toJunction="J6" end="5480" vehsPerHour="18.174363986012263"/>
  <flow id="JF161994" begin="5420" fromJunction="J4" toJunction="J7" end="5480" vehsPerHour="48.7197821583401"/>
  <flow id="JF161995" begin="5420" fromJunction="J4" toJunction="J5" end="5480" vehsPerHour="65.38991319710811"/>
  <flow id="JF161996" begin="5420" fromJunction="J7" toJunction="J6" end="5480" vehsPerHour="50.49335518700808"/>
  <flow id="JF161997" begin="5420" fromJunction="J7" toJunction="J4" end="5480" vehsPerHour="8.749189021911116"/>
  <flow id="JF161998" begin="5420" fromJunction="J7" toJunction="J5" end="5480" vehsPerHour="39.69962463062161"/>
  <flow id="JF161999" begin="5420" fromJunction="J5" toJunction="J6" end="5480" vehsPerHour="16.140413556414323"/>
  <flow id="JF162000" begin="5420" fromJunction="J5" toJunction="J4" end="5480" vehsPerHour="64.77244225142262"/>
  <flow id="JF162001" begin="5420" fromJunction="J5" toJunction="J7" end="5480" vehsPerHour="56.06935589916508"/>
  <flow id="JF162002" begin="5420" fromJunction="J6" toJunction="J0" end="5480" vehsPerHour="22.824337008450975"/>
  <flow id="JF162003" begin="5420" fromJunction="J6" toJunction="J3" end="5480" vehsPerHour="67.83395373407954"/>
  <flow id="JF162004" begin="5420" fromJunction="J4" toJunction="J0" end="5480" vehsPerHour="52.16880145400189"/>
  <flow id="JF162005" begin="5420" fromJunction="J4" toJunction="J3" end="5480" vehsPerHour="50.33805526413986"/>
  <flow id="JF162006" begin="5420" fromJunction="J7" toJunction="J0" end="5480" vehsPerHour="26.733658345938665"/>
  <flow id="JF162007" begin="5420" fromJunction="J7" toJunction="J3" end="5480" vehsPerHour="52.46494576461315"/>
  <flow id="JF162008" begin="5420" fromJunction="J5" toJunction="J0" end="5480" vehsPerHour="32.91800799618092"/>
  <flow id="JF162009" begin="5420" fromJunction="J5" toJunction="J3" end="5480" vehsPerHour="43.83725276560114"/>
  <flow id="JF162010" begin="5480" fromJunction="J0" toJunction="J3" end="5540" vehsPerHour="75.13997448876071"/>
  <flow id="JF162011" begin="5480" fromJunction="J3" toJunction="J0" end="5540" vehsPerHour="131.69478233203034"/>
  <flow id="JF162012" begin="5480" fromJunction="J0" toJunction="J6" end="5540" vehsPerHour="135.38230135094108"/>
  <flow id="JF162013" begin="5480" fromJunction="J0" toJunction="J4" end="5540" vehsPerHour="118.12972911557753"/>
  <flow id="JF162014" begin="5480" fromJunction="J0" toJunction="J7" end="5540" vehsPerHour="55.13144001416807"/>
  <flow id="JF162015" begin="5480" fromJunction="J0" toJunction="J5" end="5540" vehsPerHour="75.21202645602126"/>
  <flow id="JF162016" begin="5480" fromJunction="J3" toJunction="J6" end="5540" vehsPerHour="95.07080495808829"/>
  <flow id="JF162017" begin="5480" fromJunction="J3" toJunction="J4" end="5540" vehsPerHour="67.47733554747437"/>
  <flow id="JF162018" begin="5480" fromJunction="J3" toJunction="J7" end="5540" vehsPerHour="117.67097800747578"/>
  <flow id="JF162019" begin="5480" fromJunction="J3" toJunction="J5" end="5540" vehsPerHour="110.15407110777599"/>
  <flow id="JF162020" begin="5480" fromJunction="J6" toJunction="J4" end="5540" vehsPerHour="59.04572457054024"/>
  <flow id="JF162021" begin="5480" fromJunction="J6" toJunction="J7" end="5540" vehsPerHour="47.72309850288924"/>
  <flow id="JF162022" begin="5480" fromJunction="J6" toJunction="J5" end="5540" vehsPerHour="60.379656114413"/>
  <flow id="JF162023" begin="5480" fromJunction="J4" toJunction="J6" end="5540" vehsPerHour="49.20504802005389"/>
  <flow id="JF162024" begin="5480" fromJunction="J4" toJunction="J7" end="5540" vehsPerHour="36.491517301943546"/>
  <flow id="JF162025" begin="5480" fromJunction="J4" toJunction="J5" end="5540" vehsPerHour="35.8067454407851"/>
  <flow id="JF162026" begin="5480" fromJunction="J7" toJunction="J6" end="5540" vehsPerHour="63.54382332901931"/>
  <flow id="JF162027" begin="5480" fromJunction="J7" toJunction="J4" end="5540" vehsPerHour="52.517439579954946"/>
  <flow id="JF162028" begin="5480" fromJunction="J7" toJunction="J5" end="5540" vehsPerHour="45.58896089389262"/>
  <flow id="JF162029" begin="5480" fromJunction="J5" toJunction="J6" end="5540" vehsPerHour="46.8345680421513"/>
  <flow id="JF162030" begin="5480" fromJunction="J5" toJunction="J4" end="5540" vehsPerHour="14.613308496817599"/>
  <flow id="JF162031" begin="5480" fromJunction="J5" toJunction="J7" end="5540" vehsPerHour="0.2780809239175464"/>
  <flow id="JF162032" begin="5480" fromJunction="J6" toJunction="J0" end="5540" vehsPerHour="43.71730645994262"/>
  <flow id="JF162033" begin="5480" fromJunction="J6" toJunction="J3" end="5540" vehsPerHour="1.892417851615164"/>
  <flow id="JF162034" begin="5480" fromJunction="J4" toJunction="J0" end="5540" vehsPerHour="58.83015645100193"/>
  <flow id="JF162035" begin="5480" fromJunction="J4" toJunction="J3" end="5540" vehsPerHour="63.794295009948414"/>
  <flow id="JF162036" begin="5480" fromJunction="J7" toJunction="J0" end="5540" vehsPerHour="40.3008472243755"/>
  <flow id="JF162037" begin="5480" fromJunction="J7" toJunction="J3" end="5540" vehsPerHour="17.42233603448428"/>
  <flow id="JF162038" begin="5480" fromJunction="J5" toJunction="J0" end="5540" vehsPerHour="39.12471521064476"/>
  <flow id="JF162039" begin="5480" fromJunction="J5" toJunction="J3" end="5540" vehsPerHour="48.75969103033878"/>
  <flow id="JF162040" begin="5540" fromJunction="J0" toJunction="J3" end="5600" vehsPerHour="507.32092191530273"/>