<?xml version="1.0" encoding="UTF-8"?>
<routes xmlns:xsi="http://www.w3.org/2001/XMLSchema-instance" xsi:noNamespaceSchemaLocation="http://sumo.dlr.de/xsd/routes_file.xsd">
  <flow id="JF153700" begin="0" fromJunction="J0" toJunction="J3" end="5000" vehsPerHour="1065.008945563746"/>
  <flow id="JF153701" begin="0" fromJunction="J3" toJunction="J0" end="5000" vehsPerHour="18.37932466234922"/>
  <flow id="JF153702" begin="0" fromJunction="J0" toJunction="J6" end="5000" vehsPerHour="125.32047045560267"/>
  <flow id="JF153703" begin="0" fromJunction="J0" toJunction="J4" end="5000" vehsPerHour="4.01444104949917"/>
  <flow id="JF153704" begin="0" fromJunction="J0" toJunction="J7" end="5000" vehsPerHour="5.036349763357406"/>
  <flow id="JF153705" begin="0" fromJunction="J0" toJunction="J5" end="5000" vehsPerHour="22.97677891492425"/>
  <flow id="JF153706" begin="0" fromJunction="J3" toJunction="J6" end="5000" vehsPerHour="67.0832186946096"/>
  <flow id="JF153707" begin="0" fromJunction="J3" toJunction="J4" end="5000" vehsPerHour="133.88784695801058"/>
  <flow id="JF153708" begin="0" fromJunction="J3" toJunction="J7" end="5000" vehsPerHour="116.06479580401226"/>
  <flow id="JF153709" begin="0" fromJunction="J3" toJunction="J5" end="5000" vehsPerHour="25.67965627674895"/>
  <flow id="JF153710" begin="0" fromJunction="J6" toJunction="J4" end="5000" vehsPerHour="143.7662717997001"/>
  <flow id="JF153711" begin="0" fromJunction="J6" toJunction="J7" end="5000" vehsPerHour="121.43067210496149"/>
  <flow id="JF153712" begin="0" fromJunction="J6" toJunction="J5" end="5000" vehsPerHour="38.90587832470241"/>
  <flow id="JF153713" begin="0" fromJunction="J4" toJunction="J6" end="5000" vehsPerHour="32.0601079819979"/>
  <flow id="JF153714" begin="0" fromJunction="J4" toJunction="J7" end="5000" vehsPerHour="159.83051378157896"/>
  <flow id="JF153715" begin="0" fromJunction="J4" toJunction="J5" end="5000" vehsPerHour="19.351442166172216"/>
  <flow id="JF153716" begin="0" fromJunction="J7" toJunction="J6" end="5000" vehsPerHour="129.06328848871152"/>
  <flow id="JF153717" begin="0" fromJunction="J7" toJunction="J4" end="5000" vehsPerHour="89.55360592765412"/>
  <flow id="JF153718" begin="0" fromJunction="J7" toJunction="J5" end="5000" vehsPerHour="132.67006265857665"/>
  <flow id="JF153719" begin="0" fromJunction="J5" toJunction="J6" end="5000" vehsPerHour="210.6654007240641"/>
  <flow id="JF153720" begin="0" fromJunction="J5" toJunction="J4" end="5000" vehsPerHour="123.03546672893536"/>
  <flow id="JF153721" begin="0" fromJunction="J5" toJunction="J7" end="5000" vehsPerHour="205.99630615789243"/>
  <flow id="JF153722" begin="0" fromJunction="J6" toJunction="J0" end="5000" vehsPerHour="38.75737928571274"/>
  <flow id="JF153723" begin="0" fromJunction="J6" toJunction="J3" end="5000" vehsPerHour="45.46608612952357"/>
  <flow id="JF153724" begin="0" fromJunction="J4" toJunction="J0" end="5000" vehsPerHour="14.564379196108652"/>
  <flow id="JF153725" begin="0" fromJunction="J4" toJunction="J3" end="5000" vehsPerHour="53.49563256419967"/>
  <flow id="JF153726" begin="0" fromJunction="J7" toJunction="J0" end="5000" vehsPerHour="54.49138980198434"/>
  <flow id="JF153727" begin="0" fromJunction="J7" toJunction="J3" end="5000" vehsPerHour="60.05707640743591"/>
  <flow id="JF153728" begin="0" fromJunction="J5" toJunction="J0" end="5000" vehsPerHour="68.1343295303923"/>
  <flow id="JF153729" begin="0" fromJunction="J5" toJunction="J3" end="5000" vehsPerHour="48.61172407455647"/>
  <flow id="JF153730" begin="5000" fromJunction="J0" toJunction="J3" end="5060" vehsPerHour="204.00938041578573"/>
  <flow id="JF153731" begin="5000" fromJunction="J3" toJunction="J0" end="5060" vehsPerHour="408.7147299747979"/>
  <flow id="JF153732" begin="5000" fromJunction="J0" toJunction="J6" end="5060" vehsPerHour="125.44375174804657"/>
  <flow id="JF153733" begin="5000" fromJunction="J0" toJunction="J4" end="5060" vehsPerHour="5.9983035685222745"/>
  <flow id="JF153734" begin="5000" fromJunction="J0" toJunction="J7" end="5060" vehsPerHour="110.11891498821427"/>
  <flow id="JF153735" begin="5000" fromJunction="J0" toJunction="J5" end="5060" vehsPerHour="47.936792388730815"/>
  <flow id="JF153736" begin="5000" fromJunction="J3" toJunction="J6" end="5060" vehsPerHour="72.08302242009187"/>
  <flow id="JF153737" begin="5000" fromJunction="J3" toJunction="J4" end="5060" vehsPerHour="136.28671677930535"/>
  <flow id="JF153738" begin="5000" fromJunction="J3" toJunction="J7" end="5060" vehsPerHour="78.01455869291543"/>
  <flow id="JF153739" begin="5000" fromJunction="J3" toJunction="J5" end="5060" vehsPerHour="22.59898480777697"/>
  <flow id="JF153740" begin="5060" fromJunction="J0" toJunction="J3" end="5120" vehsPerHour="479.60820102769264"/>
  <flow id="JF153741" begin="5060" fromJunction="J3" toJunction="J0" end="5120" vehsPerHour="417.48605793871695"/>
  <flow id="JF153742" begin="5060" fromJunction="J0" toJunction="J6" end="5120" vehsPerHour="34.7550260447925"/>
  <flow id="JF153743" begin="5060" fromJunction="J0" toJunction="J4" end="5120" vehsPerHour="28.719395025884257"/>
  <flow id="JF153744" begin="5060" fromJunction="J0" toJunction="J7" end="5120" vehsPerHour="49.96807230937183"/>
  <flow id="JF153745" begin="5060" fromJunction="J0" toJunction="J5" end="5120" vehsPerHour="86.47285727865196"/>
  <flow id="JF153746" begin="5060" fromJunction="J3" toJunction="J6" end="5120" vehsPerHour="41.19502229319265"/>
  <flow id="JF153747" begin="5060" fromJunction="J3" toJunction="J4" end="5120" vehsPerHour="84.71198485831455"/>
  <flow id="JF153748" begin="5060" fromJunction="J3" toJunction="J7" end="5120" vehsPerHour="32.5270547322843"/>
  <flow id="JF153749" begin="5060" fromJunction="J3" toJunction="J5" end="5120" vehsPerHour="53.193116729943526"/>
  <flow id="JF153750" begin="5120" fromJunction="J0" toJunction="J3" end="5180" vehsPerHour="171.06029185842203"/>
  <flow id="JF153751" begin="5120" fromJunction="J3" toJunction="J0" end="5180" vehsPerHour="495.13847350226774"/>
  <flow id="JF153752" begin="5120" fromJunction="J0" toJunction="J6" end="5180" vehsPerHour="35.19693709856658"/>
  <flow id="JF153753" begin="5120" fromJunction="J0" toJunction="J4" end="5180" vehsPerHour="66.9265683563709"/>
  <flow id="JF153754" begin="5120" fromJunction="J0" toJunction="J7" end="5180" vehsPerHour="84.88586031889498"/>
  <flow id="JF153755" begin="5120" fromJunction="J0" toJunction="J5" end="5180" vehsPerHour="136.61192539035076"/>
  <flow id="JF153756" begin="5120" fromJunction="J3" toJunction="J6" end="5180" vehsPerHour="74.59141381978597"/>
  <flow id="JF153757" begin="5120" fromJunction="J3" toJunction="J4" end="5180" vehsPerHour="39.848551120275076"/>
  <flow id="JF153758" begin="5120" fromJunction="J3" toJunction="J7" end="5180" vehsPerHour="2.183136070234238"/>
  <flow id="JF153759" begin="5120" fromJunction="J3" toJunction="J5" end="5180" vehsPerHour="103.26806114201106"/>
  <flow id="JF153760" begin="5120" fromJunction="J6" toJunction="J4" end="5180" vehsPerHour="46.5672804766164"/>
  <flow id="JF153761" begin="5120" fromJunction="J6" toJunction="J7" end="5180" vehsPerHour="53.201050365546806"/>
  <flow id="JF153762" begin="5120" fromJunction="J6" toJunction="J5" end="5180" vehsPerHour="1.7557549516498812"/>
  <flow id="JF153763" begin="5120" fromJunction="J4" toJunction="J6" end="5180" vehsPerHour="42.25697149212242"/>
  <flow id="JF153764" begin="5120" fromJunction="J4" toJunction="J7" end="5180" vehsPerHour="18.302376251535694"/>
  <flow id="JF153765" begin="5120" fromJunction="J4" toJunction="J5" end="5180" vehsPerHour="57.81859850375661"/>
  <flow id="JF153766" begin="5120" fromJunction="J7" toJunction="J6" end="5180" vehsPerHour="54.7389558065184"/>
  <flow id="JF153767" begin="5120" fromJunction="J7" toJunction="J4" end="5180" vehsPerHour="38.70404015162813"/>
  <flow id="JF153768" begin="5120" fromJunction="J7" toJunction="J5" end="5180" vehsPerHour="64.39890361427656"/>
  <flow id="JF153769" begin="5120" fromJunction="J5" toJunction="J6" end="5180" vehsPerHour="51.00496787674679"/>
  <flow id="JF153770" begin="5120" fromJunction="J5" toJunction="J4" end="5180" vehsPerHour="5.35922289050053"/>
  <flow id="JF153771" begin="5120" fromJunction="J5" toJunction="J7" end="5180" vehsPerHour="51.6922553206901"/>
  <flow id="JF153772" begin="5120" fromJunction="J6" toJunction="J0" end="5180" vehsPerHour="59.269431579450305"/>
  <flow id="JF153773" begin="5120" fromJunction="J6" toJunction="J3" end="5180" vehsPerHour="47.040267680428556"/>
  <flow id="JF153774" begin="5120" fromJunction="J4" toJunction="J0" end="5180" vehsPerHour="1.6402476633052177"/>
  <flow id="JF153775" begin="5120" fromJunction="J4" toJunction="J3" end="5180" vehsPerHour="62.9177641985062"/>
  <flow id="JF153776" begin="5120" fromJunction="J7" toJunction="J0" end="5180" vehsPerHour="31.63097784357179"/>
  <flow id="JF153777" begin="5120" fromJunction="J7" toJunction="J3" end="5180" vehsPerHour="28.023684579235677"/>
  <flow id="JF153778" begin="5120" fromJunction="J5" toJunction="J0" end="5180" vehsPerHour="32.59334570026499"/>
  <flow id="JF153779" begin="5120" fromJunction="J5" toJunction="J3" end="5180" vehsPerHour="31.388119015347204"/>
  <flow id="JF153780" begin="5180" fromJunction="J0" toJunction="J3" end="5240" vehsPerHour="447.7515745976852"/>
  <flow id="JF153781" begin="5180" fromJunction="J3" toJunction="J0" end="5240" vehsPerHour="542.793801787111"/>
  <flow id="JF153782" begin="5180" fromJunction="J0" toJunction="J6" end="5240" vehsPerHour="86.26353739806692"/>
  <flow id="JF153783" begin="5180" fromJunction="J0" toJunction="J4" end="5240" vehsPerHour="56.57078787007798"/>
  <flow id="JF153784" begin="5180" fromJunction="J0" toJunction="J7" end="5240" vehsPerHour="134.39268882837513"/>
  <flow id="JF153785" begin="5180" fromJunction="J0" toJunction="J5" end="5240" vehsPerHour="71.52091599848997"/>
  <flow id="JF153786" begin="5180" fromJunction="J3" toJunction="J6" end="5240" vehsPerHour="11.984635627212949"/>
  <flow id="JF153787" begin="5180" fromJunction="J3" toJunction="J4" end="5240" vehsPerHour="127.42339045249744"/>
  <flow id="JF153788" begin="5180" fromJunction="J3" toJunction="J7" end="5240" vehsPerHour="108.1694845451196"/>
  <flow id="JF153789" begin="5180" fromJunction="J3" toJunction="J5" end="5240" vehsPerHour="79.25425918197782"/>
  <flow id="JF153790" begin="5180" fromJunction="J6" toJunction="J4" end="5240" vehsPerHour="27.912578822718334"/>
  <flow id="JF153791" begin="5180" fromJunction="J6" toJunction="J7" end="5240" vehsPerHour="30.609544871030636"/>
  <flow id="JF153792" begin="5180" fromJunction="J6" toJunction="J5" end="5240" vehsPerHour="36.37491021020966"/>
  <flow id="JF153793" begin="5180" fromJunction="J4" toJunction="J6" end="5240" vehsPerHour="39.66852752596182"/>
  <flow id="JF153794" begin="5180" fromJunction="J4" toJunction="J7" end="5240" vehsPerHour="56.60800124442763"/>
  <flow id="JF153795" begin="5180" fromJunction="J4" toJunction="J5" end="5240" vehsPerHour="67.12369979563148"/>
  <flow id="JF153796" begin="5180" fromJunction="J7" toJunction="J6" end="5240" vehsPerHour="56.37219862014872"/>
  <flow id="JF153797" begin="5180" fromJunction="J7" toJunction="J4" end="5240" vehsPerHour="27.61902808351209"/>
  <flow id="JF153798" begin="5180" fromJunction="J7" toJunction="J5" end="5240" vehsPerHour="35.81076041708707"/>
  <flow id="JF153799" begin="5180" fromJunction="J5" toJunction="J6" end="5240" vehsPerHour="35.17700304637184"/>
  <flow id="JF153800" begin="5180" fromJunction="J5" toJunction="J4" end="5240" vehsPerHour="9.15047835004168"/>
  <flow id="JF153801" begin="5180" fromJunction="J5" toJunction="J7" end="5240" vehsPerHour="45.04807162767807"/>
  <flow id="JF153802" begin="5180" fromJunction="J6" toJunction="J0" end="5240" vehsPerHour="4.997703218472207"/>
  <flow id="JF153803" begin="5180" fromJunction="J6" toJunction="J3" end="5240" vehsPerHour="5.79109888958129"/>
  <flow id="JF153804" begin="5180" fromJunction="J4" toJunction="J0" end="5240" vehsPerHour="23.124962556663366"/>
  <flow id="JF153805" begin="5180" fromJunction="J4" toJunction="J3" end="5240" vehsPerHour="45.85272744326322"/>
  <flow id="JF153806" begin="5180" fromJunction="J7" toJunction="J0" end="5240" vehsPerHour="7.489175622335204"/>
  <flow id="JF153807" begin="5180" fromJunction="J7" toJunction="J3" end="5240" vehsPerHour="44.559959436613156"/>
  <flow id="JF153808" begin="5180" fromJunction="J5" toJunction="J0" end="5240" vehsPerHour="20.35189570073696"/>
  <flow id="JF153809" begin="5180" fromJunction="J5" toJunction="J3" end="5240" vehsPerHour="12.78485148765811"/>
  <flow id="JF153810" begin="5240" fromJunction="J0" toJunction="J3" end="5300" vehsPerHour="540.5470511293298"/>
  <flow id="JF153811" begin="5240" fromJunction="J3" toJunction="J0" end="5300" vehsPerHour="543.6109886129098"/>
  <flow id="JF153812" begin="5240" fromJunction="J0" toJunction="J6" end="5300" vehsPerHour="19.249401397076774"/>
  <flow id="JF153813" begin="5240" fromJunction="J0" toJunction="J4" end="5300" vehsPerHour="4.178116934603815"/>
  <flow id="JF153814" begin="5240" fromJunction="J0" toJunction="J7" end="5300" vehsPerHour="28.530279026586165"/>
  <flow id="JF153815" begin="5240" fromJunction="J0" toJunction="J5" end="5300" vehsPerHour="119.52134180350649"/>
  <flow id="JF153816" begin="5240" fromJunction="J3" toJunction="J6" end="5300" vehsPerHour="58.77148216106409"/>
  <flow id="JF153817" begin="5240" fromJunction="J3" toJunction="J4" end="5300" vehsPerHour="9.912431305561153"/>
  <flow id="JF153818" begin="5240" fromJunction="J3" toJunction="J7" end="5300" vehsPerHour="97.85363581247118"/>
  <flow id="JF153819" begin="5240" fromJunction="J3" toJunction="J5" end="5300" vehsPerHour="117.95561088434465"/>
  <flow id="JF153820" begin="5240" fromJunction="J6" toJunction="J4" end="5300" vehsPerHour="52.87839948544034"/>
  <flow id="JF153821" begin="5240" fromJunction="J6" toJunction="J7" end="5300" vehsPerHour="29.596270849394255"/>
  <flow id="JF153822" begin="5240" fromJunction="J6" toJunction="J5" end="5300" vehsPerHour="13.893419715908209"/>
  <flow id="JF153823" begin="5240" fromJunction="J4" toJunction="J6" end="5300" vehsPerHour="41.56130667079468"/>
  <flow id="JF153824" begin="5240" fromJunction="J4" toJunction="J7" end="5300" vehsPerHour="36.32907961584345"/>
  <flow id="JF153825" begin="5240" fromJunction="J4" toJunction="J5" end="5300" vehsPerHour="2.0309678553410344"/>
  <flow id="JF153826" begin="5240" fromJunction="J7" toJunction="J6" end="5300" vehsPerHour="17.514897692660753"/>
  <flow id="JF153827" begin="5240" fromJunction="J7" toJunction="J4" end="5300" vehsPerHour="58.54862989718521"/>
  <flow id="JF153828" begin="5240" fromJunction="J7" toJunction="J5" end="5300" vehsPerHour="23.328046707078848"/>
  <flow id="JF153829" begin="5240" fromJunction="J5" toJunction="J6" end="5300" vehsPerHour="9.902795680599581"/>
  <flow id="JF153830" begin="5240" fromJunction="J5" toJunction="J4" end="5300" vehsPerHour="3.879413973814465"/>
  <flow id="JF153831" begin="5240" fromJunction="J5" toJunction="J7" end="5300" vehsPerHour="21.435668416886323"/>
  <flow id="JF153832" begin="5240" fromJunction="J6" toJunction="J0" end="5300" vehsPerHour="16.882511953298845"/>
  <flow id="JF153833" begin="5240" fromJunction="J6" toJunction="J3" end="5300" vehsPerHour="55.055895766278326"/>
  <flow id="JF153834" begin="5240" fromJunction="J4" toJunction="J0" end="5300" vehsPerHour="55.68854921622107"/>
  <flow id="JF153835" begin="5240" fromJunction="J4" toJunction="J3" end="5300" vehsPerHour="18.025328145710315"/>
  <flow id="JF153836" begin="5240" fromJunction="J7" toJunction="J0" end="5300" vehsPerHour="59.58598516234228"/>
  <flow id="JF153837" begin="5240" fromJunction="J7" toJunction="J3" end="5300" vehsPerHour="24.46208542498378"/>
  <flow id="JF153838" begin="5240" fromJunction="J5" toJunction="J0" end="5300" vehsPerHour="0.6188428992851721"/>
  <flow id="JF153839" begin="5240" fromJunction="J5" toJunction="J3" end="5300" vehsPerHour="56.05399089031496"/>
  <flow id="JF153840" begin="5300" fromJunction="J0" toJunction="J3" end="5360" vehsPerHour="498.4490645656309"/>
  <flow id="JF153841" begin="5300" fromJunction="J3" toJunction="J0" end="5360" vehsPerHour="149.59461626095745"/>
  <flow id="JF153842" begin="5300" fromJunction="J0" toJunction="J6" end="5360" vehsPerHour="25.210978430637446"/>
  <flow id="JF153843" begin="5300" fromJunction="J0" toJunction="J4" end="5360" vehsPerHour="63.83305540417182"/>
  <flow id="JF153844" begin="5300" fromJunction="J0" toJunction="J7" end="5360" vehsPerHour="134.580813889488"/>
  <flow id="JF153845" begin="5300" fromJunction="J0" toJunction="J5" end="5360" vehsPerHour="117.40719107328673"/>
  <flow id="JF153846" begin="5300" fromJunction="J3" toJunction="J6" end="5360" vehsPerHour="30.628479274201062"/>
  <flow id="JF153847" begin="5300" fromJunction="J3" toJunction="J4" end="5360" vehsPerHour="120.95086397901046"/>
  <flow id="JF153848" begin="5300" fromJunction="J3" toJunction="J7" end="5360" vehsPerHour="40.25683604528493"/>
  <flow id="JF153849" begin="5300" fromJunction="J3" toJunction="J5" end="5360" vehsPerHour="133.78094149349496"/>
  <flow id="JF153850" begin="5300" fromJunction="J6" toJunction="J4" end="5360" vehsPerHour="36.2814625464568"/>
  <flow id="JF153851" begin="5300" fromJunction="J6" toJunction="J7" end="5360" vehsPerHour="37.37418435639903"/>
  <flow id="JF153852" begin="5300" fromJunction="J6" toJunction="J5" end="5360" vehsPerHour="67.02864358909294"/>
  <flow id="JF153853" begin="5300" fromJunction="J4" toJunction="J6" end="5360" vehsPerHour="32.42299412427322"/>
  <flow id="JF153854" begin="5300" fromJunction="J4" toJunction="J7" end="5360" vehsPerHour="2.8885858655129604"/>
  <flow id="JF153855" begin="5300" fromJunction="J4" toJunction="J5" end="5360" vehsPerHour="5.303052659381411"/>
  <flow id="JF153856" begin="5300" fromJunction="J7" toJunction="J6" end="5360" vehsPerHour="49.02550505243632"/>
  <flow id="JF153857" begin="5300" fromJunction="J7" toJunction="J4" end="5360" vehsPerHour="57.060367445672476"/>
  <flow id="JF153858" begin="5300" fromJunction="J7" toJunction="J5" end="5360" vehsPerHour="41.25607235195286"/>
  <flow id="JF153859" begin="5300" fromJunction="J5" toJunction="J6" end="5360" vehsPerHour="34.53794392053108"/>
  <flow id="JF153860" begin="5300" fromJunction="J5" toJunction="J4" end="5360" vehsPerHour="23.51857097817341"/>
  <flow id="JF153861" begin="5300" fromJunction="J5" toJunction="J7" end="5360" vehsPerHour="65.57813902622276"/>
  <flow id="JF153862" begin="5300" fromJunction="J6" toJunction="J0" end="5360" vehsPerHour="15.288380722513294"/>
  <flow id="JF153863" begin="5300" fromJunction="J6" toJunction="J3" end="5360" vehsPerHour="36.149330297343"/>
  <flow id="JF153864" begin="5300" fromJunction="J4" toJunction="J0" end="5360" vehsPerHour="12.213078637858144"/>
  <flow id="JF153865" begin="5300" fromJunction="J4" toJunction="J3" end="5360" vehsPerHour="9.377708079806105"/>
  <flow id="JF153866" begin="5300" fromJunction="J7" toJunction="J0" end="5360" vehsPerHour="0.3650674152607033"/>
  <flow id="JF153867" begin="5300" fromJunction="J7" toJunction="J3" end="5360" vehsPerHour="28.127287595645406"/>
  <flow id="JF153868" begin="5300" fromJunction="J5" toJunction="J0" end="5360" vehsPerHour="39.57251346182791"/>
  <flow id="JF153869" begin="5300" fromJunction="J5" toJunction="J3" end="5360" vehsPerHour="27.76035703594244"/>
  <flow id="JF153870" begin="5360" fromJunction="J0" toJunction="J3" end="5420" vehsPerHour="284.1754825197397"/>
  <flow id="JF153871" begin="5360" fromJunction="J3" toJunction="J0" end="5420" vehsPerHour="234.51436017105647"/>
  <flow id="JF153872" begin="5360" fromJunction="J0" toJunction="J6" end="5420" vehsPerHour="72.36400563664236"/>
  <flow id="JF153873" begin="5360" fromJunction="J0" toJunction="J4" end="5420" vehsPerHour="1.7031680034529115"/>
  <flow id="JF153874" begin="5360" fromJunction="J0" toJunction="J7" end="5420" vehsPerHour="19.356557376677692"/>
  <flow id="JF153875" begin="5360" fromJunction="J0" toJunction="J5" end="5420" vehsPerHour="35.7792185825292"/>
  <flow id="JF153876" begin="5360" fromJunction="J3" toJunction="J6" end="5420" vehsPerHour="58.045181963479784"/>
  <flow id="JF153877" begin="5360" fromJunction="J3" toJunction="J4" end="5420" vehsPerHour="119.47635162129147"/>
  <flow id="JF153878" begin="5360" fromJunction="J3" toJunction="J7" end="5420" vehsPerHour="97.7247123105448"/>
  <flow id="JF153879" begin="5360" fromJunction="J3" toJunction="J5" end="5420" vehsPerHour="98.42356415195941"/>
  <flow id="JF153880" begin="5360" fromJunction="J6" toJunction="J4" end="5420" vehsPerHour="14.851568574820293"/>
  <flow id="JF153881" begin="5360" fromJunction="J6" toJunction="J7" end="5420" vehsPerHour="43.046300029058244"/>
  <flow id="JF153882" begin="5360" fromJunction="J6" toJunction="J5" end="5420" vehsPerHour="27.35101877959184"/>
  <flow id="JF153883" begin="5360" fromJunction="J4" toJunction="J6" end="5420" vehsPerHour="29.75066017617124"/>
  <flow id="JF153884" begin="5360" fromJunction="J4" toJunction="J7" end="5420" vehsPerHour="67.62172841180565"/>
  <flow id="JF153885" begin="5360" fromJunction="J4" toJunction="J5" end="5420" vehsPerHour="4.026019424675377"/>
  <flow id="JF153886" begin="5360" fromJunction="J7" toJunction="J6" end="5420" vehsPerHour="45.48081884880093"/>
  <flow id="JF153887" begin="5360" fromJunction="J7" toJunction="J4" end="5420" vehsPerHour="6.216574865500831"/>
  <flow id="JF153888" begin="5360" fromJunction="J7" toJunction="J5" end="5420" vehsPerHour="63.73462923566324"/>
  <flow id="JF153889" begin="5360" fromJunction="J5" toJunction="J6" end="5420" vehsPerHour="57.96503948751299"/>
  <flow id="JF153890" begin="5360" fromJunction="J5" toJunction="J4" end="5420" vehsPerHour="55.16993077799628"/>
  <flow id="JF153891" begin="5360" fromJunction="J5" toJunction="J7" end="5420" vehsPerHour="32.720807970666016"/>
  <flow id="JF153892" begin="5360" fromJunction="J6" toJunction="J0" end="5420" vehsPerHour="54.972481833864826"/>
  <flow id="JF153893" begin="5360" fromJunction="J6" toJunction="J3" end="5420" vehsPerHour="67.44788355960125"/>
  <flow id="JF153894" begin="5360" fromJunction="J4" toJunction="J0" end="5420" vehsPerHour="44.54396642563532"/>
  <flow id="JF153895" begin="5360" fromJunction="J4" toJunction="J3" end="5420" vehsPerHour="57.78379156721543"/>
  <flow id="JF153896" begin="5360" fromJunction="J7" toJunction="J0" end="5420" vehsPerHour="30.413544365949942"/>
  <flow id="JF153897" begin="5360" fromJunction="J7" toJunction="J3" end="5420" vehsPerHour="52.29263303698873"/>
  <flow id="JF153898" begin="5360" fromJunction="J5" toJunction="J0" end="5420" vehsPerHour="22.956594097734726"/>
  <flow id="JF153899" begin="5360" fromJunction="J5" toJunction="J3" end="5420" vehsPerHour="0.3328760648664915"/>
  <flow id="JF153900" begin="5420" fromJunction="J0" toJunction="J3" end="5480" vehsPerHour="398.0158364390802"/>
  <flow id="JF153901" begin="5420" fromJunction="J3" toJunction="J0" end="5480" vehsPerHour="139.85587341161516"/>
  <flow id="JF153902" begin="5420" fromJunction="J0" toJunction="J6" end="5480" vehsPerHour="32.95924900192369"/>
  <flow id="JF153903" begin="5420" fromJunction="J0" toJunction="J4" end="5480" vehsPerHour="56.21266108384828"/>
  <flow id="JF153904" begin="5420" fromJunction="J0" toJunction="J7" end="5480" vehsPerHour="58.416290580780306"/>
  <flow id="JF153905" begin="5420" fromJunction="J0" toJunction="J5" end="5480" vehsPerHour="74.73880137180578"/>
  <flow id="JF153906" begin="5420" fromJunction="J3" toJunction="J6" end="5480" vehsPerHour="50.12753147843623"/>
  <flow id="JF153907" begin="5420" fromJunction="J3" toJunction="J4" end="5480" vehsPerHour="34.9136524787388"/>
  <flow id="JF153908" begin="5420" fromJunction="J3" toJunction="J7" end="5480" vehsPerHour="78.36705588814584"/>
  <flow id="JF153909" begin="5420" fromJunction="J3" toJunction="J5" end="5480" vehsPerHour="63.10362687979071"/>
  <flow id="JF153910" begin="5480" fromJunction="J0" toJunction="J3" end="5540" vehsPerHour="429.3692436738218"/>
  <flow id="JF153911" begin="5480" fromJunction="J3" toJunction="J0" end="5540" vehsPerHour="229.6238988192651"/>
  <flow id="JF153912" begin="5480" fromJunction="J0" toJunction="J6" end="5540" vehsPerHour="112.26361042406468"/>
  <flow id="JF153913" begin="5480" fromJunction="J0" toJunction="J4" end="5540" vehsPerHour="37.3427024683227"/>
  <flow id="JF153914" begin="5480" fromJunction="J0" toJunction="J7" end="5540" vehsPerHour="21.7916862529812"/>
  <flow id="JF153915" begin="5480" fromJunction="J0" toJunction="J5" end="5540" vehsPerHour="59.819571592486234"/>
  <flow id="JF153916" begin="5480" fromJunction="J3" toJunction="J6" end="5540" vehsPerHour="21.63384996671849"/>
  <flow id="JF153917" begin="5480" fromJunction="J3" toJunction="J4" end="5540" vehsPerHour="47.598693833457105"/>
  <flow id="JF153918" begin="5480" fromJunction="J3" toJunction="J7" end="5540" vehsPerHour="97.9721538986248"/>
  <flow id="JF153919" begin="5480" fromJunction="J3" toJunction="J5" end="5540" vehsPerHour="11.04889507671339"/>
  <flow id="JF153920" begin="5480" fromJunction="J6" toJunction="J4" end="5540" vehsPerHour="24.960138211661203"/>
  <flow id="JF153921" begin="5480" fromJunction="J6" toJunction="J7" end="5540" vehsPerHour="55.77697962148126"/>
  <flow id="JF153922" begin="5480" fromJunction="J6" toJunction="J5" end="5540" vehsPerHour="53.05509657573651"/>
  <flow id="JF153923" begin="5480" fromJunction="J4" toJunction="J6" end="5540" vehsPerHour="4.19685910842674"/>
  <flow id="JF153924" begin="5480" fromJunction="J4" toJunction="J7" end="5540" vehsPerHour="59.38778218629721"/>
  <flow id="JF153925" begin="5480" fromJunction="J4" toJunction="J5" end="5540" vehsPerHour="44.27712836143893"/>
  <flow id="JF153926" begin="5480" fromJunction="J7" toJunction="J6" end="5540" vehsPerHour="45.86513765842506"/>
  <flow id="JF153927" begin="5480" fromJunction="J7" toJunction="J4" end="5540" vehsPerHour="34.48897794899198"/>
  <flow id="JF153928" begin="5480" fromJunction="J7" toJunction="J5" end="5540" vehsPerHour="65.48161428619791"/>
  <flow id="JF153929" begin="5480" fromJunction="J5" toJunction="J6" end="5540" vehsPerHour="24.57723727281882"/>
  <flow id="JF153930" begin="5480" fromJunction="J5" toJunction="J4" end="5540" vehsPerHour="42.85529842278152"/>
  <flow id="JF153931" begin="5480" fromJunction="J5" toJunction="J7" end="5540" vehsPerHour="25.13966593005823"/>
  <flow id="JF153932" begin="5480" fromJunction="J6" toJunction="J0" end="5540" vehsPerHour="28.615994660285292"/>
  <flow id="JF153933" begin="5480" fromJunction="J6" toJunction="J3" end="5540" vehsPerHour="48.370462876707364"/>
  <flow id="JF153934" begin="5480" fromJunction="J4" toJunction="J0" end="5540" vehsPerHour="1.9394121998202252"/>
  <flow id="JF153935" begin="5480" fromJunction="J4" toJunction="J3" end="5540" vehsPerHour="65.5406877770172"/>
  <flow id="JF153936" begin="5480" fromJunction="J7" toJunction="J0" end="5540" vehsPerHour="54.57956623576883"/>
  <flow id="JF153937" begin="5480" fromJunction="J7" toJunction="J3" end="5540" vehsPerHour="35.43496449663808"/>
  <flow id="JF153938" begin="5480" fromJunction="J5" toJunction="J0" end="5540" vehsPerHour="37.097510535206816"/>
  <flow id="JF153939" begin="5480" fromJunction="J5" toJunction="J3" end="5540" vehsPerHour="46.27331418961267"/>
  <flow id="JF153940" begin="5540" fromJunction="J0" toJunction="J3" end="5600" vehsPerHour="338.12319013329136"/>
  <flow id="JF153941" begin="5540" fromJunction="J3" toJunction="J0" end="5600" vehsPerHour="520.8499426672048"/>
  <flow id="JF153942" begin="5540" fromJunction="J0" toJunction="J6" end="5600" vehsPerHour="13.809205978207848"/>
  <flow id="JF153943" begin="5540" fromJunction="J0" toJunction="J4" end="5600" vehsPerHour="63.212099762243646"/>
  <flow id="JF153944" begin="5540" fromJunction="J0" toJunction="J7" end="5600" vehsPerHour="119.27071312360478"/>
  <flow id="JF153945" begin="5540" fromJunction="J0" toJunction="J5" end="5600" vehsPerHour="123.33382110865192"/>
  <flow id="JF153946" begin="5540" fromJunction="J3" toJunction="J6" end="5600" vehsPerHour="82.88067154595527"/>
  <flow id="JF153947" begin="5540" fromJunction="J3" toJunction="J4" end="5600" vehsPerHour="64.15026694453084"/>
  <flow id="JF153948" begin="5540" fromJunction="J3" toJunction="J7" end="5600" vehsPerHour="43.54389367565461"/>
  <flow id="JF153949" begin="5540" fromJunction="J3" toJunction="J5" end="5600" vehsPerHour="5.223891118158733"/>
  <flow id="JF153950" begin="5540" fromJunction="J6" toJunction="J4" end="5600" vehsPerHour="32.33293343564697"/>
  <flow id="JF153951" begin="5540" fromJunction="J6" toJunction="J7" end="5600" vehsPerHour="56.833486081557986"/>
  <flow id="JF153952" begin="5540" fromJunction="J6" toJunction="J5" end="5600" vehsPerHour="50.27141837902324"/>
  <flow id="JF153953" begin="5540" fromJunction="J4" toJunction="J6" end="5600" vehsPerHour="16.37607871565139"/>
  <flow id="JF153954" begin="5540" fromJunction="J4" toJunction="J7" end="5600" vehsPerHour="57.74471309272374"/>
  <flow id="JF153955" begin="5540" fromJunction="J4" toJunction="J5" end="5600" vehsPerHour="22.91557195783399"/>
  <flow id="JF153956" begin="5540" fromJunction="J7" toJunction="J6" end="5600" vehsPerHour="12.710276701078657"/>
  <flow id="JF153957" begin="5540" fromJunction="J7" toJunction="J4" end="5600" vehsPerHour="41.66129217179138"/>
  <flow id="JF153958" begin="5540" fromJunction="J7" toJunction="J5" end="5600" vehsPerHour="52.58846643006559"/>
  <flow id="JF153959" begin="5540" fromJunction="J5" toJunction="J6" end="5600" vehsPerHour="26.17470797494567"/>
  <flow id="JF153960" begin="5540" fromJunction="J5" toJunction="J4" end="5600" vehsPerHour="67.07629066230707"/>