<?xml version="1.0" encoding="UTF-8"?>
<routes xmlns:xsi="http://www.w3.org/2001/XMLSchema-instance" xsi:noNamespaceSchemaLocation="http://sumo.dlr.de/xsd/routes_file.xsd">
  <flow id="JF165740" begin="0" fromJunction="J0" toJunction="J3" end="5000" vehsPerHour="79.93674363807658"/>
  <flow id="JF165741" begin="0" fromJunction="J3" toJunction="J0" end="5000" vehsPerHour="633.5521843157484"/>
  <flow id="JF165742" begin="0" fromJunction="J0" toJunction="J6" end="5000" vehsPerHour="126.43255042995712"/>
  <flow id="JF165743" begin="0" fromJunction="J0" toJunction="J4" end="5000" vehsPerHour="21.350291155971625"/>
  <flow id="JF165744" begin="0" fromJunction="J0" toJunction="J7" end="5000" vehsPerHour="60.69017134918238"/>
  <flow id="JF165745" begin="0" fromJunction="J0" toJunction="J5" end="5000" vehsPerHour="47.69162321690537"/>
  <flow id="JF165746" begin="0" fromJunction="J3" toJunction="J6" end="5000" vehsPerHour="16.687592523732725"/>
  <flow id="JF165747" begin="0" fromJunction="J3" toJunction="J4" end="5000" vehsPerHour="70.25666069388092"/>
  <flow id="JF165748" begin="0" fromJunction="J3" toJunction="J7" end="5000" vehsPerHour="73.40858930832358"/>
  <flow id="JF165749" begin="0" fromJunction="J3" toJunction="J5" end="5000" vehsPerHour="75.75717286670994"/>
  <flow id="JF165750" begin="0" fromJunction="J6" toJunction="J4" end="5000" vehsPerHour="256.6225104943666"/>
  <flow id="JF165751" begin="0" fromJunction="J6" toJunction="J7" end="5000" vehsPerHour="88.73988480403935"/>
  <flow id="JF165752" begin="0" fromJunction="J6" toJunction="J5" end="5000" vehsPerHour="165.75605584514412"/>
  <flow id="JF165753" begin="0" fromJunction="J4" toJunction="J6" end="5000" vehsPerHour="68.74770480657489"/>
  <flow id="JF165754" begin="0" fromJunction="J4" toJunction="J7" end="5000" vehsPerHour="169.4571038741853"/>
  <flow id="JF165755" begin="0" fromJunction="J4" toJunction="J5" end="5000" vehsPerHour="199.06471941020723"/>
  <flow id="JF165756" begin="0" fromJunction="J7" toJunction="J6" end="5000" vehsPerHour="23.142074555991734"/>
  <flow id="JF165757" begin="0" fromJunction="J7" toJunction="J4" end="5000" vehsPerHour="84.18255581906544"/>
  <flow id="JF165758" begin="0" fromJunction="J7" toJunction="J5" end="5000" vehsPerHour="271.8026268269996"/>
  <flow id="JF165759" begin="0" fromJunction="J5" toJunction="J6" end="5000" vehsPerHour="131.62694269566117"/>
  <flow id="JF165760" begin="0" fromJunction="J5" toJunction="J4" end="5000" vehsPerHour="162.76658134971905"/>
  <flow id="JF165761" begin="0" fromJunction="J5" toJunction="J7" end="5000" vehsPerHour="155.2236004841276"/>
  <flow id="JF165762" begin="0" fromJunction="J6" toJunction="J0" end="5000" vehsPerHour="45.17660167680675"/>
  <flow id="JF165763" begin="0" fromJunction="J6" toJunction="J3" end="5000" vehsPerHour="66.64264775956109"/>
  <flow id="JF165764" begin="0" fromJunction="J4" toJunction="J0" end="5000" vehsPerHour="17.483672026896592"/>
  <flow id="JF165765" begin="0" fromJunction="J4" toJunction="J3" end="5000" vehsPerHour="13.174833800285933"/>
  <flow id="JF165766" begin="0" fromJunction="J7" toJunction="J0" end="5000" vehsPerHour="7.928122039756723"/>
  <flow id="JF165767" begin="0" fromJunction="J7" toJunction="J3" end="5000" vehsPerHour="32.836947795731696"/>
  <flow id="JF165768" begin="0" fromJunction="J5" toJunction="J0" end="5000" vehsPerHour="23.219478494397414"/>
  <flow id="JF165769" begin="0" fromJunction="J5" toJunction="J3" end="5000" vehsPerHour="49.91206660571163"/>
  <flow id="JF165770" begin="5000" fromJunction="J0" toJunction="J3" end="5060" vehsPerHour="195.72107447781443"/>
  <flow id="JF165771" begin="5000" fromJunction="J3" toJunction="J0" end="5060" vehsPerHour="408.477495956398"/>
  <flow id="JF165772" begin="5000" fromJunction="J0" toJunction="J6" end="5060" vehsPerHour="9.251914724422605"/>
  <flow id="JF165773" begin="5000" fromJunction="J0" toJunction="J4" end="5060" vehsPerHour="96.02550628065207"/>
  <flow id="JF165774" begin="5000" fromJunction="J0" toJunction="J7" end="5060" vehsPerHour="69.13689183871851"/>
  <flow id="JF165775" begin="5000" fromJunction="J0" toJunction="J5" end="5060" vehsPerHour="95.89312745103551"/>
  <flow id="JF165776" begin="5000" fromJunction="J3" toJunction="J6" end="5060" vehsPerHour="120.29088361819844"/>
  <flow id="JF165777" begin="5000" fromJunction="J3" toJunction="J4" end="5060" vehsPerHour="118.19169408039136"/>
  <flow id="JF165778" begin="5000" fromJunction="J3" toJunction="J7" end="5060" vehsPerHour="27.140235247252015"/>
  <flow id="JF165779" begin="5000" fromJunction="J3" toJunction="J5" end="5060" vehsPerHour="33.431555344898236"/>
  <flow id="JF165780" begin="5060" fromJunction="J0" toJunction="J3" end="5120" vehsPerHour="416.3661384323528"/>
  <flow id="JF165781" begin="5060" fromJunction="J3" toJunction="J0" end="5120" vehsPerHour="63.13785054436761"/>
  <flow id="JF165782" begin="5060" fromJunction="J0" toJunction="J6" end="5120" vehsPerHour="122.5698552403749"/>
  <flow id="JF165783" begin="5060" fromJunction="J0" toJunction="J4" end="5120" vehsPerHour="74.86048679535287"/>
  <flow id="JF165784" begin="5060" fromJunction="J0" toJunction="J7" end="5120" vehsPerHour="71.94414702029387"/>
  <flow id="JF165785" begin="5060" fromJunction="J0" toJunction="J5" end="5120" vehsPerHour="43.07459990722471"/>
  <flow id="JF165786" begin="5060" fromJunction="J3" toJunction="J6" end="5120" vehsPerHour="4.559583919765235"/>
  <flow id="JF165787" begin="5060" fromJunction="J3" toJunction="J4" end="5120" vehsPerHour="81.49990045437177"/>
  <flow id="JF165788" begin="5060" fromJunction="J3" toJunction="J7" end="5120" vehsPerHour="34.239160568124845"/>
  <flow id="JF165789" begin="5060" fromJunction="J3" toJunction="J5" end="5120" vehsPerHour="29.74775969630313"/>
  <flow id="JF165790" begin="5060" fromJunction="J6" toJunction="J4" end="5120" vehsPerHour="15.50809692555845"/>
  <flow id="JF165791" begin="5060" fromJunction="J6" toJunction="J7" end="5120" vehsPerHour="46.756389926188255"/>
  <flow id="JF165792" begin="5060" fromJunction="J6" toJunction="J5" end="5120" vehsPerHour="16.67423425812409"/>
  <flow id="JF165793" begin="5060" fromJunction="J4" toJunction="J6" end="5120" vehsPerHour="63.760649906362914"/>
  <flow id="JF165794" begin="5060" fromJunction="J4" toJunction="J7" end="5120" vehsPerHour="6.487224031670653"/>
  <flow id="JF165795" begin="5060" fromJunction="J4" toJunction="J5" end="5120" vehsPerHour="55.73359048595664"/>
  <flow id="JF165796" begin="5060" fromJunction="J7" toJunction="J6" end="5120" vehsPerHour="61.59730034718804"/>
  <flow id="JF165797" begin="5060" fromJunction="J7" toJunction="J4" end="5120" vehsPerHour="64.44447082737966"/>
  <flow id="JF165798" begin="5060" fromJunction="J7" toJunction="J5" end="5120" vehsPerHour="23.45666362895879"/>
  <flow id="JF165799" begin="5060" fromJunction="J5" toJunction="J6" end="5120" vehsPerHour="10.002244309086823"/>
  <flow id="JF165800" begin="5060" fromJunction="J5" toJunction="J4" end="5120" vehsPerHour="41.47468746994919"/>
  <flow id="JF165801" begin="5060" fromJunction="J5" toJunction="J7" end="5120" vehsPerHour="16.20457719262074"/>
  <flow id="JF165802" begin="5060" fromJunction="J6" toJunction="J0" end="5120" vehsPerHour="16.154090719590755"/>
  <flow id="JF165803" begin="5060" fromJunction="J6" toJunction="J3" end="5120" vehsPerHour="63.55470546730976"/>
  <flow id="JF165804" begin="5060" fromJunction="J4" toJunction="J0" end="5120" vehsPerHour="57.30177379180286"/>
  <flow id="JF165805" begin="5060" fromJunction="J4" toJunction="J3" end="5120" vehsPerHour="47.11311706251256"/>
  <flow id="JF165806" begin="5060" fromJunction="J7" toJunction="J0" end="5120" vehsPerHour="16.49259539274237"/>
  <flow id="JF165807" begin="5060" fromJunction="J7" toJunction="J3" end="5120" vehsPerHour="12.785857844441896"/>
  <flow id="JF165808" begin="5060" fromJunction="J5" toJunction="J0" end="5120" vehsPerHour="58.75832162188907"/>
  <flow id="JF165809" begin="5060" fromJunction="J5" toJunction="J3" end="5120" vehsPerHour="24.088465261514298"/>
  <flow id="JF165810" begin="5120" fromJunction="J0" toJunction="J3" end="5180" vehsPerHour="420.9636761514201"/>
  <flow id="JF165811" begin="5120" fromJunction="J3" toJunction="J0" end="5180" vehsPerHour="168.71735709786185"/>
  <flow id="JF165812" begin="5120" fromJunction="J0" toJunction="J6" end="5180" vehsPerHour="25.774991742529544"/>
  <flow id="JF165813" begin="5120" fromJunction="J0" toJunction="J4" end="5180" vehsPerHour="29.207333350936377"/>
  <flow id="JF165814" begin="5120" fromJunction="J0" toJunction="J7" end="5180" vehsPerHour="9.421866396818219"/>
  <flow id="JF165815" begin="5120" fromJunction="J0" toJunction="J5" end="5180" vehsPerHour="83.86980587221876"/>
  <flow id="JF165816" begin="5120" fromJunction="J3" toJunction="J6" end="5180" vehsPerHour="6.943738973082252"/>
  <flow id="JF165817" begin="5120" fromJunction="J3" toJunction="J4" end="5180" vehsPerHour="66.69207260147591"/>
  <flow id="JF165818" begin="5120" fromJunction="J3" toJunction="J7" end="5180" vehsPerHour="33.39619157299565"/>
  <flow id="JF165819" begin="5120" fromJunction="J3" toJunction="J5" end="5180" vehsPerHour="137.39834251702987"/>
  <flow id="JF165820" begin="5120" fromJunction="J6" toJunction="J4" end="5180" vehsPerHour="21.63072426266341"/>
  <flow id="JF165821" begin="5120" fromJunction="J6" toJunction="J7" end="5180" vehsPerHour="54.71348632024248"/>
  <flow id="JF165822" begin="5120" fromJunction="J6" toJunction="J5" end="5180" vehsPerHour="19.913050956702037"/>
  <flow id="JF165823" begin="5120" fromJunction="J4" toJunction="J6" end="5180" vehsPerHour="3.531068867708837"/>
  <flow id="JF165824" begin="5120" fromJunction="J4" toJunction="J7" end="5180" vehsPerHour="22.8385101388625"/>
  <flow id="JF165825" begin="5120" fromJunction="J4" toJunction="J5" end="5180" vehsPerHour="65.37204518935512"/>
  <flow id="JF165826" begin="5120" fromJunction="J7" toJunction="J6" end="5180" vehsPerHour="55.58500661135236"/>
  <flow id="JF165827" begin="5120" fromJunction="J7" toJunction="J4" end="5180" vehsPerHour="64.97591376892538"/>
  <flow id="JF165828" begin="5120" fromJunction="J7" toJunction="J5" end="5180" vehsPerHour="40.149198792955175"/>
  <flow id="JF165829" begin="5120" fromJunction="J5" toJunction="J6" end="5180" vehsPerHour="8.898268833513978"/>
  <flow id="JF165830" begin="5120" fromJunction="J5" toJunction="J4" end="5180" vehsPerHour="24.317804800369668"/>
  <flow id="JF165831" begin="5120" fromJunction="J5" toJunction="J7" end="5180" vehsPerHour="5.897610393406208"/>
  <flow id="JF165832" begin="5120" fromJunction="J6" toJunction="J0" end="5180" vehsPerHour="11.04362748390224"/>
  <flow id="JF165833" begin="5120" fromJunction="J6" toJunction="J3" end="5180" vehsPerHour="1.4602230096577742"/>
  <flow id="JF165834" begin="5120" fromJunction="J4" toJunction="J0" end="5180" vehsPerHour="10.829157782404897"/>
  <flow id="JF165835" begin="5120" fromJunction="J4" toJunction="J3" end="5180" vehsPerHour="20.14758434843359"/>
  <flow id="JF165836" begin="5120" fromJunction="J7" toJunction="J0" end="5180" vehsPerHour="43.33601373615691"/>
  <flow id="JF165837" begin="5120" fromJunction="J7" toJunction="J3" end="5180" vehsPerHour="4.12603991959701"/>
  <flow id="JF165838" begin="5120" fromJunction="J5" toJunction="J0" end="5180" vehsPerHour="40.58746933128238"/>
  <flow id="JF165839" begin="5120" fromJunction="J5" toJunction="J3" end="5180" vehsPerHour="62.90092731052256"/>
  <flow id="JF165840" begin="5180" fromJunction="J0" toJunction="J3" end="5240" vehsPerHour="490.8951752580062"/>
  <flow id="JF165841" begin="5180" fromJunction="J3" toJunction="J0" end="5240" vehsPerHour="300.82236067474895"/>
  <flow id="JF165842" begin="5180" fromJunction="J0" toJunction="J6" end="5240" vehsPerHour="105.20979590163314"/>
  <flow id="JF165843" begin="5180" fromJunction="J0" toJunction="J4" end="5240" vehsPerHour="121.38507784459402"/>
  <flow id="JF165844" begin="5180" fromJunction="J0" toJunction="J7" end="5240" vehsPerHour="26.17343533888816"/>
  <flow id="JF165845" begin="5180" fromJunction="J0" toJunction="J5" end="5240" vehsPerHour="0.9552480360450079"/>
  <flow id="JF165846" begin="5180" fromJunction="J3" toJunction="J6" end="5240" vehsPerHour="13.24975217188371"/>
  <flow id="JF165847" begin="5180" fromJunction="J3" toJunction="J4" end="5240" vehsPerHour="34.158642731765"/>
  <flow id="JF165848" begin="5180" fromJunction="J3" toJunction="J7" end="5240" vehsPerHour="2.566281204187673"/>
  <flow id="JF165849" begin="5180" fromJunction="J3" toJunction="J5" end="5240" vehsPerHour="25.323726974260307"/>
  <flow id="JF165850" begin="5180" fromJunction="J6" toJunction="J4" end="5240" vehsPerHour="6.434133594211018"/>
  <flow id="JF165851" begin="5180" fromJunction="J6" toJunction="J7" end="5240" vehsPerHour="39.139185491435526"/>
  <flow id="JF165852" begin="5180" fromJunction="J6" toJunction="J5" end="5240" vehsPerHour="6.271367234879372"/>
  <flow id="JF165853" begin="5180" fromJunction="J4" toJunction="J6" end="5240" vehsPerHour="35.59664149603364"/>
  <flow id="JF165854" begin="5180" fromJunction="J4" toJunction="J7" end="5240" vehsPerHour="35.592971377839774"/>
  <flow id="JF165855" begin="5180" fromJunction="J4" toJunction="J5" end="5240" vehsPerHour="26.11580510600248"/>
  <flow id="JF165856" begin="5180" fromJunction="J7" toJunction="J6" end="5240" vehsPerHour="44.217876036417564"/>
  <flow id="JF165857" begin="5180" fromJunction="J7" toJunction="J4" end="5240" vehsPerHour="5.662021881657122"/>
  <flow id="JF165858" begin="5180" fromJunction="J7" toJunction="J5" end="5240" vehsPerHour="13.657844920775432"/>
  <flow id="JF165859" begin="5180" fromJunction="J5" toJunction="J6" end="5240" vehsPerHour="58.99805424843243"/>
  <flow id="JF165860" begin="5180" fromJunction="J5" toJunction="J4" end="5240" vehsPerHour="4.16064240409275"/>
  <flow id="JF165861" begin="5180" fromJunction="J5" toJunction="J7" end="5240" vehsPerHour="26.148370869169955"/>
  <flow id="JF165862" begin="5180" fromJunction="J6" toJunction="J0" end="5240" vehsPerHour="53.20934511064247"/>
  <flow id="JF165863" begin="5180" fromJunction="J6" toJunction="J3" end="5240" vehsPerHour="31.9795007204224"/>
  <flow id="JF165864" begin="5180" fromJunction="J4" toJunction="J0" end="5240" vehsPerHour="53.67773864545339"/>
  <flow id="JF165865" begin="5180" fromJunction="J4" toJunction="J3" end="5240" vehsPerHour="55.9112377798514"/>
  <flow id="JF165866" begin="5180" fromJunction="J7" toJunction="J0" end="5240" vehsPerHour="15.907813127232487"/>
  <flow id="JF165867" begin="5180" fromJunction="J7" toJunction="J3" end="5240" vehsPerHour="63.39781777958986"/>
  <flow id="JF165868" begin="5180" fromJunction="J5" toJunction="J0" end="5240" vehsPerHour="58.46812898384052"/>
  <flow id="JF165869" begin="5180" fromJunction="J5" toJunction="J3" end="5240" vehsPerHour="10.196435385588345"/>
  <flow id="JF165870" begin="5240" fromJunction="J0" toJunction="J3" end="5300" vehsPerHour="278.57035721669376"/>
  <flow id="JF165871" begin="5240" fromJunction="J3" toJunction="J0" end="5300" vehsPerHour="328.03143488701386"/>
  <flow id="JF165872" begin="5240" fromJunction="J0" toJunction="J6" end="5300" vehsPerHour="47.363280419758865"/>
  <flow id="JF165873" begin="5240" fromJunction="J0" toJunction="J4" end="5300" vehsPerHour="65.5225813418682"/>
  <flow id="JF165874" begin="5240" fromJunction="J0" toJunction="J7" end="5300" vehsPerHour="105.73038231298369"/>
  <flow id="JF165875" begin="5240" fromJunction="J0" toJunction="J5" end="5300" vehsPerHour="5.511597185482965"/>
  <flow id="JF165876" begin="5240" fromJunction="J3" toJunction="J6" end="5300" vehsPerHour="87.58635575841213"/>
  <flow id="JF165877" begin="5240" fromJunction="J3" toJunction="J4" end="5300" vehsPerHour="37.52653495100754"/>
  <flow id="JF165878" begin="5240" fromJunction="J3" toJunction="J7" end="5300" vehsPerHour="1.10187478771972"/>
  <flow id="JF165879" begin="5240" fromJunction="J3" toJunction="J5" end="5300" vehsPerHour="75.8840195931599"/>
  <flow id="JF165880" begin="5300" fromJunction="J0" toJunction="J3" end="5360" vehsPerHour="548.968909979966"/>
  <flow id="JF165881" begin="5300" fromJunction="J3" toJunction="J0" end="5360" vehsPerHour="328.77184370032643"/>
  <flow id="JF165882" begin="5300" fromJunction="J0" toJunction="J6" end="5360" vehsPerHour="133.73072902325492"/>
  <flow id="JF165883" begin="5300" fromJunction="J0" toJunction="J4" end="5360" vehsPerHour="30.793819044130355"/>
  <flow id="JF165884" begin="5300" fromJunction="J0" toJunction="J7" end="5360" vehsPerHour="83.05365208825872"/>
  <flow id="JF165885" begin="5300" fromJunction="J0" toJunction="J5" end="5360" vehsPerHour="44.79991700205513"/>
  <flow id="JF165886" begin="5300" fromJunction="J3" toJunction="J6" end="5360" vehsPerHour="8.099910827823603"/>
  <flow id="JF165887" begin="5300" fromJunction="J3" toJunction="J4" end="5360" vehsPerHour="85.25491249665701"/>
  <flow id="JF165888" begin="5300" fromJunction="J3" toJunction="J7" end="5360" vehsPerHour="63.6091395042711"/>
  <flow id="JF165889" begin="5300" fromJunction="J3" toJunction="J5" end="5360" vehsPerHour="123.51611515498344"/>
  <flow id="JF165890" begin="5300" fromJunction="J6" toJunction="J4" end="5360" vehsPerHour="27.1269543509306"/>
  <flow id="JF165891" begin="5300" fromJunction="J6" toJunction="J7" end="5360" vehsPerHour="33.344828630421844"/>
  <flow id="JF165892" begin="5300" fromJunction="J6" toJunction="J5" end="5360" vehsPerHour="3.173938242335976"/>
  <flow id="JF165893" begin="5300" fromJunction="J4" toJunction="J6" end="5360" vehsPerHour="3.8623065787972206"/>
  <flow id="JF165894" begin="5300" fromJunction="J4" toJunction="J7" end="5360" vehsPerHour="37.79846405528932"/>
  <flow id="JF165895" begin="5300" fromJunction="J4" toJunction="J5" end="5360" vehsPerHour="31.82570237516247"/>
  <flow id="JF165896" begin="5300" fromJunction="J7" toJunction="J6" end="5360" vehsPerHour="7.6632288461732765"/>
  <flow id="JF165897" begin="5300" fromJunction="J7" toJunction="J4" end="5360" vehsPerHour="9.258347296785555"/>
  <flow id="JF165898" begin="5300" fromJunction="J7" toJunction="J5" end="5360" vehsPerHour="3.579980814239568"/>
  <flow id="JF165899" begin="5300" fromJunction="J5" toJunction="J6" end="5360" vehsPerHour="39.85408258690805"/>
  <flow id="JF165900" begin="5300" fromJunction="J5" toJunction="J4" end="5360" vehsPerHour="28.993379221384952"/>
  <flow id="JF165901" begin="5300" fromJunction="J5" toJunction="J7" end="5360" vehsPerHour="31.254130242161928"/>
  <flow id="JF165902" begin="5300" fromJunction="J6" toJunction="J0" end="5360" vehsPerHour="59.20330138298098"/>
  <flow id="JF165903" begin="5300" fromJunction="J6" toJunction="J3" end="5360" vehsPerHour="10.361408914668878"/>
  <flow id="JF165904" begin="5300" fromJunction="J4" toJunction="J0" end="5360" vehsPerHour="26.641839585377852"/>
  <flow id="JF165905" begin="5300" fromJunction="J4" toJunction="J3" end="5360" vehsPerHour="9.303297542487362"/>
  <flow id="JF165906" begin="5300" fromJunction="J7" toJunction="J0" end="5360" vehsPerHour="2.982208912785392"/>
  <flow id="JF165907" begin="5300" fromJunction="J7" toJunction="J3" end="5360" vehsPerHour="64.65342108463852"/>
  <flow id="JF165908" begin="5300" fromJunction="J5" toJunction="J0" end="5360" vehsPerHour="6.360319241106714"/>
  <flow id="JF165909" begin="5300" fromJunction="J5" toJunction="J3" end="5360" vehsPerHour="2.96214370016075"/>
  <flow id="JF165910" begin="5360" fromJunction="J0" toJunction="J3" end="5420" vehsPerHour="465.21809337904836"/>
  <flow id="JF165911" begin="5360" fromJunction="J3" toJunction="J0" end="5420" vehsPerHour="506.0488452894224"/>
  <flow id="JF165912" begin="5360" fromJunction="J0" toJunction="J6" end="5420" vehsPerHour="69.07586147609173"/>
  <flow id="JF165913" begin="5360" fromJunction="J0" toJunction="J4" end="5420" vehsPerHour="117.32865274703107"/>
  <flow id="JF165914" begin="5360" fromJunction="J0" toJunction="J7" end="5420" vehsPerHour="82.76227606741644"/>
  <flow id="JF165915" begin="5360" fromJunction="J0" toJunction="J5" end="5420" vehsPerHour="72.64244446513145"/>
  <flow id="JF165916" begin="5360" fromJunction="J3" toJunction="J6" end="5420" vehsPerHour="85.90564971813203"/>
  <flow id="JF165917" begin="5360" fromJunction="J3" toJunction="J4" end="5420" vehsPerHour="123.53166553205727"/>
  <flow id="JF165918" begin="5360" fromJunction="J3" toJunction="J7" end="5420" vehsPerHour="51.67596799072316"/>
  <flow id="JF165919" begin="5360" fromJunction="J3" toJunction="J5" end="5420" vehsPerHour="11.35319312515957"/>
  <flow id="JF165920" begin="5360" fromJunction="J6" toJunction="J4" end="5420" vehsPerHour="52.25104458031132"/>
  <flow id="JF165921" begin="5360" fromJunction="J6" toJunction="J7" end="5420" vehsPerHour="15.448200915257443"/>
  <flow id="JF165922" begin="5360" fromJunction="J6" toJunction="J5" end="5420" vehsPerHour="65.16393346060147"/>
  <flow id="JF165923" begin="5360" fromJunction="J4" toJunction="J6" end="5420" vehsPerHour="29.95962606046594"/>
  <flow id="JF165924" begin="5360" fromJunction="J4" toJunction="J7" end="5420" vehsPerHour="19.885374984591518"/>
  <flow id="JF165925" begin="5360" fromJunction="J4" toJunction="J5" end="5420" vehsPerHour="16.612551790229553"/>
  <flow id="JF165926" begin="5360" fromJunction="J7" toJunction="J6" end="5420" vehsPerHour="33.83607082886619"/>
  <flow id="JF165927" begin="5360" fromJunction="J7" toJunction="J4" end="5420" vehsPerHour="36.91522653498123"/>
  <flow id="JF165928" begin="5360" fromJunction="J7" toJunction="J5" end="5420" vehsPerHour="62.62640324999036"/>
  <flow id="JF165929" begin="5360" fromJunction="J5" toJunction="J6" end="5420" vehsPerHour="30.940727910836614"/>
  <flow id="JF165930" begin="5360" fromJunction="J5" toJunction="J4" end="5420" vehsPerHour="20.884993902119483"/>
  <flow id="JF165931" begin="5360" fromJunction="J5" toJunction="J7" end="5420" vehsPerHour="24.408837655888682"/>
  <flow id="JF165932" begin="5360" fromJunction="J6" toJunction="J0" end="5420" vehsPerHour="5.2202610282885455"/>
  <flow id="JF165933" begin="5360" fromJunction="J6" toJunction="J3" end="5420" vehsPerHour="35.70870936936494"/>
  <flow id="JF165934" begin="5360" fromJunction="J4" toJunction="J0" end="5420" vehsPerHour="12.444522153340312"/>
  <flow id="JF165935" begin="5360" fromJunction="J4" toJunction="J3" end="5420" vehsPerHour="17.901353773404548"/>
  <flow id="JF165936" begin="5360" fromJunction="J7" toJunction="J0" end="5420" vehsPerHour="1.3408214743579778"/>
  <flow id="JF165937" begin="5360" fromJunction="J7" toJunction="J3" end="5420" vehsPerHour="60.76942039302974"/>
  <flow id="JF165938" begin="5360" fromJunction="J5" toJunction="J0" end="5420" vehsPerHour="12.332345617212454"/>
  <flow id="JF165939" begin="5360" fromJunction="J5" toJunction="J3" end="5420" vehsPerHour="20.51943107605351"/>
  <flow id="JF165940" begin="5420" fromJunction="J0" toJunction="J3" end="5480" vehsPerHour="62.88484686718003"/>
  <flow id="JF165941" begin="5420" fromJunction="J3" toJunction="J0" end="5480" vehsPerHour="351.14961971099075"/>
  <flow id="JF165942" begin="5420" fromJunction="J0" toJunction="J6" end="5480" vehsPerHour="65.57381926450194"/>
  <flow id="JF165943" begin="5420" fromJunction="J0" toJunction="J4" end="5480" vehsPerHour="99.24125141333519"/>
  <flow id="JF165944" begin="5420" fromJunction="J0" toJunction="J7" end="5480" vehsPerHour="136.7980643343803"/>
  <flow id="JF165945" begin="5420" fromJunction="J0" toJunction="J5" end="5480" vehsPerHour="116.84818058049449"/>
  <flow id="JF165946" begin="5420" fromJunction="J3" toJunction="J6" end="5480" vehsPerHour="95.31123165870088"/>
  <flow id="JF165947" begin="5420" fromJunction="J3" toJunction="J4" end="5480" vehsPerHour="12.66520909945674"/>
  <flow id="JF165948" begin="5420" fromJunction="J3" toJunction="J7" end="5480" vehsPerHour="57.54285692211889"/>
  <flow id="JF165949" begin="5420" fromJunction="J3" toJunction="J5" end="5480" vehsPerHour="49.15879046211158"/>
  <flow id="JF165950" begin="5420" fromJunction="J6" toJunction="J4" end="5480" vehsPerHour="3.9804370036816477"/>
  <flow id="JF165951" begin="5420" fromJunction="J6" toJunction="J7" end="5480" vehsPerHour="17.052578527886048"/>
  <flow id="JF165952" begin="5420" fromJunction="J6" toJunction="J5" end="5480" vehsPerHour="51.226598796676285"/>
  <flow id="JF165953" begin="5420" fromJunction="J4" toJunction="J6" end="5480" vehsPerHour="66.78917209415884"/>
  <flow id="JF165954" begin="5420" fromJunction="J4" toJunction="J7" end="5480" vehsPerHour="51.50279603452658"/>
  <flow id="JF165955" begin="5420" fromJunction="J4" toJunction="J5" end="5480" vehsPerHour="16.450572814894418"/>
  <flow id="JF165956" begin="5420" fromJunction="J7" toJunction="J6" end="5480" vehsPerHour="47.119287001338805"/>
  <flow id="JF165957" begin="5420" fromJunction="J7" toJunction="J4" end="5480" vehsPerHour="3.23649287989513"/>
  <flow id="JF165958" begin="5420" fromJunction="J7" toJunction="J5" end="5480" vehsPerHour="5.353775868580672"/>
  <flow id="JF165959" begin="5420" fromJunction="J5" toJunction="J6" end="5480" vehsPerHour="11.750894978306674"/>
  <flow id="JF165960" begin="5420" fromJunction="J5" toJunction="J4" end="5480" vehsPerHour="64.44022574432738"/>
  <flow id="JF165961" begin="5420" fromJunction="J5" toJunction="J7" end="5480" vehsPerHour="25.642294328115177"/>
  <flow id="JF165962" begin="5420" fromJunction="J6" toJunction="J0" end="5480" vehsPerHour="67.30551024956853"/>
  <flow id="JF165963" begin="5420" fromJunction="J6" toJunction="J3" end="5480" vehsPerHour="41.960745296400276"/>
  <flow id="JF165964" begin="5420" fromJunction="J4" toJunction="J0" end="5480" vehsPerHour="28.15450399223156"/>
  <flow id="JF165965" begin="5420" fromJunction="J4" toJunction="J3" end="5480" vehsPerHour="20.795901184241"/>
  <flow id="JF165966" begin="5420" fromJunction="J7" toJunction="J0" end="5480" vehsPerHour="30.322785157245175"/>
  <flow id="JF165967" begin="5420" fromJunction="J7" toJunction="J3" end="5480" vehsPerHour="26.399018402949647"/>
  <flow id="JF165968" begin="5420" fromJunction="J5" toJunction="J0" end="5480" vehsPerHour="3.3071728109501133"/>
  <flow id="JF165969" begin="5420" fromJunction="J5" toJunction="J3" end="5480" vehsPerHour="42.456209225201036"/>
  <flow id="JF165970" begin="5480" fromJunction="J0" toJunction="J3" end="5540" vehsPerHour="463.0557367966829"/>
  <flow id="JF165971" begin="5480" fromJunction="J3" toJunction="J0" end="5540" vehsPerHour="120.28469611666743"/>
  <flow id="JF165972" begin="5480" fromJunction="J0" toJunction="J6" end="5540" vehsPerHour="21.858789567977368"/>
  <flow id="JF165973" begin="5480" fromJunction="J0" toJunction="J4" end="5540" vehsPerHour="56.22890892823585"/>
  <flow id="JF165974" begin="5480" fromJunction="J0" toJunction="J7" end="5540" vehsPerHour="45.246254394177754"/>
  <flow id="JF165975" begin="5480" fromJunction="J0" toJunction="J5" end="5540" vehsPerHour="10.357334344488399"/>
  <flow id="JF165976" begin="5480" fromJunction="J3" toJunction="J6" end="5540" vehsPerHour="13.61175167628011"/>
  <flow id="JF165977" begin="5480" fromJunction="J3" toJunction="J4" end="5540" vehsPerHour="106.39644758789518"/>
  <flow id="JF165978" begin="5480" fromJunction="J3" toJunction="J7" end="5540" vehsPerHour="35.01315288336035"/>
  <flow id="JF165979" begin="5480" fromJunction="J3" toJunction="J5" end="5540" vehsPerHour="97.18264136617618"/>
  <flow id="JF165980" begin="5480" fromJunction="J6" toJunction="J4" end="5540" vehsPerHour="6.314026010931623"/>
  <flow id="JF165981" begin="5480" fromJunction="J6" toJunction="J7" end="5540" vehsPerHour="0.2570041993391735"/>
  <flow id="JF165982" begin="5480" fromJunction="J6" toJunction="J5" end="5540" vehsPerHour="48.13846064520447"/>
  <flow id="JF165983" begin="5480" fromJunction="J4" toJunction="J6" end="5540" vehsPerHour="8.385143770819731"/>
  <flow id="JF165984" begin="5480" fromJunction="J4" toJunction="J7" end="5540" vehsPerHour="5.061407920993838"/>
  <flow id="JF165985" begin="5480" fromJunction="J4" toJunction="J5" end="5540" vehsPerHour="44.70727436441807"/>
  <flow id="JF165986" begin="5480" fromJunction="J7" toJunction="J6" end="5540" vehsPerHour="17.5797329395297"/>
  <flow id="JF165987" begin="5480" fromJunction="J7" toJunction="J4" end="5540" vehsPerHour="45.67301612443198"/>
  <flow id="JF165988" begin="5480" fromJunction="J7" toJunction="J5" end="5540" vehsPerHour="28.480988053808986"/>
  <flow id="JF165989" begin="5480" fromJunction="J5" toJunction="J6" end="5540" vehsPerHour="18.369767171442792"/>
  <flow id="JF165990" begin="5480" fromJunction="J5" toJunction="J4" end="5540" vehsPerHour="41.7488578874176"/>
  <flow id="JF165991" begin="5480" fromJunction="J5" toJunction="J7" end="5540" vehsPerHour="68.09201722665308"/>
  <flow id="JF165992" begin="5480" fromJunction="J6" toJunction="J0" end="5540" vehsPerHour="5.282443065223928"/>
  <flow id="JF165993" begin="5480" fromJunction="J6" toJunction="J3" end="5540" vehsPerHour="22.8267894832542"/>
  <flow id="JF165994" begin="5480" fromJunction="J4" toJunction="J0" end="5540" vehsPerHour="60.028067620958204"/>
  <flow id="JF165995" begin="5480" fromJunction="J4" toJunction="J3" end="5540" vehsPerHour="8.868775771510634"/>
  <flow id="JF165996" begin="5480" fromJunction="J7" toJunction="J0" end="5540" vehsPerHour="37.445908194822024"/>
  <flow id="JF165997" begin="5480" fromJunction="J7" toJunction="J3" end="5540" vehsPerHour="42.00596260216784"/>
  <flow id="JF165998" begin="5480" fromJunction="J5" toJunction="J0" end="5540" vehsPerHour="42.31453374481421"/>
  <flow id="JF165999" begin="5480" fromJunction="J5" toJunction="J3" end="5540" vehsPerHour="26.790106802788173"/>
  <flow id="JF166000" begin="5540" fromJunction="J0" toJunction="J3" end="5600" vehsPerHour="56.65379471396319"/>