<?xml version="1.0" encoding="UTF-8"?>
<routes xmlns:xsi="http://www.w3.org/2001/XMLSchema-instance" xsi:noNamespaceSchemaLocation="http://sumo.dlr.de/xsd/routes_file.xsd">
  <flow id="JF163720" begin="0" fromJunction="J0" toJunction="J3" end="5000" vehsPerHour="891.0951568185498"/>
  <flow id="JF163721" begin="0" fromJunction="J3" toJunction="J0" end="5000" vehsPerHour="1105.6178807440008"/>
  <flow id="JF163722" begin="0" fromJunction="J0" toJunction="J6" end="5000" vehsPerHour="58.96432347375007"/>
  <flow id="JF163723" begin="0" fromJunction="J0" toJunction="J4" end="5000" vehsPerHour="91.76231592233923"/>
  <flow id="JF163724" begin="0" fromJunction="J0" toJunction="J7" end="5000" vehsPerHour="18.38423657325679"/>
  <flow id="JF163725" begin="0" fromJunction="J0" toJunction="J5" end="5000" vehsPerHour="27.197980954723025"/>
  <flow id="JF163726" begin="0" fromJunction="J3" toJunction="J6" end="5000" vehsPerHour="28.360199485322674"/>
  <flow id="JF163727" begin="0" fromJunction="J3" toJunction="J4" end="5000" vehsPerHour="34.71780647885432"/>
  <flow id="JF163728" begin="0" fromJunction="J3" toJunction="J7" end="5000" vehsPerHour="76.32314751294264"/>
  <flow id="JF163729" begin="0" fromJunction="J3" toJunction="J5" end="5000" vehsPerHour="136.97600332396968"/>
  <flow id="JF163730" begin="0" fromJunction="J6" toJunction="J4" end="5000" vehsPerHour="16.32749077584961"/>
  <flow id="JF163731" begin="0" fromJunction="J6" toJunction="J7" end="5000" vehsPerHour="240.25469546225779"/>
  <flow id="JF163732" begin="0" fromJunction="J6" toJunction="J5" end="5000" vehsPerHour="29.00783759605828"/>
  <flow id="JF163733" begin="0" fromJunction="J4" toJunction="J6" end="5000" vehsPerHour="11.622180034242973"/>
  <flow id="JF163734" begin="0" fromJunction="J4" toJunction="J7" end="5000" vehsPerHour="54.932336955271225"/>
  <flow id="JF163735" begin="0" fromJunction="J4" toJunction="J5" end="5000" vehsPerHour="36.45141947151323"/>
  <flow id="JF163736" begin="0" fromJunction="J7" toJunction="J6" end="5000" vehsPerHour="262.1710534474643"/>
  <flow id="JF163737" begin="0" fromJunction="J7" toJunction="J4" end="5000" vehsPerHour="244.01651008462875"/>
  <flow id="JF163738" begin="0" fromJunction="J7" toJunction="J5" end="5000" vehsPerHour="202.23393487493536"/>
  <flow id="JF163739" begin="0" fromJunction="J5" toJunction="J6" end="5000" vehsPerHour="10.944849077692126"/>
  <flow id="JF163740" begin="0" fromJunction="J5" toJunction="J4" end="5000" vehsPerHour="208.03385184160817"/>
  <flow id="JF163741" begin="0" fromJunction="J5" toJunction="J7" end="5000" vehsPerHour="124.65574923257708"/>
  <flow id="JF163742" begin="0" fromJunction="J6" toJunction="J0" end="5000" vehsPerHour="28.342885216376327"/>
  <flow id="JF163743" begin="0" fromJunction="J6" toJunction="J3" end="5000" vehsPerHour="4.288879272593932"/>
  <flow id="JF163744" begin="0" fromJunction="J4" toJunction="J0" end="5000" vehsPerHour="38.12033629287487"/>
  <flow id="JF163745" begin="0" fromJunction="J4" toJunction="J3" end="5000" vehsPerHour="56.85530660000651"/>
  <flow id="JF163746" begin="0" fromJunction="J7" toJunction="J0" end="5000" vehsPerHour="3.4973462412352463"/>
  <flow id="JF163747" begin="0" fromJunction="J7" toJunction="J3" end="5000" vehsPerHour="9.857851343520673"/>
  <flow id="JF163748" begin="0" fromJunction="J5" toJunction="J0" end="5000" vehsPerHour="10.287580488985467"/>
  <flow id="JF163749" begin="0" fromJunction="J5" toJunction="J3" end="5000" vehsPerHour="2.3113482549603934"/>
  <flow id="JF163750" begin="5000" fromJunction="J0" toJunction="J3" end="5060" vehsPerHour="524.4170961593984"/>
  <flow id="JF163751" begin="5000" fromJunction="J3" toJunction="J0" end="5060" vehsPerHour="324.15372855718135"/>
  <flow id="JF163752" begin="5000" fromJunction="J0" toJunction="J6" end="5060" vehsPerHour="19.44367801126763"/>
  <flow id="JF163753" begin="5000" fromJunction="J0" toJunction="J4" end="5060" vehsPerHour="28.14934187142455"/>
  <flow id="JF163754" begin="5000" fromJunction="J0" toJunction="J7" end="5060" vehsPerHour="46.15073010339837"/>
  <flow id="JF163755" begin="5000" fromJunction="J0" toJunction="J5" end="5060" vehsPerHour="33.13989940825694"/>
  <flow id="JF163756" begin="5000" fromJunction="J3" toJunction="J6" end="5060" vehsPerHour="28.716373189652824"/>
  <flow id="JF163757" begin="5000" fromJunction="J3" toJunction="J4" end="5060" vehsPerHour="83.68725551011202"/>
  <flow id="JF163758" begin="5000" fromJunction="J3" toJunction="J7" end="5060" vehsPerHour="115.570130655995"/>
  <flow id="JF163759" begin="5000" fromJunction="J3" toJunction="J5" end="5060" vehsPerHour="116.66451553160091"/>
  <flow id="JF163760" begin="5060" fromJunction="J0" toJunction="J3" end="5120" vehsPerHour="506.0327150230494"/>
  <flow id="JF163761" begin="5060" fromJunction="J3" toJunction="J0" end="5120" vehsPerHour="372.58074297116406"/>
  <flow id="JF163762" begin="5060" fromJunction="J0" toJunction="J6" end="5120" vehsPerHour="23.66854358707822"/>
  <flow id="JF163763" begin="5060" fromJunction="J0" toJunction="J4" end="5120" vehsPerHour="77.0077958723053"/>
  <flow id="JF163764" begin="5060" fromJunction="J0" toJunction="J7" end="5120" vehsPerHour="58.92239101040853"/>
  <flow id="JF163765" begin="5060" fromJunction="J0" toJunction="J5" end="5120" vehsPerHour="27.02458116266688"/>
  <flow id="JF163766" begin="5060" fromJunction="J3" toJunction="J6" end="5120" vehsPerHour="115.7358883858383"/>
  <flow id="JF163767" begin="5060" fromJunction="J3" toJunction="J4" end="5120" vehsPerHour="63.78126385780161"/>
  <flow id="JF163768" begin="5060" fromJunction="J3" toJunction="J7" end="5120" vehsPerHour="96.51118222890558"/>
  <flow id="JF163769" begin="5060" fromJunction="J3" toJunction="J5" end="5120" vehsPerHour="69.04920696131079"/>
  <flow id="JF163770" begin="5060" fromJunction="J6" toJunction="J4" end="5120" vehsPerHour="4.812840135463527"/>
  <flow id="JF163771" begin="5060" fromJunction="J6" toJunction="J7" end="5120" vehsPerHour="14.39821638169562"/>
  <flow id="JF163772" begin="5060" fromJunction="J6" toJunction="J5" end="5120" vehsPerHour="53.87362031518889"/>
  <flow id="JF163773" begin="5060" fromJunction="J4" toJunction="J6" end="5120" vehsPerHour="65.22115595722707"/>
  <flow id="JF163774" begin="5060" fromJunction="J4" toJunction="J7" end="5120" vehsPerHour="41.312320754700686"/>
  <flow id="JF163775" begin="5060" fromJunction="J4" toJunction="J5" end="5120" vehsPerHour="20.060629898006226"/>
  <flow id="JF163776" begin="5060" fromJunction="J7" toJunction="J6" end="5120" vehsPerHour="51.316247410834585"/>
  <flow id="JF163777" begin="5060" fromJunction="J7" toJunction="J4" end="5120" vehsPerHour="35.89796429571861"/>
  <flow id="JF163778" begin="5060" fromJunction="J7" toJunction="J5" end="5120" vehsPerHour="16.318123127991043"/>
  <flow id="JF163779" begin="5060" fromJunction="J5" toJunction="J6" end="5120" vehsPerHour="57.283982526833114"/>
  <flow id="JF163780" begin="5060" fromJunction="J5" toJunction="J4" end="5120" vehsPerHour="67.75692722169893"/>
  <flow id="JF163781" begin="5060" fromJunction="J5" toJunction="J7" end="5120" vehsPerHour="17.29850511614285"/>
  <flow id="JF163782" begin="5060" fromJunction="J6" toJunction="J0" end="5120" vehsPerHour="24.575532625371522"/>
  <flow id="JF163783" begin="5060" fromJunction="J6" toJunction="J3" end="5120" vehsPerHour="36.24608681556329"/>
  <flow id="JF163784" begin="5060" fromJunction="J4" toJunction="J0" end="5120" vehsPerHour="57.858549200808866"/>
  <flow id="JF163785" begin="5060" fromJunction="J4" toJunction="J3" end="5120" vehsPerHour="47.376559309266824"/>
  <flow id="JF163786" begin="5060" fromJunction="J7" toJunction="J0" end="5120" vehsPerHour="36.359025028525565"/>
  <flow id="JF163787" begin="5060" fromJunction="J7" toJunction="J3" end="5120" vehsPerHour="33.83093606071008"/>
  <flow id="JF163788" begin="5060" fromJunction="J5" toJunction="J0" end="5120" vehsPerHour="30.159184416012412"/>
  <flow id="JF163789" begin="5060" fromJunction="J5" toJunction="J3" end="5120" vehsPerHour="49.639545969796345"/>
  <flow id="JF163790" begin="5120" fromJunction="J0" toJunction="J3" end="5180" vehsPerHour="355.8347538145672"/>
  <flow id="JF163791" begin="5120" fromJunction="J3" toJunction="J0" end="5180" vehsPerHour="258.03515394854105"/>
  <flow id="JF163792" begin="5120" fromJunction="J0" toJunction="J6" end="5180" vehsPerHour="29.68830626047535"/>
  <flow id="JF163793" begin="5120" fromJunction="J0" toJunction="J4" end="5180" vehsPerHour="103.34097548435959"/>
  <flow id="JF163794" begin="5120" fromJunction="J0" toJunction="J7" end="5180" vehsPerHour="27.105797224114507"/>
  <flow id="JF163795" begin="5120" fromJunction="J0" toJunction="J5" end="5180" vehsPerHour="131.23635130030553"/>
  <flow id="JF163796" begin="5120" fromJunction="J3" toJunction="J6" end="5180" vehsPerHour="72.54477612627896"/>
  <flow id="JF163797" begin="5120" fromJunction="J3" toJunction="J4" end="5180" vehsPerHour="66.23690649069589"/>
  <flow id="JF163798" begin="5120" fromJunction="J3" toJunction="J7" end="5180" vehsPerHour="3.4018429057327486"/>
  <flow id="JF163799" begin="5120" fromJunction="J3" toJunction="J5" end="5180" vehsPerHour="108.1120736639699"/>
  <flow id="JF163800" begin="5120" fromJunction="J6" toJunction="J4" end="5180" vehsPerHour="38.04348978486608"/>
  <flow id="JF163801" begin="5120" fromJunction="J6" toJunction="J7" end="5180" vehsPerHour="67.17535220911027"/>
  <flow id="JF163802" begin="5120" fromJunction="J6" toJunction="J5" end="5180" vehsPerHour="30.75762811160899"/>
  <flow id="JF163803" begin="5120" fromJunction="J4" toJunction="J6" end="5180" vehsPerHour="8.541564722610474"/>
  <flow id="JF163804" begin="5120" fromJunction="J4" toJunction="J7" end="5180" vehsPerHour="32.23269555981011"/>
  <flow id="JF163805" begin="5120" fromJunction="J4" toJunction="J5" end="5180" vehsPerHour="37.73179635149058"/>
  <flow id="JF163806" begin="5120" fromJunction="J7" toJunction="J6" end="5180" vehsPerHour="45.36400089518124"/>
  <flow id="JF163807" begin="5120" fromJunction="J7" toJunction="J4" end="5180" vehsPerHour="58.7826377275857"/>
  <flow id="JF163808" begin="5120" fromJunction="J7" toJunction="J5" end="5180" vehsPerHour="31.54488087483065"/>
  <flow id="JF163809" begin="5120" fromJunction="J5" toJunction="J6" end="5180" vehsPerHour="11.12457587427025"/>
  <flow id="JF163810" begin="5120" fromJunction="J5" toJunction="J4" end="5180" vehsPerHour="7.656534736131259"/>
  <flow id="JF163811" begin="5120" fromJunction="J5" toJunction="J7" end="5180" vehsPerHour="64.16399053279777"/>
  <flow id="JF163812" begin="5120" fromJunction="J6" toJunction="J0" end="5180" vehsPerHour="56.06295845486541"/>
  <flow id="JF163813" begin="5120" fromJunction="J6" toJunction="J3" end="5180" vehsPerHour="63.677405025565584"/>
  <flow id="JF163814" begin="5120" fromJunction="J4" toJunction="J0" end="5180" vehsPerHour="67.7753551537334"/>
  <flow id="JF163815" begin="5120" fromJunction="J4" toJunction="J3" end="5180" vehsPerHour="53.53463178486822"/>
  <flow id="JF163816" begin="5120" fromJunction="J7" toJunction="J0" end="5180" vehsPerHour="64.62918901203791"/>
  <flow id="JF163817" begin="5120" fromJunction="J7" toJunction="J3" end="5180" vehsPerHour="43.09498790731487"/>
  <flow id="JF163818" begin="5120" fromJunction="J5" toJunction="J0" end="5180" vehsPerHour="3.1151758394080384"/>
  <flow id="JF163819" begin="5120" fromJunction="J5" toJunction="J3" end="5180" vehsPerHour="19.809735628899006"/>
  <flow id="JF163820" begin="5180" fromJunction="J0" toJunction="J3" end="5240" vehsPerHour="73.08158980922578"/>
  <flow id="JF163821" begin="5180" fromJunction="J3" toJunction="J0" end="5240" vehsPerHour="153.61600158933115"/>
  <flow id="JF163822" begin="5180" fromJunction="J0" toJunction="J6" end="5240" vehsPerHour="99.44359789601357"/>
  <flow id="JF163823" begin="5180" fromJunction="J0" toJunction="J4" end="5240" vehsPerHour="36.1450369027582"/>
  <flow id="JF163824" begin="5180" fromJunction="J0" toJunction="J7" end="5240" vehsPerHour="20.644891893543914"/>
  <flow id="JF163825" begin="5180" fromJunction="J0" toJunction="J5" end="5240" vehsPerHour="57.270126148268155"/>
  <flow id="JF163826" begin="5180" fromJunction="J3" toJunction="J6" end="5240" vehsPerHour="117.8169029876946"/>
  <flow id="JF163827" begin="5180" fromJunction="J3" toJunction="J4" end="5240" vehsPerHour="41.43739145721716"/>
  <flow id="JF163828" begin="5180" fromJunction="J3" toJunction="J7" end="5240" vehsPerHour="30.748976311969447"/>
  <flow id="JF163829" begin="5180" fromJunction="J3" toJunction="J5" end="5240" vehsPerHour="61.131089864682224"/>
  <flow id="JF163830" begin="5180" fromJunction="J6" toJunction="J4" end="5240" vehsPerHour="57.05898004050264"/>
  <flow id="JF163831" begin="5180" fromJunction="J6" toJunction="J7" end="5240" vehsPerHour="27.475549563892322"/>
  <flow id="JF163832" begin="5180" fromJunction="J6" toJunction="J5" end="5240" vehsPerHour="20.753710045552598"/>
  <flow id="JF163833" begin="5180" fromJunction="J4" toJunction="J6" end="5240" vehsPerHour="60.28369343840198"/>
  <flow id="JF163834" begin="5180" fromJunction="J4" toJunction="J7" end="5240" vehsPerHour="67.32639764590152"/>
  <flow id="JF163835" begin="5180" fromJunction="J4" toJunction="J5" end="5240" vehsPerHour="51.43605651291645"/>
  <flow id="JF163836" begin="5180" fromJunction="J7" toJunction="J6" end="5240" vehsPerHour="6.000603304553496"/>
  <flow id="JF163837" begin="5180" fromJunction="J7" toJunction="J4" end="5240" vehsPerHour="11.644921236645297"/>
  <flow id="JF163838" begin="5180" fromJunction="J7" toJunction="J5" end="5240" vehsPerHour="0.43590974445150804"/>
  <flow id="JF163839" begin="5180" fromJunction="J5" toJunction="J6" end="5240" vehsPerHour="43.98722317071113"/>
  <flow id="JF163840" begin="5180" fromJunction="J5" toJunction="J4" end="5240" vehsPerHour="21.766968920306752"/>
  <flow id="JF163841" begin="5180" fromJunction="J5" toJunction="J7" end="5240" vehsPerHour="55.06031798886492"/>
  <flow id="JF163842" begin="5180" fromJunction="J6" toJunction="J0" end="5240" vehsPerHour="14.30422598706079"/>
  <flow id="JF163843" begin="5180" fromJunction="J6" toJunction="J3" end="5240" vehsPerHour="48.775779176173614"/>
  <flow id="JF163844" begin="5180" fromJunction="J4" toJunction="J0" end="5240" vehsPerHour="66.64119656803315"/>
  <flow id="JF163845" begin="5180" fromJunction="J4" toJunction="J3" end="5240" vehsPerHour="17.57657840153575"/>
  <flow id="JF163846" begin="5180" fromJunction="J7" toJunction="J0" end="5240" vehsPerHour="19.894646681630704"/>
  <flow id="JF163847" begin="5180" fromJunction="J7" toJunction="J3" end="5240" vehsPerHour="35.758345073165785"/>
  <flow id="JF163848" begin="5180" fromJunction="J5" toJunction="J0" end="5240" vehsPerHour="15.07979303573253"/>
  <flow id="JF163849" begin="5180" fromJunction="J5" toJunction="J3" end="5240" vehsPerHour="61.972289929763924"/>
  <flow id="JF163850" begin="5240" fromJunction="J0" toJunction="J3" end="5300" vehsPerHour="528.6365613423785"/>
  <flow id="JF163851" begin="5240" fromJunction="J3" toJunction="J0" end="5300" vehsPerHour="166.34281482740317"/>
  <flow id="JF163852" begin="5240" fromJunction="J0" toJunction="J6" end="5300" vehsPerHour="87.64465016442571"/>
  <flow id="JF163853" begin="5240" fromJunction="J0" toJunction="J4" end="5300" vehsPerHour="37.410852923400974"/>
  <flow id="JF163854" begin="5240" fromJunction="J0" toJunction="J7" end="5300" vehsPerHour="83.3582106014709"/>
  <flow id="JF163855" begin="5240" fromJunction="J0" toJunction="J5" end="5300" vehsPerHour="72.29594491793019"/>
  <flow id="JF163856" begin="5240" fromJunction="J3" toJunction="J6" end="5300" vehsPerHour="100.4491165558936"/>
  <flow id="JF163857" begin="5240" fromJunction="J3" toJunction="J4" end="5300" vehsPerHour="102.51452414880674"/>
  <flow id="JF163858" begin="5240" fromJunction="J3" toJunction="J7" end="5300" vehsPerHour="123.12221508732951"/>
  <flow id="JF163859" begin="5240" fromJunction="J3" toJunction="J5" end="5300" vehsPerHour="69.16519792009089"/>
  <flow id="JF163860" begin="5240" fromJunction="J6" toJunction="J4" end="5300" vehsPerHour="21.064864310385303"/>
  <flow id="JF163861" begin="5240" fromJunction="J6" toJunction="J7" end="5300" vehsPerHour="30.568524222577018"/>
  <flow id="JF163862" begin="5240" fromJunction="J6" toJunction="J5" end="5300" vehsPerHour="2.78834210792913"/>
  <flow id="JF163863" begin="5240" fromJunction="J4" toJunction="J6" end="5300" vehsPerHour="28.273593503029932"/>
  <flow id="JF163864" begin="5240" fromJunction="J4" toJunction="J7" end="5300" vehsPerHour="46.502657934017165"/>
  <flow id="JF163865" begin="5240" fromJunction="J4" toJunction="J5" end="5300" vehsPerHour="34.628703802383555"/>
  <flow id="JF163866" begin="5240" fromJunction="J7" toJunction="J6" end="5300" vehsPerHour="67.51761878509612"/>
  <flow id="JF163867" begin="5240" fromJunction="J7" toJunction="J4" end="5300" vehsPerHour="1.9651930106758821"/>
  <flow id="JF163868" begin="5240" fromJunction="J7" toJunction="J5" end="5300" vehsPerHour="8.651691581540405"/>
  <flow id="JF163869" begin="5240" fromJunction="J5" toJunction="J6" end="5300" vehsPerHour="1.8361969897767614"/>
  <flow id="JF163870" begin="5240" fromJunction="J5" toJunction="J4" end="5300" vehsPerHour="50.06472703818287"/>
  <flow id="JF163871" begin="5240" fromJunction="J5" toJunction="J7" end="5300" vehsPerHour="12.206365520641562"/>
  <flow id="JF163872" begin="5240" fromJunction="J6" toJunction="J0" end="5300" vehsPerHour="61.263820606526124"/>
  <flow id="JF163873" begin="5240" fromJunction="J6" toJunction="J3" end="5300" vehsPerHour="60.93359070713501"/>
  <flow id="JF163874" begin="5240" fromJunction="J4" toJunction="J0" end="5300" vehsPerHour="60.940340556673036"/>
  <flow id="JF163875" begin="5240" fromJunction="J4" toJunction="J3" end="5300" vehsPerHour="49.94485132280882"/>
  <flow id="JF163876" begin="5240" fromJunction="J7" toJunction="J0" end="5300" vehsPerHour="25.624882701542404"/>
  <flow id="JF163877" begin="5240" fromJunction="J7" toJunction="J3" end="5300" vehsPerHour="38.71709981785072"/>
  <flow id="JF163878" begin="5240" fromJunction="J5" toJunction="J0" end="5300" vehsPerHour="57.45800884023194"/>
  <flow id="JF163879" begin="5240" fromJunction="J5" toJunction="J3" end="5300" vehsPerHour="56.456219787900444"/>
  <flow id="JF163880" begin="5300" fromJunction="J0" toJunction="J3" end="5360" vehsPerHour="5.856362026610564"/>
  <flow id="JF163881" begin="5300" fromJunction="J3" toJunction="J0" end="5360" vehsPerHour="459.54962804339954"/>
  <flow id="JF163882" begin="5300" fromJunction="J0" toJunction="J6" end="5360" vehsPerHour="60.91726621445286"/>
  <flow id="JF163883" begin="5300" fromJunction="J0" toJunction="J4" end="5360" vehsPerHour="83.04770675542186"/>
  <flow id="JF163884" begin="5300" fromJunction="J0" toJunction="J7" end="5360" vehsPerHour="0.4261995878080116"/>
  <flow id="JF163885" begin="5300" fromJunction="J0" toJunction="J5" end="5360" vehsPerHour="36.282714706638345"/>
  <flow id="JF163886" begin="5300" fromJunction="J3" toJunction="J6" end="5360" vehsPerHour="45.849312496395044"/>
  <flow id="JF163887" begin="5300" fromJunction="J3" toJunction="J4" end="5360" vehsPerHour="100.88152574824822"/>
  <flow id="JF163888" begin="5300" fromJunction="J3" toJunction="J7" end="5360" vehsPerHour="54.26584847484848"/>
  <flow id="JF163889" begin="5300" fromJunction="J3" toJunction="J5" end="5360" vehsPerHour="126.6667887684675"/>
  <flow id="JF163890" begin="5360" fromJunction="J0" toJunction="J3" end="5420" vehsPerHour="140.37211770646127"/>
  <flow id="JF163891" begin="5360" fromJunction="J3" toJunction="J0" end="5420" vehsPerHour="327.43302349373266"/>
  <flow id="JF163892" begin="5360" fromJunction="J0" toJunction="J6" end="5420" vehsPerHour="13.169157455226598"/>
  <flow id="JF163893" begin="5360" fromJunction="J0" toJunction="J4" end="5420" vehsPerHour="64.59144878923573"/>
  <flow id="JF163894" begin="5360" fromJunction="J0" toJunction="J7" end="5420" vehsPerHour="131.5836037004946"/>
  <flow id="JF163895" begin="5360" fromJunction="J0" toJunction="J5" end="5420" vehsPerHour="28.065899535563542"/>
  <flow id="JF163896" begin="5360" fromJunction="J3" toJunction="J6" end="5420" vehsPerHour="8.421439718464448"/>
  <flow id="JF163897" begin="5360" fromJunction="J3" toJunction="J4" end="5420" vehsPerHour="64.22059822342042"/>
  <flow id="JF163898" begin="5360" fromJunction="J3" toJunction="J7" end="5420" vehsPerHour="18.50830722529006"/>
  <flow id="JF163899" begin="5360" fromJunction="J3" toJunction="J5" end="5420" vehsPerHour="43.15201519272676"/>
  <flow id="JF163900" begin="5420" fromJunction="J0" toJunction="J3" end="5480" vehsPerHour="269.98862641985824"/>
  <flow id="JF163901" begin="5420" fromJunction="J3" toJunction="J0" end="5480" vehsPerHour="71.6271847699003"/>
  <flow id="JF163902" begin="5420" fromJunction="J0" toJunction="J6" end="5480" vehsPerHour="71.80778712077233"/>
  <flow id="JF163903" begin="5420" fromJunction="J0" toJunction="J4" end="5480" vehsPerHour="88.1600051785155"/>
  <flow id="JF163904" begin="5420" fromJunction="J0" toJunction="J7" end="5480" vehsPerHour="94.24766160260972"/>
  <flow id="JF163905" begin="5420" fromJunction="J0" toJunction="J5" end="5480" vehsPerHour="49.523971380771314"/>
  <flow id="JF163906" begin="5420" fromJunction="J3" toJunction="J6" end="5480" vehsPerHour="61.10893714387423"/>
  <flow id="JF163907" begin="5420" fromJunction="J3" toJunction="J4" end="5480" vehsPerHour="18.580354619914225"/>
  <flow id="JF163908" begin="5420" fromJunction="J3" toJunction="J7" end="5480" vehsPerHour="68.10861413469723"/>
  <flow id="JF163909" begin="5420" fromJunction="J3" toJunction="J5" end="5480" vehsPerHour="135.73535630396486"/>
  <flow id="JF163910" begin="5420" fromJunction="J6" toJunction="J4" end="5480" vehsPerHour="34.0474760079702"/>
  <flow id="JF163911" begin="5420" fromJunction="J6" toJunction="J7" end="5480" vehsPerHour="30.03170664801232"/>
  <flow id="JF163912" begin="5420" fromJunction="J6" toJunction="J5" end="5480" vehsPerHour="49.34307443179368"/>
  <flow id="JF163913" begin="5420" fromJunction="J4" toJunction="J6" end="5480" vehsPerHour="22.25359961609971"/>
  <flow id="JF163914" begin="5420" fromJunction="J4" toJunction="J7" end="5480" vehsPerHour="29.79096000860354"/>
  <flow id="JF163915" begin="5420" fromJunction="J4" toJunction="J5" end="5480" vehsPerHour="44.292374805800016"/>
  <flow id="JF163916" begin="5420" fromJunction="J7" toJunction="J6" end="5480" vehsPerHour="33.38397956619702"/>
  <flow id="JF163917" begin="5420" fromJunction="J7" toJunction="J4" end="5480" vehsPerHour="46.627944674823034"/>
  <flow id="JF163918" begin="5420" fromJunction="J7" toJunction="J5" end="5480" vehsPerHour="46.655159497969734"/>
  <flow id="JF163919" begin="5420" fromJunction="J5" toJunction="J6" end="5480" vehsPerHour="14.075569975109412"/>
  <flow id="JF163920" begin="5420" fromJunction="J5" toJunction="J4" end="5480" vehsPerHour="52.651740742562815"/>
  <flow id="JF163921" begin="5420" fromJunction="J5" toJunction="J7" end="5480" vehsPerHour="53.2673706274901"/>
  <flow id="JF163922" begin="5420" fromJunction="J6" toJunction="J0" end="5480" vehsPerHour="28.584609774971256"/>
  <flow id="JF163923" begin="5420" fromJunction="J6" toJunction="J3" end="5480" vehsPerHour="49.602775176906654"/>
  <flow id="JF163924" begin="5420" fromJunction="J4" toJunction="J0" end="5480" vehsPerHour="24.208596904559954"/>
  <flow id="JF163925" begin="5420" fromJunction="J4" toJunction="J3" end="5480" vehsPerHour="33.30123672323983"/>
  <flow id="JF163926" begin="5420" fromJunction="J7" toJunction="J0" end="5480" vehsPerHour="8.88173338584477"/>
  <flow id="JF163927" begin="5420" fromJunction="J7" toJunction="J3" end="5480" vehsPerHour="0.05471181324486103"/>
  <flow id="JF163928" begin="5420" fromJunction="J5" toJunction="J0" end="5480" vehsPerHour="64.66435983544258"/>
  <flow id="JF163929" begin="5420" fromJunction="J5" toJunction="J3" end="5480" vehsPerHour="50.96378284253067"/>
  <flow id="JF163930" begin="5480" fromJunction="J0" toJunction="J3" end="5540" vehsPerHour="148.86801728838563"/>
  <flow id="JF163931" begin="5480" fromJunction="J3" toJunction="J0" end="5540" vehsPerHour="543.8077805861648"/>
  <flow id="JF163932" begin="5480" fromJunction="J0" toJunction="J6" end="5540" vehsPerHour="3.4880313704598187"/>
  <flow id="JF163933" begin="5480" fromJunction="J0" toJunction="J4" end="5540" vehsPerHour="73.66685720185505"/>
  <flow id="JF163934" begin="5480" fromJunction="J0" toJunction="J7" end="5540" vehsPerHour="98.84089554326789"/>
  <flow id="JF163935" begin="5480" fromJunction="J0" toJunction="J5" end="5540" vehsPerHour="102.05001312235342"/>
  <flow id="JF163936" begin="5480" fromJunction="J3" toJunction="J6" end="5540" vehsPerHour="124.08384645464099"/>
  <flow id="JF163937" begin="5480" fromJunction="J3" toJunction="J4" end="5540" vehsPerHour="122.0785378023258"/>
  <flow id="JF163938" begin="5480" fromJunction="J3" toJunction="J7" end="5540" vehsPerHour="100.51619273718657"/>
  <flow id="JF163939" begin="5480" fromJunction="J3" toJunction="J5" end="5540" vehsPerHour="11.684404813373762"/>
  <flow id="JF163940" begin="5480" fromJunction="J6" toJunction="J4" end="5540" vehsPerHour="45.42653798022011"/>
  <flow id="JF163941" begin="5480" fromJunction="J6" toJunction="J7" end="5540" vehsPerHour="12.365423355512213"/>
  <flow id="JF163942" begin="5480" fromJunction="J6" toJunction="J5" end="5540" vehsPerHour="57.439145784692144"/>
  <flow id="JF163943" begin="5480" fromJunction="J4" toJunction="J6" end="5540" vehsPerHour="15.661932255871347"/>
  <flow id="JF163944" begin="5480" fromJunction="J4" toJunction="J7" end="5540" vehsPerHour="45.37905005578979"/>
  <flow id="JF163945" begin="5480" fromJunction="J4" toJunction="J5" end="5540" vehsPerHour="24.3680723661945"/>
  <flow id="JF163946" begin="5480" fromJunction="J7" toJunction="J6" end="5540" vehsPerHour="3.7360355527067304"/>
  <flow id="JF163947" begin="5480" fromJunction="J7" toJunction="J4" end="5540" vehsPerHour="5.970820585097651"/>
  <flow id="JF163948" begin="5480" fromJunction="J7" toJunction="J5" end="5540" vehsPerHour="26.98569632101725"/>
  <flow id="JF163949" begin="5480" fromJunction="J5" toJunction="J6" end="5540" vehsPerHour="46.395460987856595"/>
  <flow id="JF163950" begin="5480" fromJunction="J5" toJunction="J4" end="5540" vehsPerHour="56.19313118791118"/>
  <flow id="JF163951" begin="5480" fromJunction="J5" toJunction="J7" end="5540" vehsPerHour="58.57298466976779"/>
  <flow id="JF163952" begin="5480" fromJunction="J6" toJunction="J0" end="5540" vehsPerHour="41.42650946009088"/>
  <flow id="JF163953" begin="5480" fromJunction="J6" toJunction="J3" end="5540" vehsPerHour="55.434774880673814"/>
  <flow id="JF163954" begin="5480" fromJunction="J4" toJunction="J0" end="5540" vehsPerHour="67.29356113985409"/>
  <flow id="JF163955" begin="5480" fromJunction="J4" toJunction="J3" end="5540" vehsPerHour="3.514234807648359"/>
  <flow id="JF163956" begin="5480" fromJunction="J7" toJunction="J0" end="5540" vehsPerHour="34.778863549384624"/>
  <flow id="JF163957" begin="5480" fromJunction="J7" toJunction="J3" end="5540" vehsPerHour="63.80022282129376"/>
  <flow id="JF163958" begin="5480" fromJunction="J5" toJunction="J0" end="5540" vehsPerHour="17.53063713370951"/>
  <flow id="JF163959" begin="5480" fromJunction="J5" toJunction="J3" end="5540" vehsPerHour="26.69887140589004"/>
  <flow id="JF163960" begin="5540" fromJunction="J0" toJunction="J3" end="5600" vehsPerHour="319.8779452353203"/>
  <flow id="JF163961" begin="5540" fromJunction="J3" toJunction="J0" end="5600" vehsPerHour="27.05456663627115"/>
  <flow id="JF163962" begin="5540" fromJunction="J0" toJunction="J6" end="5600" vehsPerHour="86.6443913308413"/>
  <flow id="JF163963" begin="5540" fromJunction="J0" toJunction="J4" end="5600" vehsPerHour="7.837436478869576"/>
  <flow id="JF163964" begin="5540" fromJunction="J0" toJunction="J7" end="5600" vehsPerHour="41.576355400055526"/>
  <flow id="JF163965" begin="5540" fromJunction="J0" toJunction="J5" end="5600" vehsPerHour="115.77768840558086"/>
  <flow id="JF163966" begin="5540" fromJunction="J3" toJunction="J6" end="5600" vehsPerHour="16.08207826111467"/>
  <flow id="JF163967" begin="5540" fromJunction="J3" toJunction="J4" end="5600" vehsPerHour="39.01285435797201"/>
  <flow id="JF163968" begin="5540" fromJunction="J3" toJunction="J7" end="5600" vehsPerHour="36.70014452381721"/>
  <flow id="JF163969" begin="5540" fromJunction="J3" toJunction="J5" end="5600" vehsPerHour="67.3767853052451"/>
  <flow id="JF163970" begin="5540" fromJunction="J6" toJunction="J4" end="5600" vehsPerHour="10.876874727611579"/>
  <flow id="JF163971" begin="5540" fromJunction="J6" toJunction="J7" end="5600" vehsPerHour="15.538018676047713"/>
  <flow id="JF163972" begin="5540" fromJunction="J6" toJunction="J5" end="5600" vehsPerHour="39.71908751304015"/>
  <flow id="JF163973" begin="5540" fromJunction="J4" toJunction="J6" end="5600" vehsPerHour="31.470301004750162"/>
  <flow id="JF163974" begin="5540" fromJunction="J4" toJunction="J7" end="5600" vehsPerHour="54.03961594108679"/>
  <flow id="JF163975" begin="5540" fromJunction="J4" toJunction="J5" end="5600" vehsPerHour="48.22588375287738"/>
  <flow id="JF163976" begin="5540" fromJunction="J7" toJunction="J6" end="5600" vehsPerHour="63.665155098235985"/>
  <flow id="JF163977" begin="5540" fromJunction="J7" toJunction="J4" end="5600" vehsPerHour="55.446249442308854"/>
  <flow id="JF163978" begin="5540" fromJunction="J7" toJunction="J5" end="5600" vehsPerHour="37.96963334993557"/>
  <flow id="JF163979" begin="5540" fromJunction="J5" toJunction="J6" end="5600" vehsPerHour="6.72375287179704"/>
  <flow id="JF163980" begin="5540" fromJunction="J5" toJunction="J4" end="5600" vehsPerHour="37.29372619326902"/>