<?xml version="1.0" encoding="UTF-8"?>
<routes xmlns:xsi="http://www.w3.org/2001/XMLSchema-instance" xsi:noNamespaceSchemaLocation="http://sumo.dlr.de/xsd/routes_file.xsd">
  <flow id="JF0" begin="0" fromJunction="J0" toJunction="J12" end="360" vehsPerHour="50.70555781069925" departLane="free" arrivalSpeed="0.0"/>
  <flow id="JF1" begin="0" fromJunction="J0" toJunction="J13" end="360" vehsPerHour="6.017914136586189" departLane="free" arrivalSpeed="0.0"/>
  <flow id="JF2" begin="0" fromJunction="J0" toJunction="J14" end="360" vehsPerHour="8.23975318066" departLane="free" arrivalSpeed="0.0"/>
  <flow id="JF3" begin="0" fromJunction="J0" toJunction="J16" end="360" vehsPerHour="21.607697711785168" departLane="free" arrivalSpeed="0.0"/>
  <flow id="JF4" begin="0" fromJunction="J0" toJunction="J2" end="360" vehsPerHour="25.081494249583233" departLane="free" arrivalSpeed="0.0"/>
  <flow id="JF5" begin="0" fromJunction="J0" toJunction="J3" end="360" vehsPerHour="56.90917994831629" departLane="free" arrivalSpeed="0.0"/>
  <flow id="JF6" begin="0" fromJunction="J0" toJunction="J6" end="360" vehsPerHour="52.63769575893761" departLane="free" arrivalSpeed="0.0"/>
  <flow id="JF7" begin="0" fromJunction="J12" toJunction="J0" end="360" vehsPerHour="55.94032020167781" departLane="free" arrivalSpeed="0.0"/>
  <flow id="JF8" begin="0" fromJunction="J12" toJunction="J13" end="360" vehsPerHour="20.73744647438115" departLane="free" arrivalSpeed="0.0"/>
  <flow id="JF9" begin="0" fromJunction="J12" toJunction="J14" end="360" vehsPerHour="57.03095038321136" departLane="free" arrivalSpeed="0.0"/>
  <flow id="JF10" begin="0" fromJunction="J12" toJunction="J2" end="360" vehsPerHour="59.07247216191745" departLane="free" arrivalSpeed="0.0"/>
  <flow id="JF11" begin="0" fromJunction="J12" toJunction="J3" end="360" vehsPerHour="20.50048579004705" departLane="free" arrivalSpeed="0.0"/>
  <flow id="JF12" begin="0" fromJunction="J12" toJunction="J6" end="360" vehsPerHour="26.23880129597833" departLane="free" arrivalSpeed="0.0"/>
  <flow id="JF13" begin="0" fromJunction="J12" toJunction="J7" end="360" vehsPerHour="42.236931270191214" departLane="free" arrivalSpeed="0.0"/>
  <flow id="JF14" begin="0" fromJunction="J12" toJunction="J8" end="360" vehsPerHour="7.8260456264609815" departLane="free" arrivalSpeed="0.0"/>
  <flow id="JF15" begin="0" fromJunction="J13" toJunction="J0" end="360" vehsPerHour="27.135186432200115" departLane="free" arrivalSpeed="0.0"/>
  <flow id="JF16" begin="0" fromJunction="J13" toJunction="J12" end="360" vehsPerHour="54.26095857551897" departLane="free" arrivalSpeed="0.0"/>
  <flow id="JF17" begin="0" fromJunction="J13" toJunction="J14" end="360" vehsPerHour="47.17343882632675" departLane="free" arrivalSpeed="0.0"/>
  <flow id="JF18" begin="0" fromJunction="J13" toJunction="J15" end="360" vehsPerHour="15.145905621120184" departLane="free" arrivalSpeed="0.0"/>
  <flow id="JF19" begin="0" fromJunction="J13" toJunction="J2" end="360" vehsPerHour="53.08455586448649" departLane="free" arrivalSpeed="0.0"/>
  <flow id="JF20" begin="0" fromJunction="J13" toJunction="J6" end="360" vehsPerHour="35.18562888532886" departLane="free" arrivalSpeed="0.0"/>
  <flow id="JF21" begin="0" fromJunction="J13" toJunction="J7" end="360" vehsPerHour="39.89555705591563" departLane="free" arrivalSpeed="0.0"/>
  <flow id="JF22" begin="0" fromJunction="J13" toJunction="J8" end="360" vehsPerHour="11.540796737222218" departLane="free" arrivalSpeed="0.0"/>
  <flow id="JF23" begin="0" fromJunction="J13" toJunction="J9" end="360" vehsPerHour="36.76159043801588" departLane="free" arrivalSpeed="0.0"/>
  <flow id="JF24" begin="0" fromJunction="J14" toJunction="J0" end="360" vehsPerHour="65.37856241976057" departLane="free" arrivalSpeed="0.0"/>
  <flow id="JF25" begin="0" fromJunction="J14" toJunction="J12" end="360" vehsPerHour="48.50283693822463" departLane="free" arrivalSpeed="0.0"/>
  <flow id="JF26" begin="0" fromJunction="J14" toJunction="J13" end="360" vehsPerHour="5.368834512251999" departLane="free" arrivalSpeed="0.0"/>
  <flow id="JF27" begin="0" fromJunction="J14" toJunction="J16" end="360" vehsPerHour="1.4755599732499665" departLane="free" arrivalSpeed="0.0"/>
  <flow id="JF28" begin="0" fromJunction="J14" toJunction="J2" end="360" vehsPerHour="5.246802501182892" departLane="free" arrivalSpeed="0.0"/>
  <flow id="JF29" begin="0" fromJunction="J14" toJunction="J6" end="360" vehsPerHour="47.955534792003476" departLane="free" arrivalSpeed="0.0"/>
  <flow id="JF30" begin="0" fromJunction="J14" toJunction="J9" end="360" vehsPerHour="27.237106052555806" departLane="free" arrivalSpeed="0.0"/>
  <flow id="JF31" begin="0" fromJunction="J15" toJunction="J0" end="360" vehsPerHour="9.560626002178893" departLane="free" arrivalSpeed="0.0"/>
  <flow id="JF32" begin="0" fromJunction="J15" toJunction="J12" end="360" vehsPerHour="46.575033342813" departLane="free" arrivalSpeed="0.0"/>
  <flow id="JF33" begin="0" fromJunction="J15" toJunction="J13" end="360" vehsPerHour="55.38213028602999" departLane="free" arrivalSpeed="0.0"/>
  <flow id="JF34" begin="0" fromJunction="J15" toJunction="J14" end="360" vehsPerHour="40.57424841757868" departLane="free" arrivalSpeed="0.0"/>
  <flow id="JF35" begin="0" fromJunction="J15" toJunction="J2" end="360" vehsPerHour="42.058988436238906" departLane="free" arrivalSpeed="0.0"/>
  <flow id="JF36" begin="0" fromJunction="J15" toJunction="J3" end="360" vehsPerHour="35.064958689714175" departLane="free" arrivalSpeed="0.0"/>
  <flow id="JF37" begin="0" fromJunction="J15" toJunction="J6" end="360" vehsPerHour="46.22220589299257" departLane="free" arrivalSpeed="0.0"/>
  <flow id="JF38" begin="0" fromJunction="J15" toJunction="J7" end="360" vehsPerHour="23.95830655134045" departLane="free" arrivalSpeed="0.0"/>
  <flow id="JF39" begin="0" fromJunction="J15" toJunction="J8" end="360" vehsPerHour="61.103532587963485" departLane="free" arrivalSpeed="0.0"/>
  <flow id="JF40" begin="0" fromJunction="J15" toJunction="J9" end="360" vehsPerHour="6.167477697530038" departLane="free" arrivalSpeed="0.0"/>
  <flow id="JF41" begin="0" fromJunction="J16" toJunction="J0" end="360" vehsPerHour="132.69123264073735" departLane="free" arrivalSpeed="0.0"/>
  <flow id="JF42" begin="0" fromJunction="J16" toJunction="J12" end="360" vehsPerHour="28.81931143262953" departLane="free" arrivalSpeed="0.0"/>
  <flow id="JF43" begin="0" fromJunction="J16" toJunction="J13" end="360" vehsPerHour="32.529508178075474" departLane="free" arrivalSpeed="0.0"/>
  <flow id="JF44" begin="0" fromJunction="J16" toJunction="J14" end="360" vehsPerHour="109.39036950406022" departLane="free" arrivalSpeed="0.0"/>
  <flow id="JF45" begin="0" fromJunction="J16" toJunction="J15" end="360" vehsPerHour="89.36788180699642" departLane="free" arrivalSpeed="0.0"/>
  <flow id="JF46" begin="0" fromJunction="J16" toJunction="J3" end="360" vehsPerHour="56.052770872325475" departLane="free" arrivalSpeed="0.0"/>
  <flow id="JF47" begin="0" fromJunction="J16" toJunction="J6" end="360" vehsPerHour="28.264180315632412" departLane="free" arrivalSpeed="0.0"/>
  <flow id="JF48" begin="0" fromJunction="J16" toJunction="J7" end="360" vehsPerHour="131.33548076024059" departLane="free" arrivalSpeed="0.0"/>
  <flow id="JF49" begin="0" fromJunction="J16" toJunction="J8" end="360" vehsPerHour="19.518648387655652" departLane="free" arrivalSpeed="0.0"/>
  <flow id="JF50" begin="0" fromJunction="J16" toJunction="J9" end="360" vehsPerHour="118.30944283054042" departLane="free" arrivalSpeed="0.0"/>
  <flow id="JF51" begin="0" fromJunction="J2" toJunction="J12" end="360" vehsPerHour="135.48847958689825" departLane="free" arrivalSpeed="0.0"/>
  <flow id="JF52" begin="0" fromJunction="J2" toJunction="J13" end="360" vehsPerHour="81.52167335391239" departLane="free" arrivalSpeed="0.0"/>
  <flow id="JF53" begin="0" fromJunction="J2" toJunction="J14" end="360" vehsPerHour="87.94543982956753" departLane="free" arrivalSpeed="0.0"/>
  <flow id="JF54" begin="0" fromJunction="J2" toJunction="J15" end="360" vehsPerHour="0.6669986279729843" departLane="free" arrivalSpeed="0.0"/>
  <flow id="JF55" begin="0" fromJunction="J2" toJunction="J16" end="360" vehsPerHour="97.66659167890398" departLane="free" arrivalSpeed="0.0"/>
  <flow id="JF56" begin="0" fromJunction="J2" toJunction="J7" end="360" vehsPerHour="106.09158241317387" departLane="free" arrivalSpeed="0.0"/>
  <flow id="JF57" begin="0" fromJunction="J2" toJunction="J8" end="360" vehsPerHour="92.49919990068031" departLane="free" arrivalSpeed="0.0"/>
  <flow id="JF58" begin="0" fromJunction="J2" toJunction="J9" end="360" vehsPerHour="131.69301539696366" departLane="free" arrivalSpeed="0.0"/>
  <flow id="JF59" begin="0" fromJunction="J3" toJunction="J0" end="360" vehsPerHour="64.86717911978936" departLane="free" arrivalSpeed="0.0"/>
  <flow id="JF60" begin="0" fromJunction="J3" toJunction="J12" end="360" vehsPerHour="4.190863921709265" departLane="free" arrivalSpeed="0.0"/>
  <flow id="JF61" begin="0" fromJunction="J3" toJunction="J13" end="360" vehsPerHour="2.4718277780405127" departLane="free" arrivalSpeed="0.0"/>
  <flow id="JF62" begin="0" fromJunction="J3" toJunction="J14" end="360" vehsPerHour="41.1609940134203" departLane="free" arrivalSpeed="0.0"/>
  <flow id="JF63" begin="0" fromJunction="J3" toJunction="J16" end="360" vehsPerHour="15.728335364461314" departLane="free" arrivalSpeed="0.0"/>
  <flow id="JF64" begin="0" fromJunction="J3" toJunction="J2" end="360" vehsPerHour="15.02640093752065" departLane="free" arrivalSpeed="0.0"/>
  <flow id="JF65" begin="0" fromJunction="J3" toJunction="J6" end="360" vehsPerHour="16.701993294022742" departLane="free" arrivalSpeed="0.0"/>
  <flow id="JF66" begin="0" fromJunction="J3" toJunction="J7" end="360" vehsPerHour="50.37035365962455" departLane="free" arrivalSpeed="0.0"/>
  <flow id="JF67" begin="0" fromJunction="J3" toJunction="J8" end="360" vehsPerHour="51.149478951282184" departLane="free" arrivalSpeed="0.0"/>
  <flow id="JF68" begin="0" fromJunction="J3" toJunction="J9" end="360" vehsPerHour="3.5532560934110315" departLane="free" arrivalSpeed="0.0"/>
  <flow id="JF69" begin="0" fromJunction="J6" toJunction="J0" end="360" vehsPerHour="44.93692461481109" departLane="free" arrivalSpeed="0.0"/>
  <flow id="JF70" begin="0" fromJunction="J6" toJunction="J12" end="360" vehsPerHour="61.75219559920377" departLane="free" arrivalSpeed="0.0"/>
  <flow id="JF71" begin="0" fromJunction="J6" toJunction="J13" end="360" vehsPerHour="55.97993122875907" departLane="free" arrivalSpeed="0.0"/>
  <flow id="JF72" begin="0" fromJunction="J6" toJunction="J14" end="360" vehsPerHour="42.92207760319891" departLane="free" arrivalSpeed="0.0"/>
  <flow id="JF73" begin="0" fromJunction="J6" toJunction="J15" end="360" vehsPerHour="18.161872769229156" departLane="free" arrivalSpeed="0.0"/>
  <flow id="JF74" begin="0" fromJunction="J6" toJunction="J16" end="360" vehsPerHour="49.337716062273145" departLane="free" arrivalSpeed="0.0"/>
  <flow id="JF75" begin="0" fromJunction="J6" toJunction="J3" end="360" vehsPerHour="21.153095815074614" departLane="free" arrivalSpeed="0.0"/>
  <flow id="JF76" begin="0" fromJunction="J6" toJunction="J8" end="360" vehsPerHour="43.2839705878722" departLane="free" arrivalSpeed="0.0"/>
  <flow id="JF77" begin="0" fromJunction="J6" toJunction="J9" end="360" vehsPerHour="18.50392937500088" departLane="free" arrivalSpeed="0.0"/>
  <flow id="JF78" begin="0" fromJunction="J7" toJunction="J0" end="360" vehsPerHour="7.616396424860194" departLane="free" arrivalSpeed="0.0"/>
  <flow id="JF79" begin="0" fromJunction="J7" toJunction="J12" end="360" vehsPerHour="26.391833388383695" departLane="free" arrivalSpeed="0.0"/>
  <flow id="JF80" begin="0" fromJunction="J7" toJunction="J13" end="360" vehsPerHour="37.676403666581024" departLane="free" arrivalSpeed="0.0"/>
  <flow id="JF81" begin="0" fromJunction="J7" toJunction="J15" end="360" vehsPerHour="58.09944144972948" departLane="free" arrivalSpeed="0.0"/>
  <flow id="JF82" begin="0" fromJunction="J7" toJunction="J16" end="360" vehsPerHour="14.417298866952365" departLane="free" arrivalSpeed="0.0"/>
  <flow id="JF83" begin="0" fromJunction="J7" toJunction="J2" end="360" vehsPerHour="32.90384534461708" departLane="free" arrivalSpeed="0.0"/>
  <flow id="JF84" begin="0" fromJunction="J7" toJunction="J3" end="360" vehsPerHour="48.07275955898019" departLane="free" arrivalSpeed="0.0"/>
  <flow id="JF85" begin="0" fromJunction="J7" toJunction="J6" end="360" vehsPerHour="0.4342070098358148" departLane="free" arrivalSpeed="0.0"/>
  <flow id="JF86" begin="0" fromJunction="J7" toJunction="J8" end="360" vehsPerHour="47.596094653712534" departLane="free" arrivalSpeed="0.0"/>
  <flow id="JF87" begin="0" fromJunction="J8" toJunction="J0" end="360" vehsPerHour="47.6108078273429" departLane="free" arrivalSpeed="0.0"/>
  <flow id="JF88" begin="0" fromJunction="J8" toJunction="J12" end="360" vehsPerHour="65.11370412351062" departLane="free" arrivalSpeed="0.0"/>
  <flow id="JF89" begin="0" fromJunction="J8" toJunction="J14" end="360" vehsPerHour="1.1168565417482506" departLane="free" arrivalSpeed="0.0"/>
  <flow id="JF90" begin="0" fromJunction="J8" toJunction="J16" end="360" vehsPerHour="51.09109703165892" departLane="free" arrivalSpeed="0.0"/>
  <flow id="JF91" begin="0" fromJunction="J8" toJunction="J2" end="360" vehsPerHour="24.484828514968733" departLane="free" arrivalSpeed="0.0"/>
  <flow id="JF92" begin="0" fromJunction="J8" toJunction="J6" end="360" vehsPerHour="7.491579027026847" departLane="free" arrivalSpeed="0.0"/>
  <flow id="JF93" begin="0" fromJunction="J9" toJunction="J0" end="360" vehsPerHour="24.414874693574554" departLane="free" arrivalSpeed="0.0"/>
  <flow id="JF94" begin="0" fromJunction="J9" toJunction="J12" end="360" vehsPerHour="20.696170898558854" departLane="free" arrivalSpeed="0.0"/>
  <flow id="JF95" begin="0" fromJunction="J9" toJunction="J13" end="360" vehsPerHour="62.78271976153975" departLane="free" arrivalSpeed="0.0"/>
  <flow id="JF96" begin="0" fromJunction="J9" toJunction="J15" end="360" vehsPerHour="44.71687389603524" departLane="free" arrivalSpeed="0.0"/>
  <flow id="JF97" begin="0" fromJunction="J9" toJunction="J16" end="360" vehsPerHour="19.84796407974343" departLane="free" arrivalSpeed="0.0"/>
  <flow id="JF98" begin="0" fromJunction="J9" toJunction="J2" end="360" vehsPerHour="42.07448827816238" departLane="free" arrivalSpeed="0.0"/>
  <flow id="JF99" begin="0" fromJunction="J9" toJunction="J3" end="360" vehsPerHour="67.95801964767436" departLane="free" arrivalSpeed="0.0"/>
  <flow id="JF100" begin="0" fromJunction="J9" toJunction="J8" end="360" vehsPerHour="24.344689323010744" departLane="free" arrivalSpeed="0.0"/>
  <flow id="JF101" begin="360" fromJunction="J0" toJunction="J13" end="720" vehsPerHour="32.76626669512279" departLane="free" arrivalSpeed="0.0"/>
  <flow id="JF102" begin="360" fromJunction="J0" toJunction="J14" end="720" vehsPerHour="26.40314247214038" departLane="free" arrivalSpeed="0.0"/>
  <flow id="JF103" begin="360" fromJunction="J0" toJunction="J2" end="720" vehsPerHour="42.53071782313756" departLane="free" arrivalSpeed="0.0"/>
  <flow id="JF104" begin="360" fromJunction="J0" toJunction="J3" end="720" vehsPerHour="23.553542924354044" departLane="free" arrivalSpeed="0.0"/>
  <flow id="JF105" begin="360" fromJunction="J0" toJunction="J6" end="720" vehsPerHour="42.555370642526235" departLane="free" arrivalSpeed="0.0"/>
  <flow id="JF106" begin="360" fromJunction="J0" toJunction="J8" end="720" vehsPerHour="60.52235258936917" departLane="free" arrivalSpeed="0.0"/>
  <flow id="JF107" begin="360" fromJunction="J12" toJunction="J13" end="720" vehsPerHour="22.84868361134596" departLane="free" arrivalSpeed="0.0"/>
  <flow id="JF108" begin="360" fromJunction="J12" toJunction="J14" end="720" vehsPerHour="28.394976321288855" departLane="free" arrivalSpeed="0.0"/>
  <flow id="JF109" begin="360" fromJunction="J12" toJunction="J15" end="720" vehsPerHour="59.65500613889071" departLane="free" arrivalSpeed="0.0"/>
  <flow id="JF110" begin="360" fromJunction="J12" toJunction="J16" end="720" vehsPerHour="5.460428248391573" departLane="free" arrivalSpeed="0.0"/>
  <flow id="JF111" begin="360" fromJunction="J12" toJunction="J2" end="720" vehsPerHour="17.730219550335086" departLane="free" arrivalSpeed="0.0"/>
  <flow id="JF112" begin="360" fromJunction="J12" toJunction="J6" end="720" vehsPerHour="50.668069751493796" departLane="free" arrivalSpeed="0.0"/>
  <flow id="JF113" begin="360" fromJunction="J12" toJunction="J7" end="720" vehsPerHour="55.47993833551177" departLane="free" arrivalSpeed="0.0"/>
  <flow id="JF114" begin="360" fromJunction="J12" toJunction="J8" end="720" vehsPerHour="65.65915746828875" departLane="free" arrivalSpeed="0.0"/>
  <flow id="JF115" begin="360" fromJunction="J12" toJunction="J9" end="720" vehsPerHour="40.20839692191637" departLane="free" arrivalSpeed="0.0"/>
  <flow id="JF116" begin="360" fromJunction="J13" toJunction="J0" end="720" vehsPerHour="58.81238931030515" departLane="free" arrivalSpeed="0.0"/>
  <flow id="JF117" begin="360" fromJunction="J13" toJunction="J12" end="720" vehsPerHour="52.07123012365202" departLane="free" arrivalSpeed="0.0"/>
  <flow id="JF118" begin="360" fromJunction="J13" toJunction="J14" end="720" vehsPerHour="53.51568817588639" departLane="free" arrivalSpeed="0.0"/>
  <flow id="JF119" begin="360" fromJunction="J13" toJunction="J15" end="720" vehsPerHour="16.986739116541788" departLane="free" arrivalSpeed="0.0"/>
  <flow id="JF120" begin="360" fromJunction="J13" toJunction="J16" end="720" vehsPerHour="60.49649026059042" departLane="free" arrivalSpeed="0.0"/>
  <flow id="JF121" begin="360" fromJunction="J13" toJunction="J2" end="720" vehsPerHour="56.058816158129346" departLane="free" arrivalSpeed="0.0"/>
  <flow id="JF122" begin="360" fromJunction="J13" toJunction="J3" end="720" vehsPerHour="42.60450337288909" departLane="free" arrivalSpeed="0.0"/>
  <flow id="JF123" begin="360" fromJunction="J13" toJunction="J6" end="720" vehsPerHour="43.954802465780816" departLane="free" arrivalSpeed="0.0"/>
  <flow id="JF124" begin="360" fromJunction="J13" toJunction="J7" end="720" vehsPerHour="6.048335057094394" departLane="free" arrivalSpeed="0.0"/>
  <flow id="JF125" begin="360" fromJunction="J13" toJunction="J8" end="720" vehsPerHour="15.830114324239572" departLane="free" arrivalSpeed="0.0"/>
  <flow id="JF126" begin="360" fromJunction="J13" toJunction="J9" end="720" vehsPerHour="6.230220153323172" departLane="free" arrivalSpeed="0.0"/>
  <flow id="JF127" begin="360" fromJunction="J14" toJunction="J0" end="720" vehsPerHour="26.550719410206046" departLane="free" arrivalSpeed="0.0"/>
  <flow id="JF128" begin="360" fromJunction="J14" toJunction="J12" end="720" vehsPerHour="27.22565463873312" departLane="free" arrivalSpeed="0.0"/>
  <flow id="JF129" begin="360" fromJunction="J14" toJunction="J13" end="720" vehsPerHour="66.75899994997414" departLane="free" arrivalSpeed="0.0"/>
  <flow id="JF130" begin="360" fromJunction="J14" toJunction="J15" end="720" vehsPerHour="6.362352120279127" departLane="free" arrivalSpeed="0.0"/>
  <flow id="JF131" begin="360" fromJunction="J14" toJunction="J2" end="720" vehsPerHour="18.675791527858586" departLane="free" arrivalSpeed="0.0"/>
  <flow id="JF132" begin="360" fromJunction="J14" toJunction="J3" end="720" vehsPerHour="13.486254872250296" departLane="free" arrivalSpeed="0.0"/>
  <flow id="JF133" begin="360" fromJunction="J14" toJunction="J6" end="720" vehsPerHour="60.61303510059067" departLane="free" arrivalSpeed="0.0"/>
  <flow id="JF134" begin="360" fromJunction="J14" toJunction="J7" end="720" vehsPerHour="6.503752492885332" departLane="free" arrivalSpeed="0.0"/>
  <flow id="JF135" begin="360" fromJunction="J14" toJunction="J9" end="720" vehsPerHour="26.793556083857663" departLane="free" arrivalSpeed="0.0"/>
  <flow id="JF136" begin="360" fromJunction="J15" toJunction="J0" end="720" vehsPerHour="11.49465945510105" departLane="free" arrivalSpeed="0.0"/>
  <flow id="JF137" begin="360" fromJunction="J15" toJunction="J12" end="720" vehsPerHour="21.379091422942235" departLane="free" arrivalSpeed="0.0"/>
  <flow id="JF138" begin="360" fromJunction="J15" toJunction="J13" end="720" vehsPerHour="11.553391803301361" departLane="free" arrivalSpeed="0.0"/>
  <flow id="JF139" begin="360" fromJunction="J15" toJunction="J14" end="720" vehsPerHour="45.950210843643895" departLane="free" arrivalSpeed="0.0"/>
  <flow id="JF140" begin="360" fromJunction="J15" toJunction="J16" end="720" vehsPerHour="0.36212173216764887" departLane="free" arrivalSpeed="0.0"/>
  <flow id="JF141" begin="360" fromJunction="J15" toJunction="J3" end="720" vehsPerHour="56.81837265142117" departLane="free" arrivalSpeed="0.0"/>
  <flow id="JF142" begin="360" fromJunction="J15" toJunction="J6" end="720" vehsPerHour="8.539343936230779" departLane="free" arrivalSpeed="0.0"/>
  <flow id="JF143" begin="360" fromJunction="J16" toJunction="J0" end="720" vehsPerHour="93.4798640106407" departLane="free" arrivalSpeed="0.0"/>
  <flow id="JF144" begin="360" fromJunction="J16" toJunction="J14" end="720" vehsPerHour="48.884219416407504" departLane="free" arrivalSpeed="0.0"/>
  <flow id="JF145" begin="360" fromJunction="J16" toJunction="J15" end="720" vehsPerHour="93.86163555892907" departLane="free" arrivalSpeed="0.0"/>
  <flow id="JF146" begin="360" fromJunction="J16" toJunction="J2" end="720" vehsPerHour="34.608536222448144" departLane="free" arrivalSpeed="0.0"/>
  <flow id="JF147" begin="360" fromJunction="J16" toJunction="J3" end="720" vehsPerHour="117.19426585169035" departLane="free" arrivalSpeed="0.0"/>
  <flow id="JF148" begin="360" fromJunction="J16" toJunction="J6" end="720" vehsPerHour="117.35761637973961" departLane="free" arrivalSpeed="0.0"/>
  <flow id="JF149" begin="360" fromJunction="J16" toJunction="J7" end="720" vehsPerHour="84.352652084474" departLane="free" arrivalSpeed="0.0"/>
  <flow id="JF150" begin="360" fromJunction="J16" toJunction="J8" end="720" vehsPerHour="129.25424189714894" departLane="free" arrivalSpeed="0.0"/>
  <flow id="JF151" begin="360" fromJunction="J16" toJunction="J9" end="720" vehsPerHour="125.1903515073545" departLane="free" arrivalSpeed="0.0"/>
  <flow id="JF152" begin="360" fromJunction="J2" toJunction="J13" end="720" vehsPerHour="69.54882720096944" departLane="free" arrivalSpeed="0.0"/>
  <flow id="JF153" begin="360" fromJunction="J2" toJunction="J14" end="720" vehsPerHour="77.83353362594336" departLane="free" arrivalSpeed="0.0"/>
  <flow id="JF154" begin="360" fromJunction="J2" toJunction="J16" end="720" vehsPerHour="67.42522467782248" departLane="free" arrivalSpeed="0.0"/>
  <flow id="JF155" begin="360" fromJunction="J2" toJunction="J6" end="720" vehsPerHour="30.517125500306637" departLane="free" arrivalSpeed="0.0"/>
  <flow id="JF156" begin="360" fromJunction="J2" toJunction="J7" end="720" vehsPerHour="43.94840119019769" departLane="free" arrivalSpeed="0.0"/>
  <flow id="JF157" begin="360" fromJunction="J2" toJunction="J8" end="720" vehsPerHour="101.65003393033028" departLane="free" arrivalSpeed="0.0"/>
  <flow id="JF158" begin="360" fromJunction="J2" toJunction="J9" end="720" vehsPerHour="42.46086981341889" departLane="free" arrivalSpeed="0.0"/>
  <flow id="JF159" begin="360" fromJunction="J3" toJunction="J0" end="720" vehsPerHour="26.471102774178785" departLane="free" arrivalSpeed="0.0"/>
  <flow id="JF160" begin="360" fromJunction="J3" toJunction="J13" end="720" vehsPerHour="6.134731314952842" departLane="free" arrivalSpeed="0.0"/>
  <flow id="JF161" begin="360" fromJunction="J3" toJunction="J14" end="720" vehsPerHour="40.37148803876723" departLane="free" arrivalSpeed="0.0"/>
  <flow id="JF162" begin="360" fromJunction="J3" toJunction="J7" end="720" vehsPerHour="55.66685386185" departLane="free" arrivalSpeed="0.0"/>
  <flow id="JF163" begin="360" fromJunction="J3" toJunction="J8" end="720" vehsPerHour="39.254965769149685" departLane="free" arrivalSpeed="0.0"/>
  <flow id="JF164" begin="360" fromJunction="J3" toJunction="J9" end="720" vehsPerHour="37.897983379136164" departLane="free" arrivalSpeed="0.0"/>
  <flow id="JF165" begin="360" fromJunction="J6" toJunction="J0" end="720" vehsPerHour="45.23299233529041" departLane="free" arrivalSpeed="0.0"/>
  <flow id="JF166" begin="360" fromJunction="J6" toJunction="J14" end="720" vehsPerHour="7.653242143151746" departLane="free" arrivalSpeed="0.0"/>
  <flow id="JF167" begin="360" fromJunction="J6" toJunction="J15" end="720" vehsPerHour="20.209553581718033" departLane="free" arrivalSpeed="0.0"/>
  <flow id="JF168" begin="360" fromJunction="J6" toJunction="J3" end="720" vehsPerHour="59.33781166597832" departLane="free" arrivalSpeed="0.0"/>
  <flow id="JF169" begin="360" fromJunction="J6" toJunction="J7" end="720" vehsPerHour="22.78701158313475" departLane="free" arrivalSpeed="0.0"/>
  <flow id="JF170" begin="360" fromJunction="J6" toJunction="J8" end="720" vehsPerHour="12.69634736472773" departLane="free" arrivalSpeed="0.0"/>
  <flow id="JF171" begin="360" fromJunction="J7" toJunction="J12" end="720" vehsPerHour="13.69658304858022" departLane="free" arrivalSpeed="0.0"/>
  <flow id="JF172" begin="360" fromJunction="J7" toJunction="J13" end="720" vehsPerHour="22.637228263180603" departLane="free" arrivalSpeed="0.0"/>
  <flow id="JF173" begin="360" fromJunction="J7" toJunction="J15" end="720" vehsPerHour="46.283121437033984" departLane="free" arrivalSpeed="0.0"/>
  <flow id="JF174" begin="360" fromJunction="J7" toJunction="J2" end="720" vehsPerHour="15.797514275386117" departLane="free" arrivalSpeed="0.0"/>
  <flow id="JF175" begin="360" fromJunction="J7" toJunction="J6" end="720" vehsPerHour="63.84016919329187" departLane="free" arrivalSpeed="0.0"/>
  <flow id="JF176" begin="360" fromJunction="J7" toJunction="J9" end="720" vehsPerHour="24.145476149481635" departLane="free" arrivalSpeed="0.0"/>
  <flow id="JF177" begin="360" fromJunction="J8" toJunction="J12" end="720" vehsPerHour="48.08442213340995" departLane="free" arrivalSpeed="0.0"/>
  <flow id="JF178" begin="360" fromJunction="J8" toJunction="J13" end="720" vehsPerHour="6.757326489528184" departLane="free" arrivalSpeed="0.0"/>
  <flow id="JF179" begin="360" fromJunction="J8" toJunction="J14" end="720" vehsPerHour="55.998196444998115" departLane="free" arrivalSpeed="0.0"/>
  <flow id="JF180" begin="360" fromJunction="J8" toJunction="J2" end="720" vehsPerHour="64.07187587677285" departLane="free" arrivalSpeed="0.0"/>
  <flow id="JF181" begin="360" fromJunction="J8" toJunction="J3" end="720" vehsPerHour="63.53750961617481" departLane="free" arrivalSpeed="0.0"/>
  <flow id="JF182" begin="360" fromJunction="J8" toJunction="J7" end="720" vehsPerHour="44.32213743126871" departLane="free" arrivalSpeed="0.0"/>
  <flow id="JF183" begin="360" fromJunction="J8" toJunction="J9" end="720" vehsPerHour="17.179531140618234" departLane="free" arrivalSpeed="0.0"/>
  <flow id="JF184" begin="360" fromJunction="J9" toJunction="J12" end="720" vehsPerHour="53.566470552262984" departLane="free" arrivalSpeed="0.0"/>
  <flow id="JF185" begin="360" fromJunction="J9" toJunction="J14" end="720" vehsPerHour="46.49039525587056" departLane="free" arrivalSpeed="0.0"/>
  <flow id="JF186" begin="360" fromJunction="J9" toJunction="J15" end="720" vehsPerHour="29.25918827680198" departLane="free" arrivalSpeed="0.0"/>
  <flow id="JF187" begin="360" fromJunction="J9" toJunction="J2" end="720" vehsPerHour="29.322525595693364" departLane="free" arrivalSpeed="0.0"/>
  <flow id="JF188" begin="360" fromJunction="J9" toJunction="J3" end="720" vehsPerHour="67.80352038026885" departLane="free" arrivalSpeed="0.0"/>
  <flow id="JF189" begin="360" fromJunction="J9" toJunction="J6" end="720" vehsPerHour="42.756431585306025" departLane="free" arrivalSpeed="0.0"/>
  <flow id="JF190" begin="720" fromJunction="J0" toJunction="J14" end="1080" vehsPerHour="15.627978440007256" departLane="free" arrivalSpeed="0.0"/>
  <flow id="JF191" begin="720" fromJunction="J0" toJunction="J15" end="1080" vehsPerHour="53.719726068633086" departLane="free" arrivalSpeed="0.0"/>
  <flow id="JF192" begin="720" fromJunction="J0" toJunction="J2" end="1080" vehsPerHour="66.8439627664313" departLane="free" arrivalSpeed="0.0"/>
  <flow id="JF193" begin="720" fromJunction="J0" toJunction="J3" end="1080" vehsPerHour="61.50672140877515" departLane="free" arrivalSpeed="0.0"/>
  <flow id="JF194" begin="720" fromJunction="J0" toJunction="J7" end="1080" vehsPerHour="41.67571073973732" departLane="free" arrivalSpeed="0.0"/>
  <flow id="JF195" begin="720" fromJunction="J0" toJunction="J8" end="1080" vehsPerHour="62.05170078200847" departLane="free" arrivalSpeed="0.0"/>
  <flow id="JF196" begin="720" fromJunction="J0" toJunction="J9" end="1080" vehsPerHour="45.9127422725019" departLane="free" arrivalSpeed="0.0"/>
  <flow id="JF197" begin="720" fromJunction="J12" toJunction="J0" end="1080" vehsPerHour="58.53146962126623" departLane="free" arrivalSpeed="0.0"/>
  <flow id="JF198" begin="720" fromJunction="J12" toJunction="J13" end="1080" vehsPerHour="7.898948366239829" departLane="free" arrivalSpeed="0.0"/>
  <flow id="JF199" begin="720" fromJunction="J12" toJunction="J14" end="1080" vehsPerHour="55.97072447496709" departLane="free" arrivalSpeed="0.0"/>
  <flow id="JF200" begin="720" fromJunction="J12" toJunction="J15" end="1080" vehsPerHour="24.52967192231415" departLane="free" arrivalSpeed="0.0"/>
  <flow id="JF201" begin="720" fromJunction="J12" toJunction="J16" end="1080" vehsPerHour="42.753145351528495" departLane="free" arrivalSpeed="0.0"/>
  <flow id="JF202" begin="720" fromJunction="J12" toJunction="J2" end="1080" vehsPerHour="6.917178289135013" departLane="free" arrivalSpeed="0.0"/>
  <flow id="JF203" begin="720" fromJunction="J12" toJunction="J3" end="1080" vehsPerHour="1.5099889797556092" departLane="free" arrivalSpeed="0.0"/>