<?xml version="1.0" encoding="UTF-8"?>
<routes xmlns:xsi="http://www.w3.org/2001/XMLSchema-instance" xsi:noNamespaceSchemaLocation="http://sumo.dlr.de/xsd/routes_file.xsd">
  <flow id="JF3515" begin="0" fromJunction="J0" toJunction="J4" end="360" vehsPerHour="58.55891754667746" departLane="free"/>
  <flow id="JF3516" begin="0" fromJunction="J0" toJunction="J5" end="360" vehsPerHour="68.50833795160354" departLane="free"/>
  <flow id="JF3517" begin="0" fromJunction="J0" toJunction="J6" end="360" vehsPerHour="114.1441959894945" departLane="free"/>
  <flow id="JF3518" begin="0" fromJunction="J0" toJunction="J7" end="360" vehsPerHour="66.58651001572362" departLane="free"/>
  <flow id="JF3519" begin="0" fromJunction="J3" toJunction="J4" end="360" vehsPerHour="64.78709327857882" departLane="free"/>
  <flow id="JF3520" begin="0" fromJunction="J3" toJunction="J5" end="360" vehsPerHour="8.21123086230685" departLane="free"/>
  <flow id="JF3521" begin="0" fromJunction="J3" toJunction="J6" end="360" vehsPerHour="101.3195571441324" departLane="free"/>
  <flow id="JF3522" begin="0" fromJunction="J3" toJunction="J7" end="360" vehsPerHour="69.4481577688538" departLane="free"/>
  <flow id="JF3523" begin="0" fromJunction="J4" toJunction="J0" end="360" vehsPerHour="0.47017727938999576" departLane="free"/>
  <flow id="JF3524" begin="0" fromJunction="J4" toJunction="J3" end="360" vehsPerHour="67.17142871210898" departLane="free"/>
  <flow id="JF3525" begin="0" fromJunction="J4" toJunction="J6" end="360" vehsPerHour="59.22769253235575" departLane="free"/>
  <flow id="JF3526" begin="0" fromJunction="J4" toJunction="J7" end="360" vehsPerHour="37.279730014846095" departLane="free"/>
  <flow id="JF3527" begin="0" fromJunction="J5" toJunction="J0" end="360" vehsPerHour="36.94687362111832" departLane="free"/>
  <flow id="JF3528" begin="0" fromJunction="J5" toJunction="J3" end="360" vehsPerHour="57.51478510685163" departLane="free"/>
  <flow id="JF3529" begin="0" fromJunction="J5" toJunction="J4" end="360" vehsPerHour="17.007808465844644" departLane="free"/>
  <flow id="JF3530" begin="0" fromJunction="J5" toJunction="J6" end="360" vehsPerHour="7.2440559062446335" departLane="free"/>
  <flow id="JF3531" begin="0" fromJunction="J5" toJunction="J7" end="360" vehsPerHour="10.33630974874815" departLane="free"/>
  <flow id="JF3532" begin="0" fromJunction="J6" toJunction="J0" end="360" vehsPerHour="5.700122488331465" departLane="free"/>
  <flow id="JF3533" begin="0" fromJunction="J6" toJunction="J4" end="360" vehsPerHour="40.68044963121025" departLane="free"/>
  <flow id="JF3534" begin="0" fromJunction="J6" toJunction="J5" end="360" vehsPerHour="2.918750210675079" departLane="free"/>
  <flow id="JF3535" begin="0" fromJunction="J6" toJunction="J7" end="360" vehsPerHour="56.89501476227606" departLane="free"/>
  <flow id="JF3536" begin="0" fromJunction="J7" toJunction="J3" end="360" vehsPerHour="24.822011016237568" departLane="free"/>
  <flow id="JF3537" begin="0" fromJunction="J7" toJunction="J4" end="360" vehsPerHour="52.65355640550002" departLane="free"/>
  <flow id="JF3538" begin="360" fromJunction="J0" toJunction="J3" end="720" vehsPerHour="127.39831225475105" departLane="free"/>
  <flow id="JF3539" begin="360" fromJunction="J0" toJunction="J6" end="720" vehsPerHour="47.89098365634691" departLane="free"/>
  <flow id="JF3540" begin="360" fromJunction="J0" toJunction="J7" end="720" vehsPerHour="96.94750111512504" departLane="free"/>
  <flow id="JF3541" begin="360" fromJunction="J3" toJunction="J4" end="720" vehsPerHour="56.74879785102391" departLane="free"/>
  <flow id="JF3542" begin="360" fromJunction="J3" toJunction="J5" end="720" vehsPerHour="111.22780919960935" departLane="free"/>
  <flow id="JF3543" begin="360" fromJunction="J3" toJunction="J6" end="720" vehsPerHour="6.574500517055517" departLane="free"/>
  <flow id="JF3544" begin="360" fromJunction="J3" toJunction="J7" end="720" vehsPerHour="20.98190527533067" departLane="free"/>
  <flow id="JF3545" begin="360" fromJunction="J4" toJunction="J0" end="720" vehsPerHour="5.444598219745792" departLane="free"/>
  <flow id="JF3546" begin="360" fromJunction="J4" toJunction="J3" end="720" vehsPerHour="38.435699705505726" departLane="free"/>
  <flow id="JF3547" begin="360" fromJunction="J4" toJunction="J5" end="720" vehsPerHour="38.59717381147529" departLane="free"/>
  <flow id="JF3548" begin="360" fromJunction="J4" toJunction="J6" end="720" vehsPerHour="50.896862507827336" departLane="free"/>
  <flow id="JF3549" begin="360" fromJunction="J4" toJunction="J7" end="720" vehsPerHour="20.59063457972143" departLane="free"/>
  <flow id="JF3550" begin="360" fromJunction="J5" toJunction="J0" end="720" vehsPerHour="23.870975633854478" departLane="free"/>
  <flow id="JF3551" begin="360" fromJunction="J5" toJunction="J4" end="720" vehsPerHour="12.494874143691849" departLane="free"/>
  <flow id="JF3552" begin="360" fromJunction="J5" toJunction="J6" end="720" vehsPerHour="25.748175093160892" departLane="free"/>
  <flow id="JF3553" begin="360" fromJunction="J5" toJunction="J7" end="720" vehsPerHour="67.5830890768419" departLane="free"/>
  <flow id="JF3554" begin="360" fromJunction="J6" toJunction="J4" end="720" vehsPerHour="13.291792560570629" departLane="free"/>
  <flow id="JF3555" begin="360" fromJunction="J6" toJunction="J5" end="720" vehsPerHour="2.1149533304275727" departLane="free"/>
  <flow id="JF3556" begin="360" fromJunction="J6" toJunction="J7" end="720" vehsPerHour="0.9405164857703774" departLane="free"/>
  <flow id="JF3557" begin="360" fromJunction="J7" toJunction="J3" end="720" vehsPerHour="54.22017635690777" departLane="free"/>
  <flow id="JF3558" begin="360" fromJunction="J7" toJunction="J4" end="720" vehsPerHour="65.79381411806371" departLane="free"/>
  <flow id="JF3559" begin="360" fromJunction="J7" toJunction="J5" end="720" vehsPerHour="39.86792265199884" departLane="free"/>
  <flow id="JF3560" begin="720" fromJunction="J0" toJunction="J3" end="1080" vehsPerHour="124.28917338865192" departLane="free"/>
  <flow id="JF3561" begin="720" fromJunction="J0" toJunction="J4" end="1080" vehsPerHour="82.83928612332768" departLane="free"/>
  <flow id="JF3562" begin="720" fromJunction="J0" toJunction="J5" end="1080" vehsPerHour="127.91736257667478" departLane="free"/>
  <flow id="JF3563" begin="720" fromJunction="J0" toJunction="J6" end="1080" vehsPerHour="10.232504911996125" departLane="free"/>
  <flow id="JF3564" begin="720" fromJunction="J0" toJunction="J7" end="1080" vehsPerHour="101.07587855276532" departLane="free"/>
  <flow id="JF3565" begin="720" fromJunction="J3" toJunction="J0" end="1080" vehsPerHour="66.95121165777705" departLane="free"/>
  <flow id="JF3566" begin="720" fromJunction="J3" toJunction="J4" end="1080" vehsPerHour="117.32406162511064" departLane="free"/>
  <flow id="JF3567" begin="720" fromJunction="J3" toJunction="J5" end="1080" vehsPerHour="79.20564276359427" departLane="free"/>
  <flow id="JF3568" begin="720" fromJunction="J3" toJunction="J6" end="1080" vehsPerHour="104.94699945419164" departLane="free"/>
  <flow id="JF3569" begin="720" fromJunction="J3" toJunction="J7" end="1080" vehsPerHour="31.18459705889625" departLane="free"/>
  <flow id="JF3570" begin="720" fromJunction="J4" toJunction="J0" end="1080" vehsPerHour="30.7264153719777" departLane="free"/>
  <flow id="JF3571" begin="720" fromJunction="J4" toJunction="J7" end="1080" vehsPerHour="4.435747156526686" departLane="free"/>
  <flow id="JF3572" begin="720" fromJunction="J5" toJunction="J0" end="1080" vehsPerHour="51.53701327557085" departLane="free"/>
  <flow id="JF3573" begin="720" fromJunction="J5" toJunction="J3" end="1080" vehsPerHour="8.359392115099084" departLane="free"/>
  <flow id="JF3574" begin="720" fromJunction="J5" toJunction="J4" end="1080" vehsPerHour="49.40302057021918" departLane="free"/>
  <flow id="JF3575" begin="720" fromJunction="J5" toJunction="J6" end="1080" vehsPerHour="3.1347965010215377" departLane="free"/>
  <flow id="JF3576" begin="720" fromJunction="J5" toJunction="J7" end="1080" vehsPerHour="16.757006921581485" departLane="free"/>
  <flow id="JF3577" begin="720" fromJunction="J6" toJunction="J0" end="1080" vehsPerHour="41.803149116640064" departLane="free"/>
  <flow id="JF3578" begin="720" fromJunction="J6" toJunction="J3" end="1080" vehsPerHour="67.71204304584894" departLane="free"/>
  <flow id="JF3579" begin="720" fromJunction="J6" toJunction="J4" end="1080" vehsPerHour="16.441938853599993" departLane="free"/>
  <flow id="JF3580" begin="720" fromJunction="J6" toJunction="J5" end="1080" vehsPerHour="23.02787066835387" departLane="free"/>
  <flow id="JF3581" begin="720" fromJunction="J7" toJunction="J0" end="1080" vehsPerHour="62.426462692446606" departLane="free"/>
  <flow id="JF3582" begin="720" fromJunction="J7" toJunction="J3" end="1080" vehsPerHour="49.7472334013748" departLane="free"/>
  <flow id="JF3583" begin="720" fromJunction="J7" toJunction="J4" end="1080" vehsPerHour="53.72122239012109" departLane="free"/>
  <flow id="JF3584" begin="720" fromJunction="J7" toJunction="J5" end="1080" vehsPerHour="44.92166205101039" departLane="free"/>
  <flow id="JF3585" begin="720" fromJunction="J7" toJunction="J6" end="1080" vehsPerHour="9.211887527636975" departLane="free"/>
  <flow id="JF3586" begin="1080" fromJunction="J0" toJunction="J4" end="1440" vehsPerHour="21.737453945094376" departLane="free"/>
  <flow id="JF3587" begin="1080" fromJunction="J0" toJunction="J5" end="1440" vehsPerHour="122.57732998762069" departLane="free"/>
  <flow id="JF3588" begin="1080" fromJunction="J0" toJunction="J6" end="1440" vehsPerHour="9.618398609858986" departLane="free"/>
  <flow id="JF3589" begin="1080" fromJunction="J0" toJunction="J7" end="1440" vehsPerHour="100.55185234384403" departLane="free"/>
  <flow id="JF3590" begin="1080" fromJunction="J3" toJunction="J0" end="1440" vehsPerHour="58.46441284803865" departLane="free"/>
  <flow id="JF3591" begin="1080" fromJunction="J3" toJunction="J4" end="1440" vehsPerHour="95.6159990803839" departLane="free"/>
  <flow id="JF3592" begin="1080" fromJunction="J3" toJunction="J5" end="1440" vehsPerHour="18.023289382758264" departLane="free"/>
  <flow id="JF3593" begin="1080" fromJunction="J3" toJunction="J6" end="1440" vehsPerHour="97.35160636698612" departLane="free"/>
  <flow id="JF3594" begin="1080" fromJunction="J4" toJunction="J0" end="1440" vehsPerHour="28.678057031201785" departLane="free"/>
  <flow id="JF3595" begin="1080" fromJunction="J4" toJunction="J5" end="1440" vehsPerHour="44.019419879812446" departLane="free"/>
  <flow id="JF3596" begin="1080" fromJunction="J4" toJunction="J7" end="1440" vehsPerHour="56.6605782609158" departLane="free"/>
  <flow id="JF3597" begin="1080" fromJunction="J5" toJunction="J0" end="1440" vehsPerHour="9.960318983510952" departLane="free"/>
  <flow id="JF3598" begin="1080" fromJunction="J5" toJunction="J3" end="1440" vehsPerHour="56.840502105873384" departLane="free"/>
  <flow id="JF3599" begin="1080" fromJunction="J5" toJunction="J4" end="1440" vehsPerHour="25.902495189782886" departLane="free"/>
  <flow id="JF3600" begin="1080" fromJunction="J5" toJunction="J6" end="1440" vehsPerHour="37.55592913866218" departLane="free"/>
  <flow id="JF3601" begin="1080" fromJunction="J5" toJunction="J7" end="1440" vehsPerHour="16.46402030684366" departLane="free"/>
  <flow id="JF3602" begin="1080" fromJunction="J6" toJunction="J3" end="1440" vehsPerHour="21.529638655375244" departLane="free"/>
  <flow id="JF3603" begin="1080" fromJunction="J6" toJunction="J4" end="1440" vehsPerHour="8.65634292229705" departLane="free"/>
  <flow id="JF3604" begin="1080" fromJunction="J6" toJunction="J5" end="1440" vehsPerHour="20.70534910165686" departLane="free"/>
  <flow id="JF3605" begin="1080" fromJunction="J7" toJunction="J0" end="1440" vehsPerHour="67.05388721392677" departLane="free"/>
  <flow id="JF3606" begin="1080" fromJunction="J7" toJunction="J3" end="1440" vehsPerHour="2.155034231232525" departLane="free"/>
  <flow id="JF3607" begin="1080" fromJunction="J7" toJunction="J4" end="1440" vehsPerHour="9.926125304621607" departLane="free"/>
  <flow id="JF3608" begin="1080" fromJunction="J7" toJunction="J5" end="1440" vehsPerHour="5.7905651239123355" departLane="free"/>
  <flow id="JF3609" begin="1440" fromJunction="J0" toJunction="J4" end="1800" vehsPerHour="98.87434875134382" departLane="free"/>
  <flow id="JF3610" begin="1440" fromJunction="J0" toJunction="J5" end="1800" vehsPerHour="71.2910516536504" departLane="free"/>
  <flow id="JF3611" begin="1440" fromJunction="J0" toJunction="J6" end="1800" vehsPerHour="40.3714569135669" departLane="free"/>
  <flow id="JF3612" begin="1440" fromJunction="J0" toJunction="J7" end="1800" vehsPerHour="86.60197010921526" departLane="free"/>
  <flow id="JF3613" begin="1440" fromJunction="J3" toJunction="J4" end="1800" vehsPerHour="92.41771062490648" departLane="free"/>
  <flow id="JF3614" begin="1440" fromJunction="J3" toJunction="J6" end="1800" vehsPerHour="66.05082335946668" departLane="free"/>
  <flow id="JF3615" begin="1440" fromJunction="J3" toJunction="J7" end="1800" vehsPerHour="31.27992939709339" departLane="free"/>
  <flow id="JF3616" begin="1440" fromJunction="J4" toJunction="J0" end="1800" vehsPerHour="41.958507953652465" departLane="free"/>
  <flow id="JF3617" begin="1440" fromJunction="J4" toJunction="J3" end="1800" vehsPerHour="20.77901954885035" departLane="free"/>
  <flow id="JF3618" begin="1440" fromJunction="J4" toJunction="J5" end="1800" vehsPerHour="56.98515621103238" departLane="free"/>
  <flow id="JF3619" begin="1440" fromJunction="J4" toJunction="J6" end="1800" vehsPerHour="13.164502766249546" departLane="free"/>
  <flow id="JF3620" begin="1440" fromJunction="J4" toJunction="J7" end="1800" vehsPerHour="19.937172741569253" departLane="free"/>
  <flow id="JF3621" begin="1440" fromJunction="J5" toJunction="J0" end="1800" vehsPerHour="39.159653249106704" departLane="free"/>
  <flow id="JF3622" begin="1440" fromJunction="J5" toJunction="J7" end="1800" vehsPerHour="3.109967494851184" departLane="free"/>
  <flow id="JF3623" begin="1440" fromJunction="J6" toJunction="J0" end="1800" vehsPerHour="13.902868431701616" departLane="free"/>
  <flow id="JF3624" begin="1440" fromJunction="J6" toJunction="J4" end="1800" vehsPerHour="40.69178415504321" departLane="free"/>
  <flow id="JF3625" begin="1440" fromJunction="J6" toJunction="J5" end="1800" vehsPerHour="56.51678447984888" departLane="free"/>
  <flow id="JF3626" begin="1440" fromJunction="J7" toJunction="J0" end="1800" vehsPerHour="24.21209375545442" departLane="free"/>
  <flow id="JF3627" begin="1440" fromJunction="J7" toJunction="J3" end="1800" vehsPerHour="44.232306723839066" departLane="free"/>
  <flow id="JF3628" begin="1440" fromJunction="J7" toJunction="J4" end="1800" vehsPerHour="14.40950344526833" departLane="free"/>
  <flow id="JF3629" begin="1440" fromJunction="J7" toJunction="J6" end="1800" vehsPerHour="25.91561992006817" departLane="free"/>
  <flow id="JF3630" begin="1800" fromJunction="J0" toJunction="J3" end="2160" vehsPerHour="9.340192810227663" departLane="free"/>
  <flow id="JF3631" begin="1800" fromJunction="J0" toJunction="J4" end="2160" vehsPerHour="127.93875380126424" departLane="free"/>
  <flow id="JF3632" begin="1800" fromJunction="J0" toJunction="J5" end="2160" vehsPerHour="40.91230719626598" departLane="free"/>
  <flow id="JF3633" begin="1800" fromJunction="J0" toJunction="J6" end="2160" vehsPerHour="115.87218990072842" departLane="free"/>
  <flow id="JF3634" begin="1800" fromJunction="J3" toJunction="J0" end="2160" vehsPerHour="133.88703370235444" departLane="free"/>
  <flow id="JF3635" begin="1800" fromJunction="J3" toJunction="J4" end="2160" vehsPerHour="1.919227273934992" departLane="free"/>
  <flow id="JF3636" begin="1800" fromJunction="J3" toJunction="J6" end="2160" vehsPerHour="14.423169661229654" departLane="free"/>
  <flow id="JF3637" begin="1800" fromJunction="J3" toJunction="J7" end="2160" vehsPerHour="36.15389273972171" departLane="free"/>
  <flow id="JF3638" begin="1800" fromJunction="J4" toJunction="J3" end="2160" vehsPerHour="2.661500951307034" departLane="free"/>
  <flow id="JF3639" begin="1800" fromJunction="J4" toJunction="J5" end="2160" vehsPerHour="21.62859051799788" departLane="free"/>
  <flow id="JF3640" begin="1800" fromJunction="J4" toJunction="J7" end="2160" vehsPerHour="21.729449343405843" departLane="free"/>
  <flow id="JF3641" begin="1800" fromJunction="J5" toJunction="J0" end="2160" vehsPerHour="14.652542113684857" departLane="free"/>
  <flow id="JF3642" begin="1800" fromJunction="J6" toJunction="J0" end="2160" vehsPerHour="8.929649919971364" departLane="free"/>
  <flow id="JF3643" begin="1800" fromJunction="J6" toJunction="J3" end="2160" vehsPerHour="59.47892431574588" departLane="free"/>
  <flow id="JF3644" begin="1800" fromJunction="J6" toJunction="J4" end="2160" vehsPerHour="22.387266164171354" departLane="free"/>
  <flow id="JF3645" begin="1800" fromJunction="J6" toJunction="J5" end="2160" vehsPerHour="20.667448904597638" departLane="free"/>
  <flow id="JF3646" begin="1800" fromJunction="J7" toJunction="J0" end="2160" vehsPerHour="43.09996970253367" departLane="free"/>
  <flow id="JF3647" begin="1800" fromJunction="J7" toJunction="J4" end="2160" vehsPerHour="58.840877503390324" departLane="free"/>
  <flow id="JF3648" begin="1800" fromJunction="J7" toJunction="J5" end="2160" vehsPerHour="29.714001538410557" departLane="free"/>
  <flow id="JF3649" begin="1800" fromJunction="J7" toJunction="J6" end="2160" vehsPerHour="10.84868957620042" departLane="free"/>
  <flow id="JF3650" begin="2160" fromJunction="J0" toJunction="J3" end="2520" vehsPerHour="73.65883969878047" departLane="free"/>
  <flow id="JF3651" begin="2160" fromJunction="J0" toJunction="J6" end="2520" vehsPerHour="109.99686475315053" departLane="free"/>
  <flow id="JF3652" begin="2160" fromJunction="J3" toJunction="J0" end="2520" vehsPerHour="113.21330366628617" departLane="free"/>
  <flow id="JF3653" begin="2160" fromJunction="J3" toJunction="J5" end="2520" vehsPerHour="133.1927358744247" departLane="free"/>
  <flow id="JF3654" begin="2160" fromJunction="J3" toJunction="J7" end="2520" vehsPerHour="21.271378378240414" departLane="free"/>
  <flow id="JF3655" begin="2160" fromJunction="J4" toJunction="J5" end="2520" vehsPerHour="37.54596480105205" departLane="free"/>
  <flow id="JF3656" begin="2160" fromJunction="J4" toJunction="J6" end="2520" vehsPerHour="8.049102972389335" departLane="free"/>
  <flow id="JF3657" begin="2160" fromJunction="J4" toJunction="J7" end="2520" vehsPerHour="17.9026708211312" departLane="free"/>
  <flow id="JF3658" begin="2160" fromJunction="J5" toJunction="J0" end="2520" vehsPerHour="5.383255145962061" departLane="free"/>
  <flow id="JF3659" begin="2160" fromJunction="J5" toJunction="J6" end="2520" vehsPerHour="7.341842615492577" departLane="free"/>
  <flow id="JF3660" begin="2160" fromJunction="J5" toJunction="J7" end="2520" vehsPerHour="22.939176435079382" departLane="free"/>
  <flow id="JF3661" begin="2160" fromJunction="J6" toJunction="J0" end="2520" vehsPerHour="39.973714695893186" departLane="free"/>
  <flow id="JF3662" begin="2160" fromJunction="J6" toJunction="J3" end="2520" vehsPerHour="14.937385335447722" departLane="free"/>
  <flow id="JF3663" begin="2160" fromJunction="J6" toJunction="J7" end="2520" vehsPerHour="17.263618776087466" departLane="free"/>
  <flow id="JF3664" begin="2160" fromJunction="J7" toJunction="J3" end="2520" vehsPerHour="58.71429270395798" departLane="free"/>
  <flow id="JF3665" begin="2520" fromJunction="J0" toJunction="J3" end="2880" vehsPerHour="97.35336167112378" departLane="free"/>
  <flow id="JF3666" begin="2520" fromJunction="J0" toJunction="J6" end="2880" vehsPerHour="111.21108981806047" departLane="free"/>
  <flow id="JF3667" begin="2520" fromJunction="J0" toJunction="J7" end="2880" vehsPerHour="53.16198440421975" departLane="free"/>
  <flow id="JF3668" begin="2520" fromJunction="J3" toJunction="J4" end="2880" vehsPerHour="74.81286001939311" departLane="free"/>
  <flow id="JF3669" begin="2520" fromJunction="J3" toJunction="J5" end="2880" vehsPerHour="68.25616685009997" departLane="free"/>
  <flow id="JF3670" begin="2520" fromJunction="J3" toJunction="J6" end="2880" vehsPerHour="109.59961784443396" departLane="free"/>
  <flow id="JF3671" begin="2520" fromJunction="J4" toJunction="J0" end="2880" vehsPerHour="3.1273283491986956" departLane="free"/>
  <flow id="JF3672" begin="2520" fromJunction="J4" toJunction="J3" end="2880" vehsPerHour="62.722105493764516" departLane="free"/>
  <flow id="JF3673" begin="2520" fromJunction="J4" toJunction="J5" end="2880" vehsPerHour="26.546272205104966" departLane="free"/>
  <flow id="JF3674" begin="2520" fromJunction="J4" toJunction="J7" end="2880" vehsPerHour="64.88450080953957" departLane="free"/>
  <flow id="JF3675" begin="2520" fromJunction="J5" toJunction="J0" end="2880" vehsPerHour="51.889088581897276" departLane="free"/>
  <flow id="JF3676" begin="2520" fromJunction="J5" toJunction="J4" end="2880" vehsPerHour="43.33417045206523" departLane="free"/>
  <flow id="JF3677" begin="2520" fromJunction="J6" toJunction="J3" end="2880" vehsPerHour="65.96771182895803" departLane="free"/>
  <flow id="JF3678" begin="2520" fromJunction="J6" toJunction="J4" end="2880" vehsPerHour="48.66071824008273" departLane="free"/>
  <flow id="JF3679" begin="2520" fromJunction="J6" toJunction="J5" end="2880" vehsPerHour="46.214129524163425" departLane="free"/>
  <flow id="JF3680" begin="2520" fromJunction="J6" toJunction="J7" end="2880" vehsPerHour="35.01080025610669" departLane="free"/>
  <flow id="JF3681" begin="2520" fromJunction="J7" toJunction="J0" end="2880" vehsPerHour="21.260467427940856" departLane="free"/>
  <flow id="JF3682" begin="2520" fromJunction="J7" toJunction="J3" end="2880" vehsPerHour="17.702440320143825" departLane="free"/>
  <flow id="JF3683" begin="2520" fromJunction="J7" toJunction="J5" end="2880" vehsPerHour="8.733609393049345" departLane="free"/>
  <flow id="JF3684" begin="2520" fromJunction="J7" toJunction="J6" end="2880" vehsPerHour="42.252195416092256" departLane="free"/>
  <flow id="JF3685" begin="2880" fromJunction="J0" toJunction="J4" end="3240" vehsPerHour="49.5737568040568" departLane="free"/>
  <flow id="JF3686" begin="2880" fromJunction="J0" toJunction="J5" end="3240" vehsPerHour="79.64154794950697" departLane="free"/>
  <flow id="JF3687" begin="2880" fromJunction="J0" toJunction="J7" end="3240" vehsPerHour="1.9282865697142135" departLane="free"/>
  <flow id="JF3688" begin="2880" fromJunction="J3" toJunction="J0" end="3240" vehsPerHour="64.9769023187687" departLane="free"/>
  <flow id="JF3689" begin="2880" fromJunction="J3" toJunction="J4" end="3240" vehsPerHour="121.94162757515946" departLane="free"/>
  <flow id="JF3690" begin="2880" fromJunction="J3" toJunction="J5" end="3240" vehsPerHour="35.05904693505591" departLane="free"/>
  <flow id="JF3691" begin="2880" fromJunction="J3" toJunction="J6" end="3240" vehsPerHour="79.58138051831148" departLane="free"/>
  <flow id="JF3692" begin="2880" fromJunction="J3" toJunction="J7" end="3240" vehsPerHour="49.22981387633477" departLane="free"/>
  <flow id="JF3693" begin="2880" fromJunction="J4" toJunction="J0" end="3240" vehsPerHour="20.38624580261955" departLane="free"/>
  <flow id="JF3694" begin="2880" fromJunction="J4" toJunction="J3" end="3240" vehsPerHour="15.949318584407242" departLane="free"/>
  <flow id="JF3695" begin="2880" fromJunction="J4" toJunction="J5" end="3240" vehsPerHour="33.46355364489671" departLane="free"/>
  <flow id="JF3696" begin="2880" fromJunction="J4" toJunction="J7" end="3240" vehsPerHour="36.821148437929544" departLane="free"/>
  <flow id="JF3697" begin="2880" fromJunction="J5" toJunction="J0" end="3240" vehsPerHour="27.87504909688088" departLane="free"/>
  <flow id="JF3698" begin="2880" fromJunction="J5" toJunction="J6" end="3240" vehsPerHour="19.313147969095112" departLane="free"/>
  <flow id="JF3699" begin="2880" fromJunction="J6" toJunction="J3" end="3240" vehsPerHour="63.919996919179155" departLane="free"/>
  <flow id="JF3700" begin="2880" fromJunction="J7" toJunction="J0" end="3240" vehsPerHour="11.803598526805759" departLane="free"/>
  <flow id="JF3701" begin="2880" fromJunction="J7" toJunction="J4" end="3240" vehsPerHour="0.7710203476228662" departLane="free"/>
  <flow id="JF3702" begin="2880" fromJunction="J7" toJunction="J5" end="3240" vehsPerHour="12.688010846056722" departLane="free"/>
  <flow id="JF3703" begin="3240" fromJunction="J0" toJunction="J4" end="3600" vehsPerHour="8.991759634551237" departLane="free"/>
  <flow id="JF3704" begin="3240" fromJunction="J0" toJunction="J6" end="3600" vehsPerHour="40.971654168842406" departLane="free"/>
  <flow id="JF3705" begin="3240" fromJunction="J0" toJunction="J7" end="3600" vehsPerHour="66.13708753527654" departLane="free"/>
  <flow id="JF3706" begin="3240" fromJunction="J3" toJunction="J4" end="3600" vehsPerHour="82.39433601476115" departLane="free"/>
  <flow id="JF3707" begin="3240" fromJunction="J3" toJunction="J5" end="3600" vehsPerHour="71.58613960495134" departLane="free"/>
  <flow id="JF3708" begin="3240" fromJunction="J3" toJunction="J6" end="3600" vehsPerHour="56.884785111193615" departLane="free"/>
  <flow id="JF3709" begin="3240" fromJunction="J3" toJunction="J7" end="3600" vehsPerHour="2.701452247532327" departLane="free"/>
  <flow id="JF3710" begin="3240" fromJunction="J4" toJunction="J0" end="3600" vehsPerHour="9.134383575402595" departLane="free"/>
  <flow id="JF3711" begin="3240" fromJunction="J4" toJunction="J3" end="3600" vehsPerHour="38.779849177506115" departLane="free"/>
  <flow id="JF3712" begin="3240" fromJunction="J4" toJunction="J5" end="3600" vehsPerHour="35.06312298716553" departLane="free"/>
  <flow id="JF3713" begin="3240" fromJunction="J4" toJunction="J6" end="3600" vehsPerHour="35.68471829175223" departLane="free"/>
  <flow id="JF3714" begin="3240" fromJunction="J4" toJunction="J7" end="3600" vehsPerHour="30.09661417481566" departLane="free"/>
  <flow id="JF3715" begin="3240" fromJunction="J5" toJunction="J0" end="3600" vehsPerHour="21.920535061562646" departLane="free"/>
  <flow id="JF3716" begin="3240" fromJunction="J5" toJunction="J3" end="3600" vehsPerHour="53.31232628520885" departLane="free"/>
  <flow id="JF3717" begin="3240" fromJunction="J5" toJunction="J4" end="3600" vehsPerHour="22.15944194474217" departLane="free"/>
  <flow id="JF3718" begin="3240" fromJunction="J5" toJunction="J6" end="3600" vehsPerHour="48.369025597303256" departLane="free"/>
  <flow id="JF3719" begin="3240" fromJunction="J5" toJunction="J7" end="3600" vehsPerHour="50.846911503069016" departLane="free"/>
  <flow id="JF3720" begin="3240" fromJunction="J6" toJunction="J0" end="3600" vehsPerHour="57.65804775590938" departLane="free"/>
  <flow id="JF3721" begin="3240" fromJunction="J6" toJunction="J3" end="3600" vehsPerHour="29.013681384541062" departLane="free"/>
  <flow id="JF3722" begin="3240" fromJunction="J6" toJunction="J5" end="3600" vehsPerHour="54.223814550262915" departLane="free"/>
  <flow id="JF3723" begin="3240" fromJunction="J6" toJunction="J7" end="3600" vehsPerHour="12.179852125453747" departLane="free"/>
  <flow id="JF3724" begin="3240" fromJunction="J7" toJunction="J0" end="3600" vehsPerHour="8.277287983594071" departLane="free"/>
  <flow id="JF3725" begin="3240" fromJunction="J7" toJunction="J3" end="3600" vehsPerHour="44.64019269260081" departLane="free"/>
  <flow id="JF3726" begin="3240" fromJunction="J7" toJunction="J5" end="3600" vehsPerHour="29.685436569102386" departLane="free"/>
  <flow id="JF3727" begin="3240" fromJunction="J7" toJunction="J6" end="3600" vehsPerHour="2.2587762645774783" departLane="free"/>
  <flow id="JF3728" begin="3600" fromJunction="J0" toJunction="J5" end="3960" vehsPerHour="71.33783391812639" departLane="free"/>
  <flow id="JF3729" begin="3600" fromJunction="J0" toJunction="J7" end="3960" vehsPerHour="22.986271134181823" departLane="free"/>
  <flow id="JF3730" begin="3600" fromJunction="J3" toJunction="J0" end="3960" vehsPerHour="5.72248682570527" departLane="free"/>
  <flow id="JF3731" begin="3600" fromJunction="J3" toJunction="J4" end="3960" vehsPerHour="101.77315139074827" departLane="free"/>
  <flow id="JF3732" begin="3600" fromJunction="J3" toJunction="J5" end="3960" vehsPerHour="56.586105258076785" departLane="free"/>
  <flow id="JF3733" begin="3600" fromJunction="J3" toJunction="J6" end="3960" vehsPerHour="25.6239650912671" departLane="free"/>
  <flow id="JF3734" begin="3600" fromJunction="J4" toJunction="J0" end="3960" vehsPerHour="9.026517725441805" departLane="free"/>
  <flow id="JF3735" begin="3600" fromJunction="J4" toJunction="J6" end="3960" vehsPerHour="61.12831463835968" departLane="free"/>
  <flow id="JF3736" begin="3600" fromJunction="J4" toJunction="J7" end="3960" vehsPerHour="24.824253352162305" departLane="free"/>
  <flow id="JF3737" begin="3600" fromJunction="J5" toJunction="J0" end="3960" vehsPerHour="2.0794519666227025" departLane="free"/>
  <flow id="JF3738" begin="3600" fromJunction="J5" toJunction="J4" end="3960" vehsPerHour="36.37789019048379" departLane="free"/>
  <flow id="JF3739" begin="3600" fromJunction="J5" toJunction="J6" end="3960" vehsPerHour="13.941410519973077" departLane="free"/>
  <flow id="JF3740" begin="3600" fromJunction="J5" toJunction="J7" end="3960" vehsPerHour="23.239452318609715" departLane="free"/>
  <flow id="JF3741" begin="3600" fromJunction="J6" toJunction="J0" end="3960" vehsPerHour="51.56657958808756" departLane="free"/>
  <flow id="JF3742" begin="3600" fromJunction="J6" toJunction="J3" end="3960" vehsPerHour="20.76767558777523" departLane="free"/>
  <flow id="JF3743" begin="3600" fromJunction="J6" toJunction="J4" end="3960" vehsPerHour="40.540930461717075" departLane="free"/>
  <flow id="JF3744" begin="3600" fromJunction="J6" toJunction="J5" end="3960" vehsPerHour="38.468522743435166" departLane="free"/>