<?xml version="1.0" encoding="UTF-8"?>
<routes xmlns:xsi="http://www.w3.org/2001/XMLSchema-instance" xsi:noNamespaceSchemaLocation="http://sumo.dlr.de/xsd/routes_file.xsd">
  <flow id="JF15425" begin="0" fromJunction="J0" toJunction="J13" end="360" vehsPerHour="54.33998971089944" departLane="free" arrivalSpeed="0.0"/>
  <flow id="JF15426" begin="0" fromJunction="J0" toJunction="J14" end="360" vehsPerHour="11.41940893324104" departLane="free" arrivalSpeed="0.0"/>
  <flow id="JF15427" begin="0" fromJunction="J0" toJunction="J15" end="360" vehsPerHour="43.05167531716501" departLane="free" arrivalSpeed="0.0"/>
  <flow id="JF15428" begin="0" fromJunction="J0" toJunction="J16" end="360" vehsPerHour="22.52898960260002" departLane="free" arrivalSpeed="0.0"/>
  <flow id="JF15429" begin="0" fromJunction="J0" toJunction="J3" end="360" vehsPerHour="4.387534442830862" departLane="free" arrivalSpeed="0.0"/>
  <flow id="JF15430" begin="0" fromJunction="J0" toJunction="J6" end="360" vehsPerHour="34.7138966104454" departLane="free" arrivalSpeed="0.0"/>
  <flow id="JF15431" begin="0" fromJunction="J0" toJunction="J7" end="360" vehsPerHour="3.441544138164851" departLane="free" arrivalSpeed="0.0"/>
  <flow id="JF15432" begin="0" fromJunction="J0" toJunction="J9" end="360" vehsPerHour="64.99249889713688" departLane="free" arrivalSpeed="0.0"/>
  <flow id="JF15433" begin="0" fromJunction="J12" toJunction="J0" end="360" vehsPerHour="64.07404120210501" departLane="free" arrivalSpeed="0.0"/>
  <flow id="JF15434" begin="0" fromJunction="J12" toJunction="J14" end="360" vehsPerHour="29.158751240525973" departLane="free" arrivalSpeed="0.0"/>
  <flow id="JF15435" begin="0" fromJunction="J12" toJunction="J15" end="360" vehsPerHour="23.990011848843807" departLane="free" arrivalSpeed="0.0"/>
  <flow id="JF15436" begin="0" fromJunction="J12" toJunction="J16" end="360" vehsPerHour="43.74423459396909" departLane="free" arrivalSpeed="0.0"/>
  <flow id="JF15437" begin="0" fromJunction="J12" toJunction="J3" end="360" vehsPerHour="58.78856764472605" departLane="free" arrivalSpeed="0.0"/>
  <flow id="JF15438" begin="0" fromJunction="J12" toJunction="J6" end="360" vehsPerHour="26.62913094226537" departLane="free" arrivalSpeed="0.0"/>
  <flow id="JF15439" begin="0" fromJunction="J12" toJunction="J7" end="360" vehsPerHour="36.16823835957697" departLane="free" arrivalSpeed="0.0"/>
  <flow id="JF15440" begin="0" fromJunction="J12" toJunction="J9" end="360" vehsPerHour="15.059500639795424" departLane="free" arrivalSpeed="0.0"/>
  <flow id="JF15441" begin="0" fromJunction="J13" toJunction="J0" end="360" vehsPerHour="64.61589669663655" departLane="free" arrivalSpeed="0.0"/>
  <flow id="JF15442" begin="0" fromJunction="J13" toJunction="J12" end="360" vehsPerHour="35.9384128235004" departLane="free" arrivalSpeed="0.0"/>
  <flow id="JF15443" begin="0" fromJunction="J13" toJunction="J15" end="360" vehsPerHour="43.99522994793534" departLane="free" arrivalSpeed="0.0"/>
  <flow id="JF15444" begin="0" fromJunction="J13" toJunction="J16" end="360" vehsPerHour="24.984887943786614" departLane="free" arrivalSpeed="0.0"/>
  <flow id="JF15445" begin="0" fromJunction="J13" toJunction="J6" end="360" vehsPerHour="22.297595674068557" departLane="free" arrivalSpeed="0.0"/>
  <flow id="JF15446" begin="0" fromJunction="J13" toJunction="J7" end="360" vehsPerHour="24.799076031065084" departLane="free" arrivalSpeed="0.0"/>
  <flow id="JF15447" begin="0" fromJunction="J13" toJunction="J8" end="360" vehsPerHour="4.058884531244371" departLane="free" arrivalSpeed="0.0"/>
  <flow id="JF15448" begin="0" fromJunction="J13" toJunction="J9" end="360" vehsPerHour="13.13501788402559" departLane="free" arrivalSpeed="0.0"/>
  <flow id="JF15449" begin="0" fromJunction="J14" toJunction="J0" end="360" vehsPerHour="10.36899273086275" departLane="free" arrivalSpeed="0.0"/>
  <flow id="JF15450" begin="0" fromJunction="J14" toJunction="J12" end="360" vehsPerHour="30.493192912968762" departLane="free" arrivalSpeed="0.0"/>
  <flow id="JF15451" begin="0" fromJunction="J14" toJunction="J16" end="360" vehsPerHour="17.610107863939987" departLane="free" arrivalSpeed="0.0"/>
  <flow id="JF15452" begin="0" fromJunction="J14" toJunction="J2" end="360" vehsPerHour="38.918029429216304" departLane="free" arrivalSpeed="0.0"/>
  <flow id="JF15453" begin="0" fromJunction="J14" toJunction="J3" end="360" vehsPerHour="35.847550665847834" departLane="free" arrivalSpeed="0.0"/>
  <flow id="JF15454" begin="0" fromJunction="J14" toJunction="J6" end="360" vehsPerHour="68.17959843265234" departLane="free" arrivalSpeed="0.0"/>
  <flow id="JF15455" begin="0" fromJunction="J14" toJunction="J7" end="360" vehsPerHour="44.47220278983732" departLane="free" arrivalSpeed="0.0"/>
  <flow id="JF15456" begin="0" fromJunction="J14" toJunction="J8" end="360" vehsPerHour="2.350798992085945" departLane="free" arrivalSpeed="0.0"/>
  <flow id="JF15457" begin="0" fromJunction="J14" toJunction="J9" end="360" vehsPerHour="7.2688108790756525" departLane="free" arrivalSpeed="0.0"/>
  <flow id="JF15458" begin="0" fromJunction="J15" toJunction="J0" end="360" vehsPerHour="8.92228454817206" departLane="free" arrivalSpeed="0.0"/>
  <flow id="JF15459" begin="0" fromJunction="J15" toJunction="J12" end="360" vehsPerHour="10.068556320128339" departLane="free" arrivalSpeed="0.0"/>
  <flow id="JF15460" begin="0" fromJunction="J15" toJunction="J13" end="360" vehsPerHour="38.5986561950492" departLane="free" arrivalSpeed="0.0"/>
  <flow id="JF15461" begin="0" fromJunction="J15" toJunction="J14" end="360" vehsPerHour="47.623890816476695" departLane="free" arrivalSpeed="0.0"/>
  <flow id="JF15462" begin="0" fromJunction="J15" toJunction="J16" end="360" vehsPerHour="47.967348742481924" departLane="free" arrivalSpeed="0.0"/>
  <flow id="JF15463" begin="0" fromJunction="J15" toJunction="J2" end="360" vehsPerHour="1.5392453984941858" departLane="free" arrivalSpeed="0.0"/>
  <flow id="JF15464" begin="0" fromJunction="J15" toJunction="J3" end="360" vehsPerHour="35.56900882061338" departLane="free" arrivalSpeed="0.0"/>
  <flow id="JF15465" begin="0" fromJunction="J15" toJunction="J7" end="360" vehsPerHour="5.145393811299505" departLane="free" arrivalSpeed="0.0"/>
  <flow id="JF15466" begin="0" fromJunction="J15" toJunction="J8" end="360" vehsPerHour="4.152042022617631" departLane="free" arrivalSpeed="0.0"/>
  <flow id="JF15467" begin="0" fromJunction="J15" toJunction="J9" end="360" vehsPerHour="61.68688705834855" departLane="free" arrivalSpeed="0.0"/>
  <flow id="JF15468" begin="0" fromJunction="J16" toJunction="J12" end="360" vehsPerHour="86.69575490748244" departLane="free" arrivalSpeed="0.0"/>
  <flow id="JF15469" begin="0" fromJunction="J16" toJunction="J13" end="360" vehsPerHour="122.5064617807085" departLane="free" arrivalSpeed="0.0"/>
  <flow id="JF15470" begin="0" fromJunction="J16" toJunction="J7" end="360" vehsPerHour="92.80527913094357" departLane="free" arrivalSpeed="0.0"/>
  <flow id="JF15471" begin="0" fromJunction="J2" toJunction="J12" end="360" vehsPerHour="31.32871710668033" departLane="free" arrivalSpeed="0.0"/>
  <flow id="JF15472" begin="0" fromJunction="J2" toJunction="J13" end="360" vehsPerHour="79.00240757215013" departLane="free" arrivalSpeed="0.0"/>
  <flow id="JF15473" begin="0" fromJunction="J2" toJunction="J3" end="360" vehsPerHour="53.04744589921805" departLane="free" arrivalSpeed="0.0"/>
  <flow id="JF15474" begin="0" fromJunction="J2" toJunction="J6" end="360" vehsPerHour="83.1414103431493" departLane="free" arrivalSpeed="0.0"/>
  <flow id="JF15475" begin="0" fromJunction="J2" toJunction="J7" end="360" vehsPerHour="46.335744620325926" departLane="free" arrivalSpeed="0.0"/>
  <flow id="JF15476" begin="0" fromJunction="J2" toJunction="J9" end="360" vehsPerHour="104.61866223014346" departLane="free" arrivalSpeed="0.0"/>
  <flow id="JF15477" begin="0" fromJunction="J3" toJunction="J12" end="360" vehsPerHour="38.31867925378329" departLane="free" arrivalSpeed="0.0"/>
  <flow id="JF15478" begin="0" fromJunction="J3" toJunction="J13" end="360" vehsPerHour="38.1629746976342" departLane="free" arrivalSpeed="0.0"/>
  <flow id="JF15479" begin="0" fromJunction="J3" toJunction="J16" end="360" vehsPerHour="33.440559770577025" departLane="free" arrivalSpeed="0.0"/>
  <flow id="JF15480" begin="0" fromJunction="J3" toJunction="J2" end="360" vehsPerHour="60.250824554987155" departLane="free" arrivalSpeed="0.0"/>
  <flow id="JF15481" begin="0" fromJunction="J3" toJunction="J6" end="360" vehsPerHour="60.38475142278798" departLane="free" arrivalSpeed="0.0"/>
  <flow id="JF15482" begin="0" fromJunction="J3" toJunction="J7" end="360" vehsPerHour="19.374428965599698" departLane="free" arrivalSpeed="0.0"/>
  <flow id="JF15483" begin="0" fromJunction="J3" toJunction="J8" end="360" vehsPerHour="62.04579459200335" departLane="free" arrivalSpeed="0.0"/>
  <flow id="JF15484" begin="0" fromJunction="J3" toJunction="J9" end="360" vehsPerHour="40.74480463827679" departLane="free" arrivalSpeed="0.0"/>
  <flow id="JF15485" begin="0" fromJunction="J6" toJunction="J12" end="360" vehsPerHour="28.01060889342861" departLane="free" arrivalSpeed="0.0"/>
  <flow id="JF15486" begin="0" fromJunction="J6" toJunction="J13" end="360" vehsPerHour="42.84320812253446" departLane="free" arrivalSpeed="0.0"/>
  <flow id="JF15487" begin="0" fromJunction="J6" toJunction="J14" end="360" vehsPerHour="45.873952220901664" departLane="free" arrivalSpeed="0.0"/>
  <flow id="JF15488" begin="0" fromJunction="J6" toJunction="J15" end="360" vehsPerHour="24.381617099414175" departLane="free" arrivalSpeed="0.0"/>
  <flow id="JF15489" begin="0" fromJunction="J6" toJunction="J16" end="360" vehsPerHour="31.782003671543915" departLane="free" arrivalSpeed="0.0"/>
  <flow id="JF15490" begin="0" fromJunction="J6" toJunction="J2" end="360" vehsPerHour="64.00079526462945" departLane="free" arrivalSpeed="0.0"/>
  <flow id="JF15491" begin="0" fromJunction="J6" toJunction="J3" end="360" vehsPerHour="65.59549984743299" departLane="free" arrivalSpeed="0.0"/>
  <flow id="JF15492" begin="0" fromJunction="J7" toJunction="J0" end="360" vehsPerHour="65.24287166106333" departLane="free" arrivalSpeed="0.0"/>
  <flow id="JF15493" begin="0" fromJunction="J7" toJunction="J15" end="360" vehsPerHour="7.8498091519964595" departLane="free" arrivalSpeed="0.0"/>
  <flow id="JF15494" begin="0" fromJunction="J7" toJunction="J16" end="360" vehsPerHour="49.45485477700225" departLane="free" arrivalSpeed="0.0"/>
  <flow id="JF15495" begin="0" fromJunction="J7" toJunction="J6" end="360" vehsPerHour="52.09049327006827" departLane="free" arrivalSpeed="0.0"/>
  <flow id="JF15496" begin="0" fromJunction="J7" toJunction="J9" end="360" vehsPerHour="5.786898842588571" departLane="free" arrivalSpeed="0.0"/>
  <flow id="JF15497" begin="0" fromJunction="J8" toJunction="J12" end="360" vehsPerHour="0.7134145318322445" departLane="free" arrivalSpeed="0.0"/>
  <flow id="JF15498" begin="0" fromJunction="J8" toJunction="J13" end="360" vehsPerHour="43.37073402852087" departLane="free" arrivalSpeed="0.0"/>
  <flow id="JF15499" begin="0" fromJunction="J8" toJunction="J14" end="360" vehsPerHour="32.261120427960385" departLane="free" arrivalSpeed="0.0"/>
  <flow id="JF15500" begin="0" fromJunction="J8" toJunction="J16" end="360" vehsPerHour="19.98722994716229" departLane="free" arrivalSpeed="0.0"/>
  <flow id="JF15501" begin="0" fromJunction="J8" toJunction="J2" end="360" vehsPerHour="59.07508379573385" departLane="free" arrivalSpeed="0.0"/>
  <flow id="JF15502" begin="0" fromJunction="J8" toJunction="J3" end="360" vehsPerHour="27.274221262177246" departLane="free" arrivalSpeed="0.0"/>
  <flow id="JF15503" begin="0" fromJunction="J8" toJunction="J6" end="360" vehsPerHour="60.98738770934044" departLane="free" arrivalSpeed="0.0"/>
  <flow id="JF15504" begin="0" fromJunction="J8" toJunction="J7" end="360" vehsPerHour="3.8603661379222936" departLane="free" arrivalSpeed="0.0"/>
  <flow id="JF15505" begin="0" fromJunction="J9" toJunction="J0" end="360" vehsPerHour="5.153312989489755" departLane="free" arrivalSpeed="0.0"/>
  <flow id="JF15506" begin="0" fromJunction="J9" toJunction="J12" end="360" vehsPerHour="7.711334280743368" departLane="free" arrivalSpeed="0.0"/>
  <flow id="JF15507" begin="0" fromJunction="J9" toJunction="J13" end="360" vehsPerHour="30.381878270560705" departLane="free" arrivalSpeed="0.0"/>
  <flow id="JF15508" begin="0" fromJunction="J9" toJunction="J15" end="360" vehsPerHour="23.39788087681323" departLane="free" arrivalSpeed="0.0"/>
  <flow id="JF15509" begin="0" fromJunction="J9" toJunction="J2" end="360" vehsPerHour="40.73984939555118" departLane="free" arrivalSpeed="0.0"/>
  <flow id="JF15510" begin="0" fromJunction="J9" toJunction="J3" end="360" vehsPerHour="8.443149845067513" departLane="free" arrivalSpeed="0.0"/>
  <flow id="JF15511" begin="0" fromJunction="J9" toJunction="J7" end="360" vehsPerHour="66.5659552780148" departLane="free" arrivalSpeed="0.0"/>
  <flow id="JF15512" begin="360" fromJunction="J0" toJunction="J13" end="720" vehsPerHour="53.585848292207785" departLane="free" arrivalSpeed="0.0"/>
  <flow id="JF15513" begin="360" fromJunction="J0" toJunction="J14" end="720" vehsPerHour="21.406578124443698" departLane="free" arrivalSpeed="0.0"/>
  <flow id="JF15514" begin="360" fromJunction="J0" toJunction="J15" end="720" vehsPerHour="11.32979855422889" departLane="free" arrivalSpeed="0.0"/>
  <flow id="JF15515" begin="360" fromJunction="J0" toJunction="J16" end="720" vehsPerHour="8.50943342346669" departLane="free" arrivalSpeed="0.0"/>
  <flow id="JF15516" begin="360" fromJunction="J0" toJunction="J2" end="720" vehsPerHour="28.22627588799773" departLane="free" arrivalSpeed="0.0"/>
  <flow id="JF15517" begin="360" fromJunction="J0" toJunction="J6" end="720" vehsPerHour="53.009388018395896" departLane="free" arrivalSpeed="0.0"/>
  <flow id="JF15518" begin="360" fromJunction="J0" toJunction="J7" end="720" vehsPerHour="11.146918673308765" departLane="free" arrivalSpeed="0.0"/>
  <flow id="JF15519" begin="360" fromJunction="J0" toJunction="J8" end="720" vehsPerHour="17.980607414108764" departLane="free" arrivalSpeed="0.0"/>
  <flow id="JF15520" begin="360" fromJunction="J12" toJunction="J0" end="720" vehsPerHour="0.4541866731750112" departLane="free" arrivalSpeed="0.0"/>
  <flow id="JF15521" begin="360" fromJunction="J12" toJunction="J13" end="720" vehsPerHour="60.52385534498963" departLane="free" arrivalSpeed="0.0"/>
  <flow id="JF15522" begin="360" fromJunction="J12" toJunction="J14" end="720" vehsPerHour="64.38390745794761" departLane="free" arrivalSpeed="0.0"/>
  <flow id="JF15523" begin="360" fromJunction="J12" toJunction="J15" end="720" vehsPerHour="21.137890116730482" departLane="free" arrivalSpeed="0.0"/>
  <flow id="JF15524" begin="360" fromJunction="J12" toJunction="J2" end="720" vehsPerHour="63.45226728639112" departLane="free" arrivalSpeed="0.0"/>
  <flow id="JF15525" begin="360" fromJunction="J12" toJunction="J3" end="720" vehsPerHour="27.18515642903659" departLane="free" arrivalSpeed="0.0"/>
  <flow id="JF15526" begin="360" fromJunction="J12" toJunction="J6" end="720" vehsPerHour="43.4629437261064" departLane="free" arrivalSpeed="0.0"/>
  <flow id="JF15527" begin="360" fromJunction="J12" toJunction="J8" end="720" vehsPerHour="37.83206141849393" departLane="free" arrivalSpeed="0.0"/>
  <flow id="JF15528" begin="360" fromJunction="J12" toJunction="J9" end="720" vehsPerHour="11.27074979356397" departLane="free" arrivalSpeed="0.0"/>
  <flow id="JF15529" begin="360" fromJunction="J13" toJunction="J0" end="720" vehsPerHour="11.731126323251418" departLane="free" arrivalSpeed="0.0"/>
  <flow id="JF15530" begin="360" fromJunction="J13" toJunction="J12" end="720" vehsPerHour="49.68327816291812" departLane="free" arrivalSpeed="0.0"/>
  <flow id="JF15531" begin="360" fromJunction="J13" toJunction="J15" end="720" vehsPerHour="19.922883965858453" departLane="free" arrivalSpeed="0.0"/>
  <flow id="JF15532" begin="360" fromJunction="J13" toJunction="J16" end="720" vehsPerHour="57.376421327147845" departLane="free" arrivalSpeed="0.0"/>
  <flow id="JF15533" begin="360" fromJunction="J13" toJunction="J2" end="720" vehsPerHour="21.35245433601791" departLane="free" arrivalSpeed="0.0"/>
  <flow id="JF15534" begin="360" fromJunction="J13" toJunction="J6" end="720" vehsPerHour="61.791105405177724" departLane="free" arrivalSpeed="0.0"/>
  <flow id="JF15535" begin="360" fromJunction="J13" toJunction="J7" end="720" vehsPerHour="4.5541203633237926" departLane="free" arrivalSpeed="0.0"/>
  <flow id="JF15536" begin="360" fromJunction="J13" toJunction="J9" end="720" vehsPerHour="19.731729475912577" departLane="free" arrivalSpeed="0.0"/>
  <flow id="JF15537" begin="360" fromJunction="J14" toJunction="J0" end="720" vehsPerHour="0.29889348897742146" departLane="free" arrivalSpeed="0.0"/>
  <flow id="JF15538" begin="360" fromJunction="J14" toJunction="J12" end="720" vehsPerHour="62.394624147565075" departLane="free" arrivalSpeed="0.0"/>
  <flow id="JF15539" begin="360" fromJunction="J14" toJunction="J13" end="720" vehsPerHour="55.23007768233762" departLane="free" arrivalSpeed="0.0"/>
  <flow id="JF15540" begin="360" fromJunction="J14" toJunction="J15" end="720" vehsPerHour="22.522639994449126" departLane="free" arrivalSpeed="0.0"/>
  <flow id="JF15541" begin="360" fromJunction="J14" toJunction="J16" end="720" vehsPerHour="22.67430197484524" departLane="free" arrivalSpeed="0.0"/>
  <flow id="JF15542" begin="360" fromJunction="J14" toJunction="J2" end="720" vehsPerHour="35.21338864778974" departLane="free" arrivalSpeed="0.0"/>
  <flow id="JF15543" begin="360" fromJunction="J14" toJunction="J3" end="720" vehsPerHour="48.31876270158655" departLane="free" arrivalSpeed="0.0"/>
  <flow id="JF15544" begin="360" fromJunction="J14" toJunction="J8" end="720" vehsPerHour="53.032990391379826" departLane="free" arrivalSpeed="0.0"/>
  <flow id="JF15545" begin="360" fromJunction="J15" toJunction="J0" end="720" vehsPerHour="50.06812219149037" departLane="free" arrivalSpeed="0.0"/>
  <flow id="JF15546" begin="360" fromJunction="J15" toJunction="J12" end="720" vehsPerHour="55.790319235752946" departLane="free" arrivalSpeed="0.0"/>
  <flow id="JF15547" begin="360" fromJunction="J15" toJunction="J13" end="720" vehsPerHour="21.19066966164117" departLane="free" arrivalSpeed="0.0"/>
  <flow id="JF15548" begin="360" fromJunction="J15" toJunction="J14" end="720" vehsPerHour="53.21460478400932" departLane="free" arrivalSpeed="0.0"/>
  <flow id="JF15549" begin="360" fromJunction="J15" toJunction="J16" end="720" vehsPerHour="32.43864247456487" departLane="free" arrivalSpeed="0.0"/>
  <flow id="JF15550" begin="360" fromJunction="J15" toJunction="J2" end="720" vehsPerHour="37.03973319620614" departLane="free" arrivalSpeed="0.0"/>
  <flow id="JF15551" begin="360" fromJunction="J15" toJunction="J6" end="720" vehsPerHour="13.16242262763393" departLane="free" arrivalSpeed="0.0"/>
  <flow id="JF15552" begin="360" fromJunction="J15" toJunction="J9" end="720" vehsPerHour="19.79719976157185" departLane="free" arrivalSpeed="0.0"/>
  <flow id="JF15553" begin="360" fromJunction="J16" toJunction="J13" end="720" vehsPerHour="74.91152549597103" departLane="free" arrivalSpeed="0.0"/>
  <flow id="JF15554" begin="360" fromJunction="J16" toJunction="J14" end="720" vehsPerHour="53.29980243133848" departLane="free" arrivalSpeed="0.0"/>
  <flow id="JF15555" begin="360" fromJunction="J16" toJunction="J2" end="720" vehsPerHour="16.51903030719833" departLane="free" arrivalSpeed="0.0"/>
  <flow id="JF15556" begin="360" fromJunction="J16" toJunction="J6" end="720" vehsPerHour="55.83753533531784" departLane="free" arrivalSpeed="0.0"/>
  <flow id="JF15557" begin="360" fromJunction="J16" toJunction="J8" end="720" vehsPerHour="66.4841682269923" departLane="free" arrivalSpeed="0.0"/>
  <flow id="JF15558" begin="360" fromJunction="J2" toJunction="J13" end="720" vehsPerHour="67.87904724123095" departLane="free" arrivalSpeed="0.0"/>
  <flow id="JF15559" begin="360" fromJunction="J2" toJunction="J14" end="720" vehsPerHour="78.54421640157429" departLane="free" arrivalSpeed="0.0"/>
  <flow id="JF15560" begin="360" fromJunction="J2" toJunction="J15" end="720" vehsPerHour="22.33247413080338" departLane="free" arrivalSpeed="0.0"/>
  <flow id="JF15561" begin="360" fromJunction="J2" toJunction="J3" end="720" vehsPerHour="48.20969925273989" departLane="free" arrivalSpeed="0.0"/>
  <flow id="JF15562" begin="360" fromJunction="J2" toJunction="J7" end="720" vehsPerHour="120.59752560843835" departLane="free" arrivalSpeed="0.0"/>
  <flow id="JF15563" begin="360" fromJunction="J2" toJunction="J9" end="720" vehsPerHour="79.204487605609" departLane="free" arrivalSpeed="0.0"/>
  <flow id="JF15564" begin="360" fromJunction="J3" toJunction="J0" end="720" vehsPerHour="31.930003035416146" departLane="free" arrivalSpeed="0.0"/>
  <flow id="JF15565" begin="360" fromJunction="J3" toJunction="J12" end="720" vehsPerHour="18.082118331193694" departLane="free" arrivalSpeed="0.0"/>
  <flow id="JF15566" begin="360" fromJunction="J3" toJunction="J13" end="720" vehsPerHour="19.708905564091804" departLane="free" arrivalSpeed="0.0"/>
  <flow id="JF15567" begin="360" fromJunction="J3" toJunction="J14" end="720" vehsPerHour="19.801697436688137" departLane="free" arrivalSpeed="0.0"/>
  <flow id="JF15568" begin="360" fromJunction="J3" toJunction="J6" end="720" vehsPerHour="57.916111306802186" departLane="free" arrivalSpeed="0.0"/>
  <flow id="JF15569" begin="360" fromJunction="J3" toJunction="J7" end="720" vehsPerHour="49.234850115944155" departLane="free" arrivalSpeed="0.0"/>
  <flow id="JF15570" begin="360" fromJunction="J3" toJunction="J8" end="720" vehsPerHour="67.7512255467473" departLane="free" arrivalSpeed="0.0"/>
  <flow id="JF15571" begin="360" fromJunction="J3" toJunction="J9" end="720" vehsPerHour="14.025356347887241" departLane="free" arrivalSpeed="0.0"/>
  <flow id="JF15572" begin="360" fromJunction="J6" toJunction="J13" end="720" vehsPerHour="1.8512897562014297" departLane="free" arrivalSpeed="0.0"/>
  <flow id="JF15573" begin="360" fromJunction="J6" toJunction="J14" end="720" vehsPerHour="7.1073036049311575" departLane="free" arrivalSpeed="0.0"/>
  <flow id="JF15574" begin="360" fromJunction="J6" toJunction="J15" end="720" vehsPerHour="4.14367162456916" departLane="free" arrivalSpeed="0.0"/>
  <flow id="JF15575" begin="360" fromJunction="J6" toJunction="J16" end="720" vehsPerHour="35.78288082176035" departLane="free" arrivalSpeed="0.0"/>
  <flow id="JF15576" begin="360" fromJunction="J6" toJunction="J2" end="720" vehsPerHour="52.47066735663174" departLane="free" arrivalSpeed="0.0"/>
  <flow id="JF15577" begin="360" fromJunction="J6" toJunction="J8" end="720" vehsPerHour="34.91751827954309" departLane="free" arrivalSpeed="0.0"/>
  <flow id="JF15578" begin="360" fromJunction="J7" toJunction="J12" end="720" vehsPerHour="13.800279001022808" departLane="free" arrivalSpeed="0.0"/>
  <flow id="JF15579" begin="360" fromJunction="J7" toJunction="J15" end="720" vehsPerHour="35.87745254892283" departLane="free" arrivalSpeed="0.0"/>
  <flow id="JF15580" begin="360" fromJunction="J7" toJunction="J16" end="720" vehsPerHour="4.21125356756687" departLane="free" arrivalSpeed="0.0"/>
  <flow id="JF15581" begin="360" fromJunction="J7" toJunction="J2" end="720" vehsPerHour="7.438466759056203" departLane="free" arrivalSpeed="0.0"/>
  <flow id="JF15582" begin="360" fromJunction="J7" toJunction="J3" end="720" vehsPerHour="28.21952815934173" departLane="free" arrivalSpeed="0.0"/>
  <flow id="JF15583" begin="360" fromJunction="J7" toJunction="J8" end="720" vehsPerHour="27.706795508245378" departLane="free" arrivalSpeed="0.0"/>
  <flow id="JF15584" begin="360" fromJunction="J8" toJunction="J0" end="720" vehsPerHour="58.156405655152454" departLane="free" arrivalSpeed="0.0"/>
  <flow id="JF15585" begin="360" fromJunction="J8" toJunction="J12" end="720" vehsPerHour="63.71670315595691" departLane="free" arrivalSpeed="0.0"/>
  <flow id="JF15586" begin="360" fromJunction="J8" toJunction="J13" end="720" vehsPerHour="17.827164303292182" departLane="free" arrivalSpeed="0.0"/>
  <flow id="JF15587" begin="360" fromJunction="J8" toJunction="J14" end="720" vehsPerHour="15.475565133616053" departLane="free" arrivalSpeed="0.0"/>
  <flow id="JF15588" begin="360" fromJunction="J8" toJunction="J15" end="720" vehsPerHour="36.11495623557225" departLane="free" arrivalSpeed="0.0"/>
  <flow id="JF15589" begin="360" fromJunction="J8" toJunction="J2" end="720" vehsPerHour="1.123999277452299" departLane="free" arrivalSpeed="0.0"/>
  <flow id="JF15590" begin="360" fromJunction="J8" toJunction="J3" end="720" vehsPerHour="50.33384078443" departLane="free" arrivalSpeed="0.0"/>
  <flow id="JF15591" begin="360" fromJunction="J8" toJunction="J6" end="720" vehsPerHour="19.34575986952209" departLane="free" arrivalSpeed="0.0"/>
  <flow id="JF15592" begin="360" fromJunction="J8" toJunction="J7" end="720" vehsPerHour="47.92101810636664" departLane="free" arrivalSpeed="0.0"/>
  <flow id="JF15593" begin="360" fromJunction="J8" toJunction="J9" end="720" vehsPerHour="61.33792867036701" departLane="free" arrivalSpeed="0.0"/>
  <flow id="JF15594" begin="360" fromJunction="J9" toJunction="J0" end="720" vehsPerHour="52.39962906260471" departLane="free" arrivalSpeed="0.0"/>
  <flow id="JF15595" begin="360" fromJunction="J9" toJunction="J14" end="720" vehsPerHour="54.565838593818434" departLane="free" arrivalSpeed="0.0"/>
  <flow id="JF15596" begin="360" fromJunction="J9" toJunction="J2" end="720" vehsPerHour="32.9561627389021" departLane="free" arrivalSpeed="0.0"/>
  <flow id="JF15597" begin="360" fromJunction="J9" toJunction="J3" end="720" vehsPerHour="57.19080109839574" departLane="free" arrivalSpeed="0.0"/>
  <flow id="JF15598" begin="360" fromJunction="J9" toJunction="J6" end="720" vehsPerHour="55.65339217981256" departLane="free" arrivalSpeed="0.0"/>
  <flow id="JF15599" begin="360" fromJunction="J9" toJunction="J7" end="720" vehsPerHour="36.882222782111995" departLane="free" arrivalSpeed="0.0"/>
  <flow id="JF15600" begin="360" fromJunction="J9" toJunction="J8" end="720" vehsPerHour="58.41174120508306" departLane="free" arrivalSpeed="0.0"/>
  <flow id="JF15601" begin="720" fromJunction="J0" toJunction="J12" end="1080" vehsPerHour="20.160633674849077" departLane="free" arrivalSpeed="0.0"/>
  <flow id="JF15602" begin="720" fromJunction="J0" toJunction="J13" end="1080" vehsPerHour="31.058070502200543" departLane="free" arrivalSpeed="0.0"/>
  <flow id="JF15603" begin="720" fromJunction="J0" toJunction="J14" end="1080" vehsPerHour="6.9998794329710154" departLane="free" arrivalSpeed="0.0"/>
  <flow id="JF15604" begin="720" fromJunction="J0" toJunction="J15" end="1080" vehsPerHour="22.058036272857876" departLane="free" arrivalSpeed="0.0"/>
  <flow id="JF15605" begin="720" fromJunction="J0" toJunction="J16" end="1080" vehsPerHour="6.76775283063354" departLane="free" arrivalSpeed="0.0"/>
  <flow id="JF15606" begin="720" fromJunction="J0" toJunction="J2" end="1080" vehsPerHour="8.84034551728559" departLane="free" arrivalSpeed="0.0"/>
  <flow id="JF15607" begin="720" fromJunction="J0" toJunction="J3" end="1080" vehsPerHour="36.01630592574141" departLane="free" arrivalSpeed="0.0"/>
  <flow id="JF15608" begin="720" fromJunction="J0" toJunction="J6" end="1080" vehsPerHour="5.929208979518165" departLane="free" arrivalSpeed="0.0"/>
  <flow id="JF15609" begin="720" fromJunction="J0" toJunction="J7" end="1080" vehsPerHour="2.5558325154655748" departLane="free" arrivalSpeed="0.0"/>
  <flow id="JF15610" begin="720" fromJunction="J0" toJunction="J8" end="1080" vehsPerHour="11.43795151604464" departLane="free" arrivalSpeed="0.0"/>
  <flow id="JF15611" begin="720" fromJunction="J0" toJunction="J9" end="1080" vehsPerHour="12.726789625537656" departLane="free" arrivalSpeed="0.0"/>
  <flow id="JF15612" begin="720" fromJunction="J12" toJunction="J0" end="1080" vehsPerHour="35.62039115467132" departLane="free" arrivalSpeed="0.0"/>
  <flow id="JF15613" begin="720" fromJunction="J12" toJunction="J13" end="1080" vehsPerHour="11.31378338142835" departLane="free" arrivalSpeed="0.0"/>
  <flow id="JF15614" begin="720" fromJunction="J12" toJunction="J15" end="1080" vehsPerHour="36.07901280557117" departLane="free" arrivalSpeed="0.0"/>
  <flow id="JF15615" begin="720" fromJunction="J12" toJunction="J16" end="1080" vehsPerHour="14.979546168892071" departLane="free" arrivalSpeed="0.0"/>
  <flow id="JF15616" begin="720" fromJunction="J12" toJunction="J6" end="1080" vehsPerHour="20.309109239269965" departLane="free" arrivalSpeed="0.0"/>
  <flow id="JF15617" begin="720" fromJunction="J12" toJunction="J7" end="1080" vehsPerHour="19.107563509612035" departLane="free" arrivalSpeed="0.0"/>
  <flow id="JF15618" begin="720" fromJunction="J12" toJunction="J8" end="1080" vehsPerHour="22.072538681101253" departLane="free" arrivalSpeed="0.0"/>
  <flow id="JF15619" begin="720" fromJunction="J12" toJunction="J9" end="1080" vehsPerHour="4.529861399002866" departLane="free" arrivalSpeed="0.0"/>
  <flow id="JF15620" begin="720" fromJunction="J13" toJunction="J0" end="1080" vehsPerHour="50.485067715080234" departLane="free" arrivalSpeed="0.0"/>
  <flow id="JF15621" begin="720" fromJunction="J13" toJunction="J12" end="1080" vehsPerHour="17.311442746772933" departLane="free" arrivalSpeed="0.0"/>
  <flow id="JF15622" begin="720" fromJunction="J13" toJunction="J14" end="1080" vehsPerHour="2.8752151572668274" departLane="free" arrivalSpeed="0.0"/>
  <flow id="JF15623" begin="720" fromJunction="J13" toJunction="J15" end="1080" vehsPerHour="62.784691855072815" departLane="free" arrivalSpeed="0.0"/>
  <flow id="JF15624" begin="720" fromJunction="J13" toJunction="J2" end="1080" vehsPerHour="35.614966461644684" departLane="free" arrivalSpeed="0.0"/>