<?xml version="1.0" encoding="UTF-8"?>
<routes xmlns:xsi="http://www.w3.org/2001/XMLSchema-instance" xsi:noNamespaceSchemaLocation="http://sumo.dlr.de/xsd/routes_file.xsd">
  <flow id="JF36280" begin="0" fromJunction="J0" toJunction="J3" end="60" vehsPerHour="92.79745448016531" departLane="free" arrivalSpeed="0.0"/>
  <flow id="JF36281" begin="0" fromJunction="J0" toJunction="J5" end="60" vehsPerHour="99.89835827471866" departLane="free" arrivalSpeed="0.0"/>
  <flow id="JF36282" begin="0" fromJunction="J0" toJunction="J6" end="60" vehsPerHour="70.89465805642895" departLane="free" arrivalSpeed="0.0"/>
  <flow id="JF36283" begin="0" fromJunction="J3" toJunction="J4" end="60" vehsPerHour="109.1428627065248" departLane="free" arrivalSpeed="0.0"/>
  <flow id="JF36284" begin="0" fromJunction="J3" toJunction="J5" end="60" vehsPerHour="112.35868516619358" departLane="free" arrivalSpeed="0.0"/>
  <flow id="JF36285" begin="0" fromJunction="J3" toJunction="J6" end="60" vehsPerHour="109.29307882980176" departLane="free" arrivalSpeed="0.0"/>
  <flow id="JF36286" begin="0" fromJunction="J4" toJunction="J0" end="60" vehsPerHour="4.7066974234222725" departLane="free" arrivalSpeed="0.0"/>
  <flow id="JF36287" begin="0" fromJunction="J4" toJunction="J3" end="60" vehsPerHour="4.904660256497276" departLane="free" arrivalSpeed="0.0"/>
  <flow id="JF36288" begin="0" fromJunction="J4" toJunction="J5" end="60" vehsPerHour="19.43178628019772" departLane="free" arrivalSpeed="0.0"/>
  <flow id="JF36289" begin="0" fromJunction="J4" toJunction="J6" end="60" vehsPerHour="29.4137772306765" departLane="free" arrivalSpeed="0.0"/>
  <flow id="JF36290" begin="0" fromJunction="J4" toJunction="J7" end="60" vehsPerHour="43.92480364315804" departLane="free" arrivalSpeed="0.0"/>
  <flow id="JF36291" begin="0" fromJunction="J5" toJunction="J0" end="60" vehsPerHour="55.64599010239763" departLane="free" arrivalSpeed="0.0"/>
  <flow id="JF36292" begin="0" fromJunction="J5" toJunction="J4" end="60" vehsPerHour="26.48950624233198" departLane="free" arrivalSpeed="0.0"/>
  <flow id="JF36293" begin="0" fromJunction="J5" toJunction="J6" end="60" vehsPerHour="17.85603433440755" departLane="free" arrivalSpeed="0.0"/>
  <flow id="JF36294" begin="0" fromJunction="J5" toJunction="J7" end="60" vehsPerHour="6.161487426983542" departLane="free" arrivalSpeed="0.0"/>
  <flow id="JF36295" begin="0" fromJunction="J6" toJunction="J0" end="60" vehsPerHour="41.254771535229104" departLane="free" arrivalSpeed="0.0"/>
  <flow id="JF36296" begin="0" fromJunction="J6" toJunction="J3" end="60" vehsPerHour="66.22886862688101" departLane="free" arrivalSpeed="0.0"/>
  <flow id="JF36297" begin="0" fromJunction="J6" toJunction="J5" end="60" vehsPerHour="20.942928940677078" departLane="free" arrivalSpeed="0.0"/>
  <flow id="JF36298" begin="0" fromJunction="J6" toJunction="J7" end="60" vehsPerHour="36.12421588366398" departLane="free" arrivalSpeed="0.0"/>
  <flow id="JF36299" begin="0" fromJunction="J7" toJunction="J4" end="60" vehsPerHour="7.488870235781529" departLane="free" arrivalSpeed="0.0"/>
  <flow id="JF36300" begin="0" fromJunction="J7" toJunction="J5" end="60" vehsPerHour="60.93419282801613" departLane="free" arrivalSpeed="0.0"/>
  <flow id="JF36301" begin="0" fromJunction="J7" toJunction="J6" end="60" vehsPerHour="5.113094987025335" departLane="free" arrivalSpeed="0.0"/>
  <flow id="JF36302" begin="60" fromJunction="J0" toJunction="J3" end="120" vehsPerHour="54.99841866563916" departLane="free" arrivalSpeed="0.0"/>
  <flow id="JF36303" begin="60" fromJunction="J0" toJunction="J5" end="120" vehsPerHour="45.76884241276746" departLane="free" arrivalSpeed="0.0"/>
  <flow id="JF36304" begin="60" fromJunction="J0" toJunction="J6" end="120" vehsPerHour="33.358125774763316" departLane="free" arrivalSpeed="0.0"/>
  <flow id="JF36305" begin="60" fromJunction="J3" toJunction="J0" end="120" vehsPerHour="26.47764534189917" departLane="free" arrivalSpeed="0.0"/>
  <flow id="JF36306" begin="60" fromJunction="J3" toJunction="J7" end="120" vehsPerHour="130.86073181476627" departLane="free" arrivalSpeed="0.0"/>
  <flow id="JF36307" begin="60" fromJunction="J4" toJunction="J3" end="120" vehsPerHour="62.64717410723923" departLane="free" arrivalSpeed="0.0"/>
  <flow id="JF36308" begin="60" fromJunction="J4" toJunction="J5" end="120" vehsPerHour="26.398424187138538" departLane="free" arrivalSpeed="0.0"/>
  <flow id="JF36309" begin="60" fromJunction="J4" toJunction="J6" end="120" vehsPerHour="64.83326369583942" departLane="free" arrivalSpeed="0.0"/>
  <flow id="JF36310" begin="60" fromJunction="J4" toJunction="J7" end="120" vehsPerHour="31.513196007570336" departLane="free" arrivalSpeed="0.0"/>
  <flow id="JF36311" begin="60" fromJunction="J5" toJunction="J7" end="120" vehsPerHour="62.100278648274376" departLane="free" arrivalSpeed="0.0"/>
  <flow id="JF36312" begin="60" fromJunction="J6" toJunction="J3" end="120" vehsPerHour="22.237113209322303" departLane="free" arrivalSpeed="0.0"/>
  <flow id="JF36313" begin="60" fromJunction="J6" toJunction="J5" end="120" vehsPerHour="9.2101915734825" departLane="free" arrivalSpeed="0.0"/>
  <flow id="JF36314" begin="60" fromJunction="J6" toJunction="J7" end="120" vehsPerHour="36.671567900137084" departLane="free" arrivalSpeed="0.0"/>
  <flow id="JF36315" begin="60" fromJunction="J7" toJunction="J0" end="120" vehsPerHour="16.450738871477323" departLane="free" arrivalSpeed="0.0"/>
  <flow id="JF36316" begin="60" fromJunction="J7" toJunction="J3" end="120" vehsPerHour="33.546857590620945" departLane="free" arrivalSpeed="0.0"/>
  <flow id="JF36317" begin="60" fromJunction="J7" toJunction="J4" end="120" vehsPerHour="67.44657798440537" departLane="free" arrivalSpeed="0.0"/>
  <flow id="JF36318" begin="60" fromJunction="J7" toJunction="J5" end="120" vehsPerHour="16.477411198452597" departLane="free" arrivalSpeed="0.0"/>
  <flow id="JF36319" begin="60" fromJunction="J7" toJunction="J6" end="120" vehsPerHour="16.968501054101754" departLane="free" arrivalSpeed="0.0"/>
  <flow id="JF36320" begin="120" fromJunction="J0" toJunction="J3" end="180" vehsPerHour="10.486236340467528" departLane="free" arrivalSpeed="0.0"/>
  <flow id="JF36321" begin="120" fromJunction="J0" toJunction="J4" end="180" vehsPerHour="14.50359031103891" departLane="free" arrivalSpeed="0.0"/>
  <flow id="JF36322" begin="120" fromJunction="J0" toJunction="J5" end="180" vehsPerHour="98.88921001371227" departLane="free" arrivalSpeed="0.0"/>
  <flow id="JF36323" begin="120" fromJunction="J0" toJunction="J6" end="180" vehsPerHour="99.2589489020611" departLane="free" arrivalSpeed="0.0"/>
  <flow id="JF36324" begin="120" fromJunction="J0" toJunction="J7" end="180" vehsPerHour="121.6903340867519" departLane="free" arrivalSpeed="0.0"/>
  <flow id="JF36325" begin="120" fromJunction="J3" toJunction="J4" end="180" vehsPerHour="38.19643414135901" departLane="free" arrivalSpeed="0.0"/>
  <flow id="JF36326" begin="120" fromJunction="J3" toJunction="J5" end="180" vehsPerHour="66.98709204579508" departLane="free" arrivalSpeed="0.0"/>
  <flow id="JF36327" begin="120" fromJunction="J3" toJunction="J6" end="180" vehsPerHour="70.0744246268522" departLane="free" arrivalSpeed="0.0"/>
  <flow id="JF36328" begin="120" fromJunction="J4" toJunction="J3" end="180" vehsPerHour="49.76686752830661" departLane="free" arrivalSpeed="0.0"/>
  <flow id="JF36329" begin="120" fromJunction="J4" toJunction="J5" end="180" vehsPerHour="60.306872765633585" departLane="free" arrivalSpeed="0.0"/>
  <flow id="JF36330" begin="120" fromJunction="J4" toJunction="J6" end="180" vehsPerHour="38.26465357665126" departLane="free" arrivalSpeed="0.0"/>
  <flow id="JF36331" begin="120" fromJunction="J4" toJunction="J7" end="180" vehsPerHour="24.805262004929794" departLane="free" arrivalSpeed="0.0"/>
  <flow id="JF36332" begin="120" fromJunction="J5" toJunction="J0" end="180" vehsPerHour="23.16250527046071" departLane="free" arrivalSpeed="0.0"/>
  <flow id="JF36333" begin="120" fromJunction="J5" toJunction="J3" end="180" vehsPerHour="18.448261928563966" departLane="free" arrivalSpeed="0.0"/>
  <flow id="JF36334" begin="120" fromJunction="J5" toJunction="J4" end="180" vehsPerHour="12.555411112111727" departLane="free" arrivalSpeed="0.0"/>
  <flow id="JF36335" begin="120" fromJunction="J5" toJunction="J6" end="180" vehsPerHour="59.384212057367655" departLane="free" arrivalSpeed="0.0"/>
  <flow id="JF36336" begin="120" fromJunction="J5" toJunction="J7" end="180" vehsPerHour="52.50178885344817" departLane="free" arrivalSpeed="0.0"/>
  <flow id="JF36337" begin="120" fromJunction="J6" toJunction="J4" end="180" vehsPerHour="46.581793622419006" departLane="free" arrivalSpeed="0.0"/>
  <flow id="JF36338" begin="120" fromJunction="J6" toJunction="J5" end="180" vehsPerHour="47.30891991812936" departLane="free" arrivalSpeed="0.0"/>
  <flow id="JF36339" begin="120" fromJunction="J6" toJunction="J7" end="180" vehsPerHour="29.105599440021017" departLane="free" arrivalSpeed="0.0"/>
  <flow id="JF36340" begin="120" fromJunction="J7" toJunction="J0" end="180" vehsPerHour="19.530702308799274" departLane="free" arrivalSpeed="0.0"/>
  <flow id="JF36341" begin="120" fromJunction="J7" toJunction="J3" end="180" vehsPerHour="46.00925471329057" departLane="free" arrivalSpeed="0.0"/>
  <flow id="JF36342" begin="120" fromJunction="J7" toJunction="J4" end="180" vehsPerHour="1.7063978614948263" departLane="free" arrivalSpeed="0.0"/>
  <flow id="JF36343" begin="120" fromJunction="J7" toJunction="J5" end="180" vehsPerHour="18.536673709957252" departLane="free" arrivalSpeed="0.0"/>
  <flow id="JF36344" begin="180" fromJunction="J0" toJunction="J4" end="240" vehsPerHour="35.0178779009586" departLane="free" arrivalSpeed="0.0"/>
  <flow id="JF36345" begin="180" fromJunction="J0" toJunction="J6" end="240" vehsPerHour="129.1609617489943" departLane="free" arrivalSpeed="0.0"/>
  <flow id="JF36346" begin="180" fromJunction="J0" toJunction="J7" end="240" vehsPerHour="108.23693247790314" departLane="free" arrivalSpeed="0.0"/>
  <flow id="JF36347" begin="180" fromJunction="J3" toJunction="J5" end="240" vehsPerHour="86.5610410666943" departLane="free" arrivalSpeed="0.0"/>
  <flow id="JF36348" begin="180" fromJunction="J3" toJunction="J6" end="240" vehsPerHour="91.77378159411029" departLane="free" arrivalSpeed="0.0"/>
  <flow id="JF36349" begin="180" fromJunction="J3" toJunction="J7" end="240" vehsPerHour="71.81798181385722" departLane="free" arrivalSpeed="0.0"/>
  <flow id="JF36350" begin="180" fromJunction="J4" toJunction="J0" end="240" vehsPerHour="1.2240289269451983" departLane="free" arrivalSpeed="0.0"/>
  <flow id="JF36351" begin="180" fromJunction="J4" toJunction="J3" end="240" vehsPerHour="3.622352917359932" departLane="free" arrivalSpeed="0.0"/>
  <flow id="JF36352" begin="180" fromJunction="J4" toJunction="J5" end="240" vehsPerHour="51.645919743610634" departLane="free" arrivalSpeed="0.0"/>
  <flow id="JF36353" begin="180" fromJunction="J4" toJunction="J6" end="240" vehsPerHour="16.066591614298595" departLane="free" arrivalSpeed="0.0"/>
  <flow id="JF36354" begin="180" fromJunction="J4" toJunction="J7" end="240" vehsPerHour="10.534349268408809" departLane="free" arrivalSpeed="0.0"/>
  <flow id="JF36355" begin="180" fromJunction="J5" toJunction="J0" end="240" vehsPerHour="24.712223597188988" departLane="free" arrivalSpeed="0.0"/>
  <flow id="JF36356" begin="180" fromJunction="J5" toJunction="J3" end="240" vehsPerHour="53.47442986452614" departLane="free" arrivalSpeed="0.0"/>
  <flow id="JF36357" begin="180" fromJunction="J5" toJunction="J4" end="240" vehsPerHour="57.82738383968723" departLane="free" arrivalSpeed="0.0"/>
  <flow id="JF36358" begin="180" fromJunction="J6" toJunction="J3" end="240" vehsPerHour="26.34794354754151" departLane="free" arrivalSpeed="0.0"/>
  <flow id="JF36359" begin="180" fromJunction="J6" toJunction="J7" end="240" vehsPerHour="36.85058710715113" departLane="free" arrivalSpeed="0.0"/>
  <flow id="JF36360" begin="180" fromJunction="J7" toJunction="J3" end="240" vehsPerHour="1.719675669431748" departLane="free" arrivalSpeed="0.0"/>
  <flow id="JF36361" begin="180" fromJunction="J7" toJunction="J4" end="240" vehsPerHour="29.410013112819232" departLane="free" arrivalSpeed="0.0"/>
  <flow id="JF36362" begin="180" fromJunction="J7" toJunction="J5" end="240" vehsPerHour="47.49348794261658" departLane="free" arrivalSpeed="0.0"/>
  <flow id="JF36363" begin="180" fromJunction="J7" toJunction="J6" end="240" vehsPerHour="38.08073733717959" departLane="free" arrivalSpeed="0.0"/>
  <flow id="JF36364" begin="240" fromJunction="J0" toJunction="J4" end="300" vehsPerHour="78.02938761052245" departLane="free" arrivalSpeed="0.0"/>
  <flow id="JF36365" begin="240" fromJunction="J0" toJunction="J5" end="300" vehsPerHour="21.62721992706204" departLane="free" arrivalSpeed="0.0"/>
  <flow id="JF36366" begin="240" fromJunction="J0" toJunction="J6" end="300" vehsPerHour="81.95501754623885" departLane="free" arrivalSpeed="0.0"/>
  <flow id="JF36367" begin="240" fromJunction="J0" toJunction="J7" end="300" vehsPerHour="90.62364698881133" departLane="free" arrivalSpeed="0.0"/>
  <flow id="JF36368" begin="240" fromJunction="J3" toJunction="J0" end="300" vehsPerHour="22.2342056577959" departLane="free" arrivalSpeed="0.0"/>
  <flow id="JF36369" begin="240" fromJunction="J3" toJunction="J4" end="300" vehsPerHour="78.72076082493776" departLane="free" arrivalSpeed="0.0"/>
  <flow id="JF36370" begin="240" fromJunction="J3" toJunction="J5" end="300" vehsPerHour="92.65196362074991" departLane="free" arrivalSpeed="0.0"/>
  <flow id="JF36371" begin="240" fromJunction="J3" toJunction="J6" end="300" vehsPerHour="118.3508966977498" departLane="free" arrivalSpeed="0.0"/>
  <flow id="JF36372" begin="240" fromJunction="J3" toJunction="J7" end="300" vehsPerHour="88.17615860336282" departLane="free" arrivalSpeed="0.0"/>
  <flow id="JF36373" begin="240" fromJunction="J4" toJunction="J0" end="300" vehsPerHour="23.49786354953569" departLane="free" arrivalSpeed="0.0"/>
  <flow id="JF36374" begin="240" fromJunction="J4" toJunction="J3" end="300" vehsPerHour="65.76378585888654" departLane="free" arrivalSpeed="0.0"/>
  <flow id="JF36375" begin="240" fromJunction="J4" toJunction="J5" end="300" vehsPerHour="30.74927232074451" departLane="free" arrivalSpeed="0.0"/>
  <flow id="JF36376" begin="240" fromJunction="J4" toJunction="J7" end="300" vehsPerHour="57.00863164624124" departLane="free" arrivalSpeed="0.0"/>
  <flow id="JF36377" begin="240" fromJunction="J5" toJunction="J0" end="300" vehsPerHour="60.83087271479156" departLane="free" arrivalSpeed="0.0"/>
  <flow id="JF36378" begin="240" fromJunction="J5" toJunction="J3" end="300" vehsPerHour="13.512846003231262" departLane="free" arrivalSpeed="0.0"/>
  <flow id="JF36379" begin="240" fromJunction="J5" toJunction="J7" end="300" vehsPerHour="58.398541167933644" departLane="free" arrivalSpeed="0.0"/>
  <flow id="JF36380" begin="240" fromJunction="J6" toJunction="J0" end="300" vehsPerHour="35.7613054597541" departLane="free" arrivalSpeed="0.0"/>
  <flow id="JF36381" begin="240" fromJunction="J6" toJunction="J5" end="300" vehsPerHour="29.65685914566854" departLane="free" arrivalSpeed="0.0"/>
  <flow id="JF36382" begin="240" fromJunction="J6" toJunction="J7" end="300" vehsPerHour="24.338677659261336" departLane="free" arrivalSpeed="0.0"/>
  <flow id="JF36383" begin="240" fromJunction="J7" toJunction="J0" end="300" vehsPerHour="39.577086964368135" departLane="free" arrivalSpeed="0.0"/>
  <flow id="JF36384" begin="240" fromJunction="J7" toJunction="J3" end="300" vehsPerHour="50.73613516026934" departLane="free" arrivalSpeed="0.0"/>
  <flow id="JF36385" begin="240" fromJunction="J7" toJunction="J4" end="300" vehsPerHour="64.3293445455375" departLane="free" arrivalSpeed="0.0"/>
  <flow id="JF36386" begin="240" fromJunction="J7" toJunction="J6" end="300" vehsPerHour="46.31634215069866" departLane="free" arrivalSpeed="0.0"/>
  <flow id="JF36387" begin="300" fromJunction="J0" toJunction="J3" end="360" vehsPerHour="78.63014939311569" departLane="free" arrivalSpeed="0.0"/>
  <flow id="JF36388" begin="300" fromJunction="J0" toJunction="J5" end="360" vehsPerHour="126.02124113235428" departLane="free" arrivalSpeed="0.0"/>
  <flow id="JF36389" begin="300" fromJunction="J0" toJunction="J6" end="360" vehsPerHour="101.62730534379071" departLane="free" arrivalSpeed="0.0"/>
  <flow id="JF36390" begin="300" fromJunction="J0" toJunction="J7" end="360" vehsPerHour="47.23282294976962" departLane="free" arrivalSpeed="0.0"/>
  <flow id="JF36391" begin="300" fromJunction="J3" toJunction="J6" end="360" vehsPerHour="39.361594721385224" departLane="free" arrivalSpeed="0.0"/>
  <flow id="JF36392" begin="300" fromJunction="J3" toJunction="J7" end="360" vehsPerHour="51.21599985963245" departLane="free" arrivalSpeed="0.0"/>
  <flow id="JF36393" begin="300" fromJunction="J5" toJunction="J0" end="360" vehsPerHour="38.38816225605191" departLane="free" arrivalSpeed="0.0"/>
  <flow id="JF36394" begin="300" fromJunction="J5" toJunction="J3" end="360" vehsPerHour="4.371603447071061" departLane="free" arrivalSpeed="0.0"/>
  <flow id="JF36395" begin="300" fromJunction="J6" toJunction="J0" end="360" vehsPerHour="7.7250275307816825" departLane="free" arrivalSpeed="0.0"/>
  <flow id="JF36396" begin="300" fromJunction="J6" toJunction="J3" end="360" vehsPerHour="68.11879079660793" departLane="free" arrivalSpeed="0.0"/>
  <flow id="JF36397" begin="300" fromJunction="J6" toJunction="J4" end="360" vehsPerHour="61.3132357518101" departLane="free" arrivalSpeed="0.0"/>
  <flow id="JF36398" begin="300" fromJunction="J6" toJunction="J5" end="360" vehsPerHour="31.734850776337836" departLane="free" arrivalSpeed="0.0"/>
  <flow id="JF36399" begin="300" fromJunction="J6" toJunction="J7" end="360" vehsPerHour="31.81376529451715" departLane="free" arrivalSpeed="0.0"/>
  <flow id="JF36400" begin="300" fromJunction="J7" toJunction="J0" end="360" vehsPerHour="28.29487631409768" departLane="free" arrivalSpeed="0.0"/>
  <flow id="JF36401" begin="300" fromJunction="J7" toJunction="J3" end="360" vehsPerHour="4.859773843277285" departLane="free" arrivalSpeed="0.0"/>
  <flow id="JF36402" begin="300" fromJunction="J7" toJunction="J5" end="360" vehsPerHour="62.33282583121861" departLane="free" arrivalSpeed="0.0"/>
  <flow id="JF36403" begin="300" fromJunction="J7" toJunction="J6" end="360" vehsPerHour="40.05552881283222" departLane="free" arrivalSpeed="0.0"/>
  <flow id="JF36404" begin="360" fromJunction="J0" toJunction="J4" end="420" vehsPerHour="133.39744755255904" departLane="free" arrivalSpeed="0.0"/>
  <flow id="JF36405" begin="360" fromJunction="J0" toJunction="J5" end="420" vehsPerHour="31.226420210224386" departLane="free" arrivalSpeed="0.0"/>
  <flow id="JF36406" begin="360" fromJunction="J0" toJunction="J6" end="420" vehsPerHour="78.4694041246675" departLane="free" arrivalSpeed="0.0"/>
  <flow id="JF36407" begin="360" fromJunction="J0" toJunction="J7" end="420" vehsPerHour="29.074376585835402" departLane="free" arrivalSpeed="0.0"/>
  <flow id="JF36408" begin="360" fromJunction="J3" toJunction="J0" end="420" vehsPerHour="83.35222954537834" departLane="free" arrivalSpeed="0.0"/>
  <flow id="JF36409" begin="360" fromJunction="J3" toJunction="J5" end="420" vehsPerHour="42.12506542669923" departLane="free" arrivalSpeed="0.0"/>
  <flow id="JF36410" begin="360" fromJunction="J3" toJunction="J6" end="420" vehsPerHour="53.234155194587544" departLane="free" arrivalSpeed="0.0"/>
  <flow id="JF36411" begin="360" fromJunction="J3" toJunction="J7" end="420" vehsPerHour="9.186650424833426" departLane="free" arrivalSpeed="0.0"/>
  <flow id="JF36412" begin="360" fromJunction="J4" toJunction="J0" end="420" vehsPerHour="39.14096974096241" departLane="free" arrivalSpeed="0.0"/>
  <flow id="JF36413" begin="360" fromJunction="J4" toJunction="J3" end="420" vehsPerHour="1.8627336267379162" departLane="free" arrivalSpeed="0.0"/>
  <flow id="JF36414" begin="360" fromJunction="J4" toJunction="J6" end="420" vehsPerHour="15.683087855450221" departLane="free" arrivalSpeed="0.0"/>
  <flow id="JF36415" begin="360" fromJunction="J4" toJunction="J7" end="420" vehsPerHour="67.09438782500489" departLane="free" arrivalSpeed="0.0"/>
  <flow id="JF36416" begin="360" fromJunction="J5" toJunction="J0" end="420" vehsPerHour="12.986972910842844" departLane="free" arrivalSpeed="0.0"/>
  <flow id="JF36417" begin="360" fromJunction="J5" toJunction="J3" end="420" vehsPerHour="11.449983293876482" departLane="free" arrivalSpeed="0.0"/>
  <flow id="JF36418" begin="360" fromJunction="J5" toJunction="J4" end="420" vehsPerHour="15.994123900577971" departLane="free" arrivalSpeed="0.0"/>
  <flow id="JF36419" begin="360" fromJunction="J5" toJunction="J6" end="420" vehsPerHour="56.77527250684441" departLane="free" arrivalSpeed="0.0"/>
  <flow id="JF36420" begin="360" fromJunction="J6" toJunction="J0" end="420" vehsPerHour="4.9455283860944945" departLane="free" arrivalSpeed="0.0"/>
  <flow id="JF36421" begin="360" fromJunction="J6" toJunction="J3" end="420" vehsPerHour="27.769276384521856" departLane="free" arrivalSpeed="0.0"/>
  <flow id="JF36422" begin="360" fromJunction="J6" toJunction="J4" end="420" vehsPerHour="31.505210304101915" departLane="free" arrivalSpeed="0.0"/>
  <flow id="JF36423" begin="360" fromJunction="J6" toJunction="J5" end="420" vehsPerHour="31.460226000284425" departLane="free" arrivalSpeed="0.0"/>
  <flow id="JF36424" begin="360" fromJunction="J6" toJunction="J7" end="420" vehsPerHour="34.333686267717596" departLane="free" arrivalSpeed="0.0"/>
  <flow id="JF36425" begin="360" fromJunction="J7" toJunction="J0" end="420" vehsPerHour="51.79145490003387" departLane="free" arrivalSpeed="0.0"/>
  <flow id="JF36426" begin="360" fromJunction="J7" toJunction="J6" end="420" vehsPerHour="65.16720721129593" departLane="free" arrivalSpeed="0.0"/>
  <flow id="JF36427" begin="420" fromJunction="J0" toJunction="J3" end="480" vehsPerHour="84.32851889620405" departLane="free" arrivalSpeed="0.0"/>
  <flow id="JF36428" begin="420" fromJunction="J0" toJunction="J6" end="480" vehsPerHour="28.880065473872047" departLane="free" arrivalSpeed="0.0"/>
  <flow id="JF36429" begin="420" fromJunction="J0" toJunction="J7" end="480" vehsPerHour="9.408590848242133" departLane="free" arrivalSpeed="0.0"/>
  <flow id="JF36430" begin="420" fromJunction="J3" toJunction="J0" end="480" vehsPerHour="65.05637720641973" departLane="free" arrivalSpeed="0.0"/>
  <flow id="JF36431" begin="420" fromJunction="J3" toJunction="J4" end="480" vehsPerHour="127.39997069584633" departLane="free" arrivalSpeed="0.0"/>
  <flow id="JF36432" begin="420" fromJunction="J3" toJunction="J5" end="480" vehsPerHour="48.893373224651874" departLane="free" arrivalSpeed="0.0"/>
  <flow id="JF36433" begin="420" fromJunction="J3" toJunction="J7" end="480" vehsPerHour="83.25253377518706" departLane="free" arrivalSpeed="0.0"/>
  <flow id="JF36434" begin="420" fromJunction="J4" toJunction="J0" end="480" vehsPerHour="21.533003836819972" departLane="free" arrivalSpeed="0.0"/>
  <flow id="JF36435" begin="420" fromJunction="J4" toJunction="J6" end="480" vehsPerHour="40.12603031113315" departLane="free" arrivalSpeed="0.0"/>
  <flow id="JF36436" begin="420" fromJunction="J4" toJunction="J7" end="480" vehsPerHour="65.08951456290454" departLane="free" arrivalSpeed="0.0"/>
  <flow id="JF36437" begin="420" fromJunction="J5" toJunction="J0" end="480" vehsPerHour="51.18963601084119" departLane="free" arrivalSpeed="0.0"/>
  <flow id="JF36438" begin="420" fromJunction="J5" toJunction="J3" end="480" vehsPerHour="39.146157135633864" departLane="free" arrivalSpeed="0.0"/>
  <flow id="JF36439" begin="420" fromJunction="J5" toJunction="J4" end="480" vehsPerHour="22.303610566394198" departLane="free" arrivalSpeed="0.0"/>
  <flow id="JF36440" begin="420" fromJunction="J5" toJunction="J6" end="480" vehsPerHour="56.226853255026896" departLane="free" arrivalSpeed="0.0"/>
  <flow id="JF36441" begin="420" fromJunction="J5" toJunction="J7" end="480" vehsPerHour="19.34058658561001" departLane="free" arrivalSpeed="0.0"/>
  <flow id="JF36442" begin="420" fromJunction="J6" toJunction="J0" end="480" vehsPerHour="61.83630710016356" departLane="free" arrivalSpeed="0.0"/>
  <flow id="JF36443" begin="420" fromJunction="J6" toJunction="J4" end="480" vehsPerHour="1.70991564852805" departLane="free" arrivalSpeed="0.0"/>
  <flow id="JF36444" begin="420" fromJunction="J6" toJunction="J7" end="480" vehsPerHour="5.145994380857725" departLane="free" arrivalSpeed="0.0"/>
  <flow id="JF36445" begin="420" fromJunction="J7" toJunction="J0" end="480" vehsPerHour="38.552100804918176" departLane="free" arrivalSpeed="0.0"/>
  <flow id="JF36446" begin="420" fromJunction="J7" toJunction="J3" end="480" vehsPerHour="38.13180264811191" departLane="free" arrivalSpeed="0.0"/>
  <flow id="JF36447" begin="420" fromJunction="J7" toJunction="J6" end="480" vehsPerHour="18.314329339585136" departLane="free" arrivalSpeed="0.0"/>
  <flow id="JF36448" begin="480" fromJunction="J0" toJunction="J4" end="540" vehsPerHour="76.58855737133806" departLane="free" arrivalSpeed="0.0"/>
  <flow id="JF36449" begin="480" fromJunction="J0" toJunction="J6" end="540" vehsPerHour="91.0406646339804" departLane="free" arrivalSpeed="0.0"/>
  <flow id="JF36450" begin="480" fromJunction="J0" toJunction="J7" end="540" vehsPerHour="124.58951433917618" departLane="free" arrivalSpeed="0.0"/>
  <flow id="JF36451" begin="480" fromJunction="J3" toJunction="J4" end="540" vehsPerHour="75.2392951521013" departLane="free" arrivalSpeed="0.0"/>
  <flow id="JF36452" begin="480" fromJunction="J3" toJunction="J5" end="540" vehsPerHour="53.60446491153137" departLane="free" arrivalSpeed="0.0"/>
  <flow id="JF36453" begin="480" fromJunction="J3" toJunction="J6" end="540" vehsPerHour="51.209839195458585" departLane="free" arrivalSpeed="0.0"/>
  <flow id="JF36454" begin="480" fromJunction="J3" toJunction="J7" end="540" vehsPerHour="134.68196310708166" departLane="free" arrivalSpeed="0.0"/>
  <flow id="JF36455" begin="480" fromJunction="J4" toJunction="J3" end="540" vehsPerHour="58.00783772834073" departLane="free" arrivalSpeed="0.0"/>
  <flow id="JF36456" begin="480" fromJunction="J4" toJunction="J5" end="540" vehsPerHour="31.51326028049765" departLane="free" arrivalSpeed="0.0"/>
  <flow id="JF36457" begin="480" fromJunction="J4" toJunction="J6" end="540" vehsPerHour="38.01546570597518" departLane="free" arrivalSpeed="0.0"/>
  <flow id="JF36458" begin="480" fromJunction="J4" toJunction="J7" end="540" vehsPerHour="39.094269880043626" departLane="free" arrivalSpeed="0.0"/>
  <flow id="JF36459" begin="480" fromJunction="J5" toJunction="J3" end="540" vehsPerHour="40.467537420355356" departLane="free" arrivalSpeed="0.0"/>
  <flow id="JF36460" begin="480" fromJunction="J5" toJunction="J4" end="540" vehsPerHour="14.585874898364558" departLane="free" arrivalSpeed="0.0"/>
  <flow id="JF36461" begin="480" fromJunction="J5" toJunction="J6" end="540" vehsPerHour="23.968233422154075" departLane="free" arrivalSpeed="0.0"/>
  <flow id="JF36462" begin="480" fromJunction="J5" toJunction="J7" end="540" vehsPerHour="49.141483025975845" departLane="free" arrivalSpeed="0.0"/>
  <flow id="JF36463" begin="480" fromJunction="J6" toJunction="J4" end="540" vehsPerHour="12.27419390171291" departLane="free" arrivalSpeed="0.0"/>
  <flow id="JF36464" begin="480" fromJunction="J6" toJunction="J7" end="540" vehsPerHour="8.738318713222498" departLane="free" arrivalSpeed="0.0"/>
  <flow id="JF36465" begin="480" fromJunction="J7" toJunction="J0" end="540" vehsPerHour="21.7825884188653" departLane="free" arrivalSpeed="0.0"/>
  <flow id="JF36466" begin="480" fromJunction="J7" toJunction="J3" end="540" vehsPerHour="62.18229046069427" departLane="free" arrivalSpeed="0.0"/>
  <flow id="JF36467" begin="480" fromJunction="J7" toJunction="J4" end="540" vehsPerHour="38.43365427931042" departLane="free" arrivalSpeed="0.0"/>
  <flow id="JF36468" begin="540" fromJunction="J0" toJunction="J4" end="600" vehsPerHour="71.13484096560613" departLane="free" arrivalSpeed="0.0"/>
  <flow id="JF36469" begin="540" fromJunction="J0" toJunction="J5" end="600" vehsPerHour="129.69524716572522" departLane="free" arrivalSpeed="0.0"/>
  <flow id="JF36470" begin="540" fromJunction="J0" toJunction="J6" end="600" vehsPerHour="81.45775542086211" departLane="free" arrivalSpeed="0.0"/>
  <flow id="JF36471" begin="540" fromJunction="J0" toJunction="J7" end="600" vehsPerHour="34.201321340941405" departLane="free" arrivalSpeed="0.0"/>
  <flow id="JF36472" begin="540" fromJunction="J3" toJunction="J4" end="600" vehsPerHour="66.26851214059714" departLane="free" arrivalSpeed="0.0"/>
  <flow id="JF36473" begin="540" fromJunction="J3" toJunction="J7" end="600" vehsPerHour="132.0855792023857" departLane="free" arrivalSpeed="0.0"/>
  <flow id="JF36474" begin="540" fromJunction="J4" toJunction="J3" end="600" vehsPerHour="46.848230066097805" departLane="free" arrivalSpeed="0.0"/>
  <flow id="JF36475" begin="540" fromJunction="J4" toJunction="J5" end="600" vehsPerHour="59.021243249092834" departLane="free" arrivalSpeed="0.0"/>
  <flow id="JF36476" begin="540" fromJunction="J4" toJunction="J7" end="600" vehsPerHour="15.880910365888004" departLane="free" arrivalSpeed="0.0"/>
  <flow id="JF36477" begin="540" fromJunction="J5" toJunction="J4" end="600" vehsPerHour="29.963948347661674" departLane="free" arrivalSpeed="0.0"/>
  <flow id="JF36478" begin="540" fromJunction="J6" toJunction="J0" end="600" vehsPerHour="53.93375148063222" departLane="free" arrivalSpeed="0.0"/>
  <flow id="JF36479" begin="540" fromJunction="J6" toJunction="J4" end="600" vehsPerHour="42.817269684180694" departLane="free" arrivalSpeed="0.0"/>
  <flow id="JF36480" begin="540" fromJunction="J7" toJunction="J3" end="600" vehsPerHour="50.545543653956976" departLane="free" arrivalSpeed="0.0"/>