<?xml version="1.0" encoding="UTF-8"?>
<routes xmlns:xsi="http://www.w3.org/2001/XMLSchema-instance" xsi:noNamespaceSchemaLocation="http://sumo.dlr.de/xsd/routes_file.xsd">
  <flow id="JF9742" begin="0" fromJunction="J0" toJunction="J3" end="360" vehsPerHour="11.541137997276138" departLane="free"/>
  <flow id="JF9743" begin="0" fromJunction="J0" toJunction="J4" end="360" vehsPerHour="90.0995424966837" departLane="free"/>
  <flow id="JF9744" begin="0" fromJunction="J0" toJunction="J7" end="360" vehsPerHour="20.73711918693047" departLane="free"/>
  <flow id="JF9745" begin="0" fromJunction="J3" toJunction="J5" end="360" vehsPerHour="5.4564226924596895" departLane="free"/>
  <flow id="JF9746" begin="0" fromJunction="J3" toJunction="J6" end="360" vehsPerHour="26.528730755365427" departLane="free"/>
  <flow id="JF9747" begin="0" fromJunction="J4" toJunction="J3" end="360" vehsPerHour="55.43658909656819" departLane="free"/>
  <flow id="JF9748" begin="0" fromJunction="J4" toJunction="J5" end="360" vehsPerHour="16.170805498218908" departLane="free"/>
  <flow id="JF9749" begin="0" fromJunction="J4" toJunction="J7" end="360" vehsPerHour="21.710714056452307" departLane="free"/>
  <flow id="JF9750" begin="0" fromJunction="J5" toJunction="J3" end="360" vehsPerHour="1.354385159369957" departLane="free"/>
  <flow id="JF9751" begin="0" fromJunction="J5" toJunction="J4" end="360" vehsPerHour="13.34483658865965" departLane="free"/>
  <flow id="JF9752" begin="0" fromJunction="J5" toJunction="J6" end="360" vehsPerHour="50.4864135646919" departLane="free"/>
  <flow id="JF9753" begin="0" fromJunction="J6" toJunction="J0" end="360" vehsPerHour="62.38439889016348" departLane="free"/>
  <flow id="JF9754" begin="0" fromJunction="J6" toJunction="J3" end="360" vehsPerHour="49.61712025449412" departLane="free"/>
  <flow id="JF9755" begin="0" fromJunction="J6" toJunction="J5" end="360" vehsPerHour="17.435378821935927" departLane="free"/>
  <flow id="JF9756" begin="0" fromJunction="J7" toJunction="J3" end="360" vehsPerHour="46.52332210454562" departLane="free"/>
  <flow id="JF9757" begin="0" fromJunction="J7" toJunction="J4" end="360" vehsPerHour="21.86642930680291" departLane="free"/>
  <flow id="JF9758" begin="0" fromJunction="J7" toJunction="J5" end="360" vehsPerHour="60.66195718947798" departLane="free"/>
  <flow id="JF9759" begin="360" fromJunction="J0" toJunction="J5" end="720" vehsPerHour="20.920615344079" departLane="free"/>
  <flow id="JF9760" begin="360" fromJunction="J0" toJunction="J6" end="720" vehsPerHour="92.95739329770201" departLane="free"/>
  <flow id="JF9761" begin="360" fromJunction="J0" toJunction="J7" end="720" vehsPerHour="103.47074925264603" departLane="free"/>
  <flow id="JF9762" begin="360" fromJunction="J3" toJunction="J0" end="720" vehsPerHour="63.197922409184265" departLane="free"/>
  <flow id="JF9763" begin="360" fromJunction="J3" toJunction="J6" end="720" vehsPerHour="60.428614704671915" departLane="free"/>
  <flow id="JF9764" begin="360" fromJunction="J3" toJunction="J7" end="720" vehsPerHour="32.93598855358928" departLane="free"/>
  <flow id="JF9765" begin="360" fromJunction="J4" toJunction="J0" end="720" vehsPerHour="61.92896742312213" departLane="free"/>
  <flow id="JF9766" begin="360" fromJunction="J4" toJunction="J3" end="720" vehsPerHour="43.6001355615596" departLane="free"/>
  <flow id="JF9767" begin="360" fromJunction="J4" toJunction="J5" end="720" vehsPerHour="31.144058401337947" departLane="free"/>
  <flow id="JF9768" begin="360" fromJunction="J4" toJunction="J6" end="720" vehsPerHour="42.55091577402531" departLane="free"/>
  <flow id="JF9769" begin="360" fromJunction="J4" toJunction="J7" end="720" vehsPerHour="57.55105519945738" departLane="free"/>
  <flow id="JF9770" begin="360" fromJunction="J5" toJunction="J0" end="720" vehsPerHour="33.92033996180569" departLane="free"/>
  <flow id="JF9771" begin="360" fromJunction="J5" toJunction="J3" end="720" vehsPerHour="56.23880808631283" departLane="free"/>
  <flow id="JF9772" begin="360" fromJunction="J5" toJunction="J4" end="720" vehsPerHour="64.49098585630024" departLane="free"/>
  <flow id="JF9773" begin="360" fromJunction="J5" toJunction="J6" end="720" vehsPerHour="3.5573585180882312" departLane="free"/>
  <flow id="JF9774" begin="360" fromJunction="J5" toJunction="J7" end="720" vehsPerHour="60.26818658615551" departLane="free"/>
  <flow id="JF9775" begin="360" fromJunction="J6" toJunction="J0" end="720" vehsPerHour="21.861614142228998" departLane="free"/>
  <flow id="JF9776" begin="360" fromJunction="J6" toJunction="J3" end="720" vehsPerHour="0.7807864217131324" departLane="free"/>
  <flow id="JF9777" begin="360" fromJunction="J6" toJunction="J4" end="720" vehsPerHour="35.58784232381167" departLane="free"/>
  <flow id="JF9778" begin="360" fromJunction="J6" toJunction="J7" end="720" vehsPerHour="53.43865381101217" departLane="free"/>
  <flow id="JF9779" begin="360" fromJunction="J7" toJunction="J0" end="720" vehsPerHour="66.02914479574696" departLane="free"/>
  <flow id="JF9780" begin="360" fromJunction="J7" toJunction="J3" end="720" vehsPerHour="45.98967647366022" departLane="free"/>
  <flow id="JF9781" begin="360" fromJunction="J7" toJunction="J4" end="720" vehsPerHour="48.703504449912295" departLane="free"/>
  <flow id="JF9782" begin="360" fromJunction="J7" toJunction="J5" end="720" vehsPerHour="28.862285429777142" departLane="free"/>
  <flow id="JF9783" begin="360" fromJunction="J7" toJunction="J6" end="720" vehsPerHour="31.746562829629084" departLane="free"/>
  <flow id="JF9784" begin="720" fromJunction="J0" toJunction="J4" end="1080" vehsPerHour="97.54355936554488" departLane="free"/>
  <flow id="JF9785" begin="720" fromJunction="J0" toJunction="J6" end="1080" vehsPerHour="25.039539618394222" departLane="free"/>
  <flow id="JF9786" begin="720" fromJunction="J3" toJunction="J4" end="1080" vehsPerHour="41.13941618617624" departLane="free"/>
  <flow id="JF9787" begin="720" fromJunction="J3" toJunction="J6" end="1080" vehsPerHour="38.968603812942135" departLane="free"/>
  <flow id="JF9788" begin="720" fromJunction="J3" toJunction="J7" end="1080" vehsPerHour="59.24583798355523" departLane="free"/>
  <flow id="JF9789" begin="720" fromJunction="J4" toJunction="J3" end="1080" vehsPerHour="41.88376136489393" departLane="free"/>
  <flow id="JF9790" begin="720" fromJunction="J4" toJunction="J5" end="1080" vehsPerHour="36.89978672709856" departLane="free"/>
  <flow id="JF9791" begin="720" fromJunction="J4" toJunction="J6" end="1080" vehsPerHour="48.60653534586058" departLane="free"/>
  <flow id="JF9792" begin="720" fromJunction="J4" toJunction="J7" end="1080" vehsPerHour="28.41199607665159" departLane="free"/>
  <flow id="JF9793" begin="720" fromJunction="J5" toJunction="J0" end="1080" vehsPerHour="27.52356219629751" departLane="free"/>
  <flow id="JF9794" begin="720" fromJunction="J5" toJunction="J4" end="1080" vehsPerHour="17.134114512869207" departLane="free"/>
  <flow id="JF9795" begin="720" fromJunction="J5" toJunction="J7" end="1080" vehsPerHour="42.470011747339974" departLane="free"/>
  <flow id="JF9796" begin="720" fromJunction="J6" toJunction="J0" end="1080" vehsPerHour="54.9466097863936" departLane="free"/>
  <flow id="JF9797" begin="720" fromJunction="J6" toJunction="J3" end="1080" vehsPerHour="37.637786489610065" departLane="free"/>
  <flow id="JF9798" begin="720" fromJunction="J6" toJunction="J5" end="1080" vehsPerHour="0.6640234389213682" departLane="free"/>
  <flow id="JF9799" begin="720" fromJunction="J6" toJunction="J7" end="1080" vehsPerHour="44.76820311921542" departLane="free"/>
  <flow id="JF9800" begin="720" fromJunction="J7" toJunction="J0" end="1080" vehsPerHour="43.5154908433374" departLane="free"/>
  <flow id="JF9801" begin="720" fromJunction="J7" toJunction="J5" end="1080" vehsPerHour="61.30021942670271" departLane="free"/>
  <flow id="JF9802" begin="720" fromJunction="J7" toJunction="J6" end="1080" vehsPerHour="33.35449161092329" departLane="free"/>
  <flow id="JF9803" begin="1080" fromJunction="J0" toJunction="J3" end="1440" vehsPerHour="81.88244060036865" departLane="free"/>
  <flow id="JF9804" begin="1080" fromJunction="J0" toJunction="J4" end="1440" vehsPerHour="80.2982422252747" departLane="free"/>
  <flow id="JF9805" begin="1080" fromJunction="J0" toJunction="J6" end="1440" vehsPerHour="69.23034687714701" departLane="free"/>
  <flow id="JF9806" begin="1080" fromJunction="J0" toJunction="J7" end="1440" vehsPerHour="130.72628487763185" departLane="free"/>
  <flow id="JF9807" begin="1080" fromJunction="J3" toJunction="J0" end="1440" vehsPerHour="75.56386434380819" departLane="free"/>
  <flow id="JF9808" begin="1080" fromJunction="J3" toJunction="J4" end="1440" vehsPerHour="21.68654303968631" departLane="free"/>
  <flow id="JF9809" begin="1080" fromJunction="J3" toJunction="J5" end="1440" vehsPerHour="32.774008182521456" departLane="free"/>
  <flow id="JF9810" begin="1080" fromJunction="J3" toJunction="J7" end="1440" vehsPerHour="12.47377693950128" departLane="free"/>
  <flow id="JF9811" begin="1080" fromJunction="J4" toJunction="J0" end="1440" vehsPerHour="30.923512698944364" departLane="free"/>
  <flow id="JF9812" begin="1080" fromJunction="J4" toJunction="J3" end="1440" vehsPerHour="29.730181947221027" departLane="free"/>
  <flow id="JF9813" begin="1080" fromJunction="J4" toJunction="J5" end="1440" vehsPerHour="41.94077516967285" departLane="free"/>
  <flow id="JF9814" begin="1080" fromJunction="J4" toJunction="J7" end="1440" vehsPerHour="62.59568636741033" departLane="free"/>
  <flow id="JF9815" begin="1080" fromJunction="J5" toJunction="J4" end="1440" vehsPerHour="35.75389132842171" departLane="free"/>
  <flow id="JF9816" begin="1080" fromJunction="J5" toJunction="J6" end="1440" vehsPerHour="31.09168699127905" departLane="free"/>
  <flow id="JF9817" begin="1080" fromJunction="J6" toJunction="J3" end="1440" vehsPerHour="4.76067797758687" departLane="free"/>
  <flow id="JF9818" begin="1080" fromJunction="J6" toJunction="J4" end="1440" vehsPerHour="62.39677606578647" departLane="free"/>
  <flow id="JF9819" begin="1080" fromJunction="J6" toJunction="J5" end="1440" vehsPerHour="30.026854561630657" departLane="free"/>
  <flow id="JF9820" begin="1080" fromJunction="J7" toJunction="J0" end="1440" vehsPerHour="53.510069344737396" departLane="free"/>
  <flow id="JF9821" begin="1080" fromJunction="J7" toJunction="J3" end="1440" vehsPerHour="22.35880876792127" departLane="free"/>
  <flow id="JF9822" begin="1080" fromJunction="J7" toJunction="J4" end="1440" vehsPerHour="44.627751493775556" departLane="free"/>
  <flow id="JF9823" begin="1080" fromJunction="J7" toJunction="J5" end="1440" vehsPerHour="13.363927706221146" departLane="free"/>
  <flow id="JF9824" begin="1440" fromJunction="J0" toJunction="J4" end="1800" vehsPerHour="136.7641442985935" departLane="free"/>
  <flow id="JF9825" begin="1440" fromJunction="J0" toJunction="J5" end="1800" vehsPerHour="15.15009774982086" departLane="free"/>
  <flow id="JF9826" begin="1440" fromJunction="J0" toJunction="J7" end="1800" vehsPerHour="104.87068318333476" departLane="free"/>
  <flow id="JF9827" begin="1440" fromJunction="J3" toJunction="J0" end="1800" vehsPerHour="80.72561750104838" departLane="free"/>
  <flow id="JF9828" begin="1440" fromJunction="J3" toJunction="J5" end="1800" vehsPerHour="105.35430144454125" departLane="free"/>
  <flow id="JF9829" begin="1440" fromJunction="J3" toJunction="J6" end="1800" vehsPerHour="99.68306680865595" departLane="free"/>
  <flow id="JF9830" begin="1440" fromJunction="J4" toJunction="J5" end="1800" vehsPerHour="34.50639130346783" departLane="free"/>
  <flow id="JF9831" begin="1440" fromJunction="J4" toJunction="J7" end="1800" vehsPerHour="43.20798226500015" departLane="free"/>
  <flow id="JF9832" begin="1440" fromJunction="J5" toJunction="J4" end="1800" vehsPerHour="56.21972795849501" departLane="free"/>
  <flow id="JF9833" begin="1440" fromJunction="J5" toJunction="J6" end="1800" vehsPerHour="23.417659072291276" departLane="free"/>
  <flow id="JF9834" begin="1440" fromJunction="J5" toJunction="J7" end="1800" vehsPerHour="37.45336605041567" departLane="free"/>
  <flow id="JF9835" begin="1440" fromJunction="J6" toJunction="J0" end="1800" vehsPerHour="12.895228115432614" departLane="free"/>
  <flow id="JF9836" begin="1440" fromJunction="J6" toJunction="J3" end="1800" vehsPerHour="17.48177570247126" departLane="free"/>
  <flow id="JF9837" begin="1440" fromJunction="J6" toJunction="J4" end="1800" vehsPerHour="1.4823046503617558" departLane="free"/>
  <flow id="JF9838" begin="1440" fromJunction="J6" toJunction="J5" end="1800" vehsPerHour="58.75839691699181" departLane="free"/>
  <flow id="JF9839" begin="1440" fromJunction="J7" toJunction="J0" end="1800" vehsPerHour="57.8702618392539" departLane="free"/>
  <flow id="JF9840" begin="1440" fromJunction="J7" toJunction="J4" end="1800" vehsPerHour="36.323929643212814" departLane="free"/>
  <flow id="JF9841" begin="1440" fromJunction="J7" toJunction="J5" end="1800" vehsPerHour="41.36940865454539" departLane="free"/>
  <flow id="JF9842" begin="1440" fromJunction="J7" toJunction="J6" end="1800" vehsPerHour="42.424150635885304" departLane="free"/>
  <flow id="JF9843" begin="1800" fromJunction="J0" toJunction="J3" end="2160" vehsPerHour="65.34850658189262" departLane="free"/>
  <flow id="JF9844" begin="1800" fromJunction="J0" toJunction="J4" end="2160" vehsPerHour="98.11794627162152" departLane="free"/>
  <flow id="JF9845" begin="1800" fromJunction="J0" toJunction="J5" end="2160" vehsPerHour="132.52522397352394" departLane="free"/>
  <flow id="JF9846" begin="1800" fromJunction="J0" toJunction="J6" end="2160" vehsPerHour="121.86378664268028" departLane="free"/>
  <flow id="JF9847" begin="1800" fromJunction="J0" toJunction="J7" end="2160" vehsPerHour="46.41846873106593" departLane="free"/>
  <flow id="JF9848" begin="1800" fromJunction="J3" toJunction="J0" end="2160" vehsPerHour="128.74846510903768" departLane="free"/>
  <flow id="JF9849" begin="1800" fromJunction="J3" toJunction="J5" end="2160" vehsPerHour="72.25533804684132" departLane="free"/>
  <flow id="JF9850" begin="1800" fromJunction="J3" toJunction="J6" end="2160" vehsPerHour="56.37126060521873" departLane="free"/>
  <flow id="JF9851" begin="1800" fromJunction="J4" toJunction="J0" end="2160" vehsPerHour="0.2118235573251187" departLane="free"/>
  <flow id="JF9852" begin="1800" fromJunction="J4" toJunction="J3" end="2160" vehsPerHour="11.680785694261056" departLane="free"/>
  <flow id="JF9853" begin="1800" fromJunction="J4" toJunction="J7" end="2160" vehsPerHour="23.99044049906207" departLane="free"/>
  <flow id="JF9854" begin="1800" fromJunction="J5" toJunction="J3" end="2160" vehsPerHour="60.709976578291034" departLane="free"/>
  <flow id="JF9855" begin="1800" fromJunction="J5" toJunction="J4" end="2160" vehsPerHour="60.423128464470764" departLane="free"/>
  <flow id="JF9856" begin="1800" fromJunction="J5" toJunction="J6" end="2160" vehsPerHour="65.94778374016815" departLane="free"/>
  <flow id="JF9857" begin="1800" fromJunction="J5" toJunction="J7" end="2160" vehsPerHour="62.18363481597539" departLane="free"/>
  <flow id="JF9858" begin="1800" fromJunction="J6" toJunction="J0" end="2160" vehsPerHour="21.519538406870062" departLane="free"/>
  <flow id="JF9859" begin="1800" fromJunction="J6" toJunction="J3" end="2160" vehsPerHour="61.38436638819185" departLane="free"/>
  <flow id="JF9860" begin="1800" fromJunction="J6" toJunction="J4" end="2160" vehsPerHour="11.543898214132337" departLane="free"/>
  <flow id="JF9861" begin="1800" fromJunction="J6" toJunction="J5" end="2160" vehsPerHour="13.04494801298359" departLane="free"/>
  <flow id="JF9862" begin="1800" fromJunction="J7" toJunction="J0" end="2160" vehsPerHour="13.865089836528496" departLane="free"/>
  <flow id="JF9863" begin="1800" fromJunction="J7" toJunction="J3" end="2160" vehsPerHour="47.27040085977179" departLane="free"/>
  <flow id="JF9864" begin="1800" fromJunction="J7" toJunction="J4" end="2160" vehsPerHour="21.928564043766663" departLane="free"/>
  <flow id="JF9865" begin="1800" fromJunction="J7" toJunction="J5" end="2160" vehsPerHour="40.83736480126875" departLane="free"/>
  <flow id="JF9866" begin="2160" fromJunction="J0" toJunction="J3" end="2520" vehsPerHour="55.982078363319786" departLane="free"/>
  <flow id="JF9867" begin="2160" fromJunction="J0" toJunction="J4" end="2520" vehsPerHour="1.8663012731432085" departLane="free"/>
  <flow id="JF9868" begin="2160" fromJunction="J0" toJunction="J5" end="2520" vehsPerHour="89.22857729888439" departLane="free"/>
  <flow id="JF9869" begin="2160" fromJunction="J0" toJunction="J7" end="2520" vehsPerHour="28.961308031990498" departLane="free"/>
  <flow id="JF9870" begin="2160" fromJunction="J3" toJunction="J0" end="2520" vehsPerHour="112.3219342183594" departLane="free"/>
  <flow id="JF9871" begin="2160" fromJunction="J3" toJunction="J4" end="2520" vehsPerHour="29.148708043483722" departLane="free"/>
  <flow id="JF9872" begin="2160" fromJunction="J3" toJunction="J5" end="2520" vehsPerHour="22.299523546279183" departLane="free"/>
  <flow id="JF9873" begin="2160" fromJunction="J3" toJunction="J7" end="2520" vehsPerHour="47.33633871623054" departLane="free"/>
  <flow id="JF9874" begin="2160" fromJunction="J4" toJunction="J3" end="2520" vehsPerHour="2.9212792292270136" departLane="free"/>
  <flow id="JF9875" begin="2160" fromJunction="J4" toJunction="J5" end="2520" vehsPerHour="62.73702721931314" departLane="free"/>
  <flow id="JF9876" begin="2160" fromJunction="J4" toJunction="J6" end="2520" vehsPerHour="4.919140784801083" departLane="free"/>
  <flow id="JF9877" begin="2160" fromJunction="J4" toJunction="J7" end="2520" vehsPerHour="59.108687204113515" departLane="free"/>
  <flow id="JF9878" begin="2160" fromJunction="J5" toJunction="J0" end="2520" vehsPerHour="43.89064574651677" departLane="free"/>
  <flow id="JF9879" begin="2160" fromJunction="J5" toJunction="J3" end="2520" vehsPerHour="26.419775244659153" departLane="free"/>
  <flow id="JF9880" begin="2160" fromJunction="J5" toJunction="J4" end="2520" vehsPerHour="25.781705432629337" departLane="free"/>
  <flow id="JF9881" begin="2160" fromJunction="J5" toJunction="J6" end="2520" vehsPerHour="8.41773368905324" departLane="free"/>
  <flow id="JF9882" begin="2160" fromJunction="J5" toJunction="J7" end="2520" vehsPerHour="41.33044716702637" departLane="free"/>
  <flow id="JF9883" begin="2160" fromJunction="J6" toJunction="J0" end="2520" vehsPerHour="37.942246281991586" departLane="free"/>
  <flow id="JF9884" begin="2160" fromJunction="J6" toJunction="J3" end="2520" vehsPerHour="55.28407477499972" departLane="free"/>
  <flow id="JF9885" begin="2160" fromJunction="J6" toJunction="J5" end="2520" vehsPerHour="19.50628795816407" departLane="free"/>
  <flow id="JF9886" begin="2160" fromJunction="J6" toJunction="J7" end="2520" vehsPerHour="30.129336423644297" departLane="free"/>
  <flow id="JF9887" begin="2160" fromJunction="J7" toJunction="J0" end="2520" vehsPerHour="64.99923120541487" departLane="free"/>
  <flow id="JF9888" begin="2160" fromJunction="J7" toJunction="J3" end="2520" vehsPerHour="51.77399497972776" departLane="free"/>
  <flow id="JF9889" begin="2160" fromJunction="J7" toJunction="J5" end="2520" vehsPerHour="35.988375318258605" departLane="free"/>
  <flow id="JF9890" begin="2160" fromJunction="J7" toJunction="J6" end="2520" vehsPerHour="14.53185435370244" departLane="free"/>
  <flow id="JF9891" begin="2520" fromJunction="J0" toJunction="J5" end="2880" vehsPerHour="29.038089361758775" departLane="free"/>
  <flow id="JF9892" begin="2520" fromJunction="J0" toJunction="J7" end="2880" vehsPerHour="94.14861121235401" departLane="free"/>
  <flow id="JF9893" begin="2520" fromJunction="J3" toJunction="J0" end="2880" vehsPerHour="35.1817260957626" departLane="free"/>
  <flow id="JF9894" begin="2520" fromJunction="J3" toJunction="J4" end="2880" vehsPerHour="81.30725356618203" departLane="free"/>
  <flow id="JF9895" begin="2520" fromJunction="J3" toJunction="J5" end="2880" vehsPerHour="44.94479744346423" departLane="free"/>
  <flow id="JF9896" begin="2520" fromJunction="J3" toJunction="J6" end="2880" vehsPerHour="18.067984938585578" departLane="free"/>
  <flow id="JF9897" begin="2520" fromJunction="J3" toJunction="J7" end="2880" vehsPerHour="110.61036660683823" departLane="free"/>
  <flow id="JF9898" begin="2520" fromJunction="J4" toJunction="J0" end="2880" vehsPerHour="22.3702433798582" departLane="free"/>
  <flow id="JF9899" begin="2520" fromJunction="J4" toJunction="J5" end="2880" vehsPerHour="41.23907843604985" departLane="free"/>
  <flow id="JF9900" begin="2520" fromJunction="J4" toJunction="J7" end="2880" vehsPerHour="18.753080690539402" departLane="free"/>
  <flow id="JF9901" begin="2520" fromJunction="J5" toJunction="J4" end="2880" vehsPerHour="35.39871163913314" departLane="free"/>
  <flow id="JF9902" begin="2520" fromJunction="J5" toJunction="J7" end="2880" vehsPerHour="47.3659029347813" departLane="free"/>
  <flow id="JF9903" begin="2520" fromJunction="J6" toJunction="J3" end="2880" vehsPerHour="33.78209505805388" departLane="free"/>
  <flow id="JF9904" begin="2520" fromJunction="J6" toJunction="J4" end="2880" vehsPerHour="18.633833021702646" departLane="free"/>
  <flow id="JF9905" begin="2520" fromJunction="J6" toJunction="J5" end="2880" vehsPerHour="25.47649439265856" departLane="free"/>
  <flow id="JF9906" begin="2520" fromJunction="J6" toJunction="J7" end="2880" vehsPerHour="17.40460367735973" departLane="free"/>
  <flow id="JF9907" begin="2520" fromJunction="J7" toJunction="J0" end="2880" vehsPerHour="12.456575504262315" departLane="free"/>
  <flow id="JF9908" begin="2520" fromJunction="J7" toJunction="J3" end="2880" vehsPerHour="20.15310368294073" departLane="free"/>
  <flow id="JF9909" begin="2520" fromJunction="J7" toJunction="J4" end="2880" vehsPerHour="23.02617609851048" departLane="free"/>
  <flow id="JF9910" begin="2520" fromJunction="J7" toJunction="J5" end="2880" vehsPerHour="28.073027139209653" departLane="free"/>
  <flow id="JF9911" begin="2520" fromJunction="J7" toJunction="J6" end="2880" vehsPerHour="45.01214078654486" departLane="free"/>
  <flow id="JF9912" begin="2880" fromJunction="J0" toJunction="J3" end="3240" vehsPerHour="87.6672520854751" departLane="free"/>
  <flow id="JF9913" begin="2880" fromJunction="J0" toJunction="J5" end="3240" vehsPerHour="117.59589928762414" departLane="free"/>
  <flow id="JF9914" begin="2880" fromJunction="J0" toJunction="J6" end="3240" vehsPerHour="136.5954648296587" departLane="free"/>
  <flow id="JF9915" begin="2880" fromJunction="J0" toJunction="J7" end="3240" vehsPerHour="126.93397358061101" departLane="free"/>
  <flow id="JF9916" begin="2880" fromJunction="J3" toJunction="J0" end="3240" vehsPerHour="5.719105815954284" departLane="free"/>
  <flow id="JF9917" begin="2880" fromJunction="J3" toJunction="J4" end="3240" vehsPerHour="115.68959715663134" departLane="free"/>
  <flow id="JF9918" begin="2880" fromJunction="J3" toJunction="J7" end="3240" vehsPerHour="70.12796986904168" departLane="free"/>
  <flow id="JF9919" begin="2880" fromJunction="J4" toJunction="J3" end="3240" vehsPerHour="29.338811146368872" departLane="free"/>
  <flow id="JF9920" begin="2880" fromJunction="J4" toJunction="J5" end="3240" vehsPerHour="68.53742395689221" departLane="free"/>
  <flow id="JF9921" begin="2880" fromJunction="J4" toJunction="J6" end="3240" vehsPerHour="44.40842400991355" departLane="free"/>
  <flow id="JF9922" begin="2880" fromJunction="J4" toJunction="J7" end="3240" vehsPerHour="45.3034206998504" departLane="free"/>
  <flow id="JF9923" begin="2880" fromJunction="J5" toJunction="J3" end="3240" vehsPerHour="37.28135327796007" departLane="free"/>
  <flow id="JF9924" begin="2880" fromJunction="J5" toJunction="J4" end="3240" vehsPerHour="46.179653490311416" departLane="free"/>
  <flow id="JF9925" begin="2880" fromJunction="J5" toJunction="J6" end="3240" vehsPerHour="7.671752538968965" departLane="free"/>
  <flow id="JF9926" begin="2880" fromJunction="J5" toJunction="J7" end="3240" vehsPerHour="29.597731850550698" departLane="free"/>
  <flow id="JF9927" begin="2880" fromJunction="J6" toJunction="J0" end="3240" vehsPerHour="27.090523779221552" departLane="free"/>
  <flow id="JF9928" begin="2880" fromJunction="J6" toJunction="J3" end="3240" vehsPerHour="23.681893820142815" departLane="free"/>
  <flow id="JF9929" begin="2880" fromJunction="J6" toJunction="J5" end="3240" vehsPerHour="28.2958454965776" departLane="free"/>
  <flow id="JF9930" begin="2880" fromJunction="J6" toJunction="J7" end="3240" vehsPerHour="12.092846926050717" departLane="free"/>
  <flow id="JF9931" begin="2880" fromJunction="J7" toJunction="J0" end="3240" vehsPerHour="5.649408750359913" departLane="free"/>
  <flow id="JF9932" begin="2880" fromJunction="J7" toJunction="J3" end="3240" vehsPerHour="34.75879945144339" departLane="free"/>
  <flow id="JF9933" begin="2880" fromJunction="J7" toJunction="J4" end="3240" vehsPerHour="57.01883914549142" departLane="free"/>
  <flow id="JF9934" begin="2880" fromJunction="J7" toJunction="J6" end="3240" vehsPerHour="41.37353555135134" departLane="free"/>
  <flow id="JF9935" begin="3240" fromJunction="J0" toJunction="J3" end="3600" vehsPerHour="101.91172754325574" departLane="free"/>
  <flow id="JF9936" begin="3240" fromJunction="J0" toJunction="J4" end="3600" vehsPerHour="90.36587529401682" departLane="free"/>
  <flow id="JF9937" begin="3240" fromJunction="J0" toJunction="J5" end="3600" vehsPerHour="105.8260305747954" departLane="free"/>
  <flow id="JF9938" begin="3240" fromJunction="J0" toJunction="J6" end="3600" vehsPerHour="133.5695044133304" departLane="free"/>
  <flow id="JF9939" begin="3240" fromJunction="J0" toJunction="J7" end="3600" vehsPerHour="108.08673544873542" departLane="free"/>
  <flow id="JF9940" begin="3240" fromJunction="J3" toJunction="J4" end="3600" vehsPerHour="26.675317665805373" departLane="free"/>
  <flow id="JF9941" begin="3240" fromJunction="J3" toJunction="J7" end="3600" vehsPerHour="20.150732636396675" departLane="free"/>
  <flow id="JF9942" begin="3240" fromJunction="J4" toJunction="J0" end="3600" vehsPerHour="47.0980626612253" departLane="free"/>
  <flow id="JF9943" begin="3240" fromJunction="J4" toJunction="J3" end="3600" vehsPerHour="2.575265442612193" departLane="free"/>
  <flow id="JF9944" begin="3240" fromJunction="J4" toJunction="J5" end="3600" vehsPerHour="57.97213743789025" departLane="free"/>
  <flow id="JF9945" begin="3240" fromJunction="J4" toJunction="J6" end="3600" vehsPerHour="32.90831167286111" departLane="free"/>
  <flow id="JF9946" begin="3240" fromJunction="J4" toJunction="J7" end="3600" vehsPerHour="46.99715652857165" departLane="free"/>
  <flow id="JF9947" begin="3240" fromJunction="J5" toJunction="J0" end="3600" vehsPerHour="11.064812357439866" departLane="free"/>
  <flow id="JF9948" begin="3240" fromJunction="J5" toJunction="J6" end="3600" vehsPerHour="37.459923704533466" departLane="free"/>
  <flow id="JF9949" begin="3240" fromJunction="J6" toJunction="J3" end="3600" vehsPerHour="35.26499936207784" departLane="free"/>
  <flow id="JF9950" begin="3240" fromJunction="J7" toJunction="J0" end="3600" vehsPerHour="19.193981077859576" departLane="free"/>
  <flow id="JF9951" begin="3240" fromJunction="J7" toJunction="J4" end="3600" vehsPerHour="63.69001608970142" departLane="free"/>
  <flow id="JF9952" begin="3240" fromJunction="J7" toJunction="J5" end="3600" vehsPerHour="24.517039918499826" departLane="free"/>
  <flow id="JF9953" begin="3240" fromJunction="J7" toJunction="J6" end="3600" vehsPerHour="32.95971787456865" departLane="free"/>
  <flow id="JF9954" begin="3600" fromJunction="J0" toJunction="J3" end="3960" vehsPerHour="106.6833377074619" departLane="free"/>
  <flow id="JF9955" begin="3600" fromJunction="J0" toJunction="J4" end="3960" vehsPerHour="115.56545435680582" departLane="free"/>
  <flow id="JF9956" begin="3600" fromJunction="J0" toJunction="J5" end="3960" vehsPerHour="30.147479236394176" departLane="free"/>
  <flow id="JF9957" begin="3600" fromJunction="J0" toJunction="J7" end="3960" vehsPerHour="74.55965061397185" departLane="free"/>
  <flow id="JF9958" begin="3600" fromJunction="J3" toJunction="J0" end="3960" vehsPerHour="115.98231216241535" departLane="free"/>
  <flow id="JF9959" begin="3600" fromJunction="J3" toJunction="J4" end="3960" vehsPerHour="58.98684288938118" departLane="free"/>
  <flow id="JF9960" begin="3600" fromJunction="J3" toJunction="J6" end="3960" vehsPerHour="132.98621395084197" departLane="free"/>
  <flow id="JF9961" begin="3600" fromJunction="J3" toJunction="J7" end="3960" vehsPerHour="0.025896727093903473" departLane="free"/>
  <flow id="JF9962" begin="3600" fromJunction="J4" toJunction="J0" end="3960" vehsPerHour="48.421772315670246" departLane="free"/>
  <flow id="JF9963" begin="3600" fromJunction="J4" toJunction="J3" end="3960" vehsPerHour="23.879504441117305" departLane="free"/>
  <flow id="JF9964" begin="3600" fromJunction="J4" toJunction="J5" end="3960" vehsPerHour="58.76231640406674" departLane="free"/>
  <flow id="JF9965" begin="3600" fromJunction="J4" toJunction="J6" end="3960" vehsPerHour="46.801566765518565" departLane="free"/>
  <flow id="JF9966" begin="3600" fromJunction="J4" toJunction="J7" end="3960" vehsPerHour="18.366437895863477" departLane="free"/>
  <flow id="JF9967" begin="3600" fromJunction="J5" toJunction="J0" end="3960" vehsPerHour="2.6130655606732853" departLane="free"/>
  <flow id="JF9968" begin="3600" fromJunction="J5" toJunction="J3" end="3960" vehsPerHour="30.10345757282359" departLane="free"/>
  <flow id="JF9969" begin="3600" fromJunction="J5" toJunction="J4" end="3960" vehsPerHour="40.819840813376146" departLane="free"/>
  <flow id="JF9970" begin="3600" fromJunction="J5" toJunction="J6" end="3960" vehsPerHour="59.30681335440964" departLane="free"/>