<?xml version="1.0" encoding="UTF-8"?>
<routes xmlns:xsi="http://www.w3.org/2001/XMLSchema-instance" xsi:noNamespaceSchemaLocation="http://sumo.dlr.de/xsd/routes_file.xsd">
  <flow id="JF233415" begin="0" fromJunction="J0" toJunction="J3" end="60" vehsPerHour="49.72836617045266" departLane="free"/>
  <flow id="JF233416" begin="0" fromJunction="J0" toJunction="J4" end="60" vehsPerHour="66.86236819664781" departLane="free"/>
  <flow id="JF233417" begin="0" fromJunction="J0" toJunction="J5" end="60" vehsPerHour="78.64894672423638" departLane="free"/>
  <flow id="JF233418" begin="0" fromJunction="J0" toJunction="J6" end="60" vehsPerHour="28.770616373563165" departLane="free"/>
  <flow id="JF233419" begin="0" fromJunction="J3" toJunction="J0" end="60" vehsPerHour="55.3230001995583" departLane="free"/>
  <flow id="JF233420" begin="0" fromJunction="J3" toJunction="J4" end="60" vehsPerHour="95.7026970162932" departLane="free"/>
  <flow id="JF233421" begin="0" fromJunction="J3" toJunction="J5" end="60" vehsPerHour="37.508293500073286" departLane="free"/>
  <flow id="JF233422" begin="0" fromJunction="J3" toJunction="J6" end="60" vehsPerHour="15.058871556326006" departLane="free"/>
  <flow id="JF233423" begin="0" fromJunction="J3" toJunction="J7" end="60" vehsPerHour="95.71573265443564" departLane="free"/>
  <flow id="JF233424" begin="0" fromJunction="J4" toJunction="J0" end="60" vehsPerHour="40.65653866476516" departLane="free"/>
  <flow id="JF233425" begin="0" fromJunction="J4" toJunction="J5" end="60" vehsPerHour="63.5155874323593" departLane="free"/>
  <flow id="JF233426" begin="0" fromJunction="J4" toJunction="J7" end="60" vehsPerHour="50.881032445290245" departLane="free"/>
  <flow id="JF233427" begin="0" fromJunction="J5" toJunction="J0" end="60" vehsPerHour="0.41560758521984376" departLane="free"/>
  <flow id="JF233428" begin="0" fromJunction="J5" toJunction="J3" end="60" vehsPerHour="54.023028252928064" departLane="free"/>
  <flow id="JF233429" begin="0" fromJunction="J5" toJunction="J4" end="60" vehsPerHour="64.46787206742988" departLane="free"/>
  <flow id="JF233430" begin="0" fromJunction="J5" toJunction="J6" end="60" vehsPerHour="34.219708809892616" departLane="free"/>
  <flow id="JF233431" begin="0" fromJunction="J5" toJunction="J7" end="60" vehsPerHour="7.783969550223763" departLane="free"/>
  <flow id="JF233432" begin="0" fromJunction="J6" toJunction="J0" end="60" vehsPerHour="38.98399284806035" departLane="free"/>
  <flow id="JF233433" begin="0" fromJunction="J6" toJunction="J3" end="60" vehsPerHour="48.63594813413571" departLane="free"/>
  <flow id="JF233434" begin="0" fromJunction="J6" toJunction="J5" end="60" vehsPerHour="18.510390283070073" departLane="free"/>
  <flow id="JF233435" begin="0" fromJunction="J6" toJunction="J7" end="60" vehsPerHour="22.212947374227916" departLane="free"/>
  <flow id="JF233436" begin="0" fromJunction="J7" toJunction="J0" end="60" vehsPerHour="29.21672322732772" departLane="free"/>
  <flow id="JF233437" begin="0" fromJunction="J7" toJunction="J3" end="60" vehsPerHour="54.843259020540515" departLane="free"/>
  <flow id="JF233438" begin="0" fromJunction="J7" toJunction="J4" end="60" vehsPerHour="0.7286329626306007" departLane="free"/>
  <flow id="JF233439" begin="0" fromJunction="J7" toJunction="J5" end="60" vehsPerHour="62.033793095049504" departLane="free"/>
  <flow id="JF233440" begin="0" fromJunction="J7" toJunction="J6" end="60" vehsPerHour="35.04214853932442" departLane="free"/>
  <flow id="JF233441" begin="60" fromJunction="J0" toJunction="J3" end="120" vehsPerHour="96.38369975335894" departLane="free"/>
  <flow id="JF233442" begin="60" fromJunction="J0" toJunction="J4" end="120" vehsPerHour="76.61948413894415" departLane="free"/>
  <flow id="JF233443" begin="60" fromJunction="J0" toJunction="J5" end="120" vehsPerHour="111.71987049289487" departLane="free"/>
  <flow id="JF233444" begin="60" fromJunction="J0" toJunction="J6" end="120" vehsPerHour="33.19764274331949" departLane="free"/>
  <flow id="JF233445" begin="60" fromJunction="J0" toJunction="J7" end="120" vehsPerHour="14.861255316460355" departLane="free"/>
  <flow id="JF233446" begin="60" fromJunction="J3" toJunction="J4" end="120" vehsPerHour="117.45662852332171" departLane="free"/>
  <flow id="JF233447" begin="60" fromJunction="J3" toJunction="J5" end="120" vehsPerHour="70.03699202169639" departLane="free"/>
  <flow id="JF233448" begin="60" fromJunction="J3" toJunction="J6" end="120" vehsPerHour="78.0296796732225" departLane="free"/>
  <flow id="JF233449" begin="60" fromJunction="J4" toJunction="J3" end="120" vehsPerHour="30.383453387076738" departLane="free"/>
  <flow id="JF233450" begin="60" fromJunction="J4" toJunction="J7" end="120" vehsPerHour="59.363373534406" departLane="free"/>
  <flow id="JF233451" begin="60" fromJunction="J5" toJunction="J0" end="120" vehsPerHour="35.54849868258939" departLane="free"/>
  <flow id="JF233452" begin="60" fromJunction="J5" toJunction="J3" end="120" vehsPerHour="28.22184775525733" departLane="free"/>
  <flow id="JF233453" begin="60" fromJunction="J5" toJunction="J4" end="120" vehsPerHour="26.99183360811609" departLane="free"/>
  <flow id="JF233454" begin="60" fromJunction="J6" toJunction="J5" end="120" vehsPerHour="68.15453697560122" departLane="free"/>
  <flow id="JF233455" begin="60" fromJunction="J6" toJunction="J7" end="120" vehsPerHour="63.9755840366055" departLane="free"/>
  <flow id="JF233456" begin="60" fromJunction="J7" toJunction="J0" end="120" vehsPerHour="61.55376784919836" departLane="free"/>
  <flow id="JF233457" begin="60" fromJunction="J7" toJunction="J3" end="120" vehsPerHour="5.5725770585116" departLane="free"/>
  <flow id="JF233458" begin="60" fromJunction="J7" toJunction="J4" end="120" vehsPerHour="67.27084292011169" departLane="free"/>
  <flow id="JF233459" begin="60" fromJunction="J7" toJunction="J5" end="120" vehsPerHour="6.88270885372554" departLane="free"/>
  <flow id="JF233460" begin="60" fromJunction="J7" toJunction="J6" end="120" vehsPerHour="35.09828520209534" departLane="free"/>
  <flow id="JF233461" begin="120" fromJunction="J0" toJunction="J4" end="180" vehsPerHour="135.13189029458553" departLane="free"/>
  <flow id="JF233462" begin="120" fromJunction="J0" toJunction="J6" end="180" vehsPerHour="128.8595325916246" departLane="free"/>
  <flow id="JF233463" begin="120" fromJunction="J0" toJunction="J7" end="180" vehsPerHour="120.24398621167633" departLane="free"/>
  <flow id="JF233464" begin="120" fromJunction="J3" toJunction="J4" end="180" vehsPerHour="68.18291232224965" departLane="free"/>
  <flow id="JF233465" begin="120" fromJunction="J3" toJunction="J5" end="180" vehsPerHour="35.84308122147308" departLane="free"/>
  <flow id="JF233466" begin="120" fromJunction="J3" toJunction="J6" end="180" vehsPerHour="110.37083121288444" departLane="free"/>
  <flow id="JF233467" begin="120" fromJunction="J4" toJunction="J0" end="180" vehsPerHour="1.1222001394392132" departLane="free"/>
  <flow id="JF233468" begin="120" fromJunction="J4" toJunction="J3" end="180" vehsPerHour="57.24032285750366" departLane="free"/>
  <flow id="JF233469" begin="120" fromJunction="J4" toJunction="J5" end="180" vehsPerHour="36.757814959633755" departLane="free"/>
  <flow id="JF233470" begin="120" fromJunction="J4" toJunction="J6" end="180" vehsPerHour="13.351475820877566" departLane="free"/>
  <flow id="JF233471" begin="120" fromJunction="J5" toJunction="J0" end="180" vehsPerHour="33.997216785469526" departLane="free"/>
  <flow id="JF233472" begin="120" fromJunction="J5" toJunction="J3" end="180" vehsPerHour="47.72464369899304" departLane="free"/>
  <flow id="JF233473" begin="120" fromJunction="J5" toJunction="J4" end="180" vehsPerHour="63.64885464987679" departLane="free"/>
  <flow id="JF233474" begin="120" fromJunction="J5" toJunction="J6" end="180" vehsPerHour="41.7161677627972" departLane="free"/>
  <flow id="JF233475" begin="120" fromJunction="J5" toJunction="J7" end="180" vehsPerHour="3.7284911980361364" departLane="free"/>
  <flow id="JF233476" begin="120" fromJunction="J6" toJunction="J3" end="180" vehsPerHour="16.938673428486368" departLane="free"/>
  <flow id="JF233477" begin="120" fromJunction="J6" toJunction="J4" end="180" vehsPerHour="10.890256963228722" departLane="free"/>
  <flow id="JF233478" begin="120" fromJunction="J6" toJunction="J5" end="180" vehsPerHour="19.79810775930937" departLane="free"/>
  <flow id="JF233479" begin="120" fromJunction="J6" toJunction="J7" end="180" vehsPerHour="47.165153053345485" departLane="free"/>
  <flow id="JF233480" begin="120" fromJunction="J7" toJunction="J0" end="180" vehsPerHour="7.069791580731213" departLane="free"/>
  <flow id="JF233481" begin="120" fromJunction="J7" toJunction="J3" end="180" vehsPerHour="6.629654834817545" departLane="free"/>
  <flow id="JF233482" begin="120" fromJunction="J7" toJunction="J5" end="180" vehsPerHour="0.6983771746772492" departLane="free"/>
  <flow id="JF233483" begin="180" fromJunction="J0" toJunction="J3" end="240" vehsPerHour="50.729324449213486" departLane="free"/>
  <flow id="JF233484" begin="180" fromJunction="J0" toJunction="J4" end="240" vehsPerHour="66.09465219679889" departLane="free"/>
  <flow id="JF233485" begin="180" fromJunction="J0" toJunction="J5" end="240" vehsPerHour="10.605661352218648" departLane="free"/>
  <flow id="JF233486" begin="180" fromJunction="J0" toJunction="J7" end="240" vehsPerHour="75.35480892623043" departLane="free"/>
  <flow id="JF233487" begin="180" fromJunction="J3" toJunction="J5" end="240" vehsPerHour="105.23687316239523" departLane="free"/>
  <flow id="JF233488" begin="180" fromJunction="J3" toJunction="J6" end="240" vehsPerHour="91.44220333226193" departLane="free"/>
  <flow id="JF233489" begin="180" fromJunction="J3" toJunction="J7" end="240" vehsPerHour="5.948787209687721" departLane="free"/>
  <flow id="JF233490" begin="180" fromJunction="J4" toJunction="J0" end="240" vehsPerHour="44.58270006684964" departLane="free"/>
  <flow id="JF233491" begin="180" fromJunction="J4" toJunction="J5" end="240" vehsPerHour="21.526004732774513" departLane="free"/>
  <flow id="JF233492" begin="180" fromJunction="J4" toJunction="J6" end="240" vehsPerHour="32.59323574941053" departLane="free"/>
  <flow id="JF233493" begin="180" fromJunction="J4" toJunction="J7" end="240" vehsPerHour="38.42727691491697" departLane="free"/>
  <flow id="JF233494" begin="180" fromJunction="J5" toJunction="J0" end="240" vehsPerHour="60.000133712346674" departLane="free"/>
  <flow id="JF233495" begin="180" fromJunction="J5" toJunction="J3" end="240" vehsPerHour="54.92278292881143" departLane="free"/>
  <flow id="JF233496" begin="180" fromJunction="J5" toJunction="J6" end="240" vehsPerHour="37.233727359905735" departLane="free"/>
  <flow id="JF233497" begin="180" fromJunction="J6" toJunction="J3" end="240" vehsPerHour="26.29595267546869" departLane="free"/>
  <flow id="JF233498" begin="180" fromJunction="J6" toJunction="J4" end="240" vehsPerHour="32.62984916093424" departLane="free"/>
  <flow id="JF233499" begin="180" fromJunction="J6" toJunction="J5" end="240" vehsPerHour="66.42371852443996" departLane="free"/>
  <flow id="JF233500" begin="180" fromJunction="J7" toJunction="J0" end="240" vehsPerHour="49.361099424793274" departLane="free"/>
  <flow id="JF233501" begin="180" fromJunction="J7" toJunction="J4" end="240" vehsPerHour="48.54089916117008" departLane="free"/>
  <flow id="JF233502" begin="240" fromJunction="J0" toJunction="J5" end="300" vehsPerHour="127.23070896340403" departLane="free"/>
  <flow id="JF233503" begin="240" fromJunction="J0" toJunction="J6" end="300" vehsPerHour="53.03083769107127" departLane="free"/>
  <flow id="JF233504" begin="240" fromJunction="J0" toJunction="J7" end="300" vehsPerHour="91.4922471673796" departLane="free"/>
  <flow id="JF233505" begin="240" fromJunction="J3" toJunction="J0" end="300" vehsPerHour="91.51327733729971" departLane="free"/>
  <flow id="JF233506" begin="240" fromJunction="J3" toJunction="J4" end="300" vehsPerHour="4.841345581207026" departLane="free"/>
  <flow id="JF233507" begin="240" fromJunction="J3" toJunction="J5" end="300" vehsPerHour="45.843111437332205" departLane="free"/>
  <flow id="JF233508" begin="240" fromJunction="J3" toJunction="J6" end="300" vehsPerHour="20.49536600533726" departLane="free"/>
  <flow id="JF233509" begin="240" fromJunction="J3" toJunction="J7" end="300" vehsPerHour="38.71064056981726" departLane="free"/>
  <flow id="JF233510" begin="240" fromJunction="J4" toJunction="J3" end="300" vehsPerHour="1.694957753191368" departLane="free"/>
  <flow id="JF233511" begin="240" fromJunction="J4" toJunction="J5" end="300" vehsPerHour="10.900262009635465" departLane="free"/>
  <flow id="JF233512" begin="240" fromJunction="J4" toJunction="J6" end="300" vehsPerHour="4.189620071378398" departLane="free"/>
  <flow id="JF233513" begin="240" fromJunction="J4" toJunction="J7" end="300" vehsPerHour="18.825046921087655" departLane="free"/>
  <flow id="JF233514" begin="240" fromJunction="J5" toJunction="J0" end="300" vehsPerHour="6.333841239396374" departLane="free"/>
  <flow id="JF233515" begin="240" fromJunction="J5" toJunction="J3" end="300" vehsPerHour="27.17525247952257" departLane="free"/>
  <flow id="JF233516" begin="240" fromJunction="J5" toJunction="J4" end="300" vehsPerHour="60.370285657559755" departLane="free"/>
  <flow id="JF233517" begin="240" fromJunction="J5" toJunction="J7" end="300" vehsPerHour="66.1681265937292" departLane="free"/>
  <flow id="JF233518" begin="240" fromJunction="J6" toJunction="J3" end="300" vehsPerHour="53.58115146760542" departLane="free"/>
  <flow id="JF233519" begin="240" fromJunction="J6" toJunction="J4" end="300" vehsPerHour="59.61957339802109" departLane="free"/>
  <flow id="JF233520" begin="240" fromJunction="J6" toJunction="J5" end="300" vehsPerHour="8.522021747538924" departLane="free"/>
  <flow id="JF233521" begin="240" fromJunction="J6" toJunction="J7" end="300" vehsPerHour="2.3626365193045924" departLane="free"/>
  <flow id="JF233522" begin="240" fromJunction="J7" toJunction="J0" end="300" vehsPerHour="57.5423999487816" departLane="free"/>
  <flow id="JF233523" begin="240" fromJunction="J7" toJunction="J3" end="300" vehsPerHour="56.19179690041544" departLane="free"/>
  <flow id="JF233524" begin="240" fromJunction="J7" toJunction="J4" end="300" vehsPerHour="34.37055858993995" departLane="free"/>
  <flow id="JF233525" begin="240" fromJunction="J7" toJunction="J5" end="300" vehsPerHour="5.588712047308956" departLane="free"/>
  <flow id="JF233526" begin="240" fromJunction="J7" toJunction="J6" end="300" vehsPerHour="9.156420721819975" departLane="free"/>
  <flow id="JF233527" begin="300" fromJunction="J0" toJunction="J5" end="360" vehsPerHour="22.52811045511741" departLane="free"/>
  <flow id="JF233528" begin="300" fromJunction="J0" toJunction="J6" end="360" vehsPerHour="51.955360793042225" departLane="free"/>
  <flow id="JF233529" begin="300" fromJunction="J0" toJunction="J7" end="360" vehsPerHour="82.04904169388638" departLane="free"/>
  <flow id="JF233530" begin="300" fromJunction="J3" toJunction="J0" end="360" vehsPerHour="126.13122246807512" departLane="free"/>
  <flow id="JF233531" begin="300" fromJunction="J3" toJunction="J4" end="360" vehsPerHour="118.40436433200426" departLane="free"/>
  <flow id="JF233532" begin="300" fromJunction="J3" toJunction="J5" end="360" vehsPerHour="129.2522370148659" departLane="free"/>
  <flow id="JF233533" begin="300" fromJunction="J3" toJunction="J6" end="360" vehsPerHour="44.66006241491985" departLane="free"/>
  <flow id="JF233534" begin="300" fromJunction="J4" toJunction="J5" end="360" vehsPerHour="62.528721805161474" departLane="free"/>
  <flow id="JF233535" begin="300" fromJunction="J4" toJunction="J7" end="360" vehsPerHour="9.748694256584523" departLane="free"/>
  <flow id="JF233536" begin="300" fromJunction="J5" toJunction="J0" end="360" vehsPerHour="41.80509641631051" departLane="free"/>
  <flow id="JF233537" begin="300" fromJunction="J5" toJunction="J3" end="360" vehsPerHour="63.79655683138729" departLane="free"/>
  <flow id="JF233538" begin="300" fromJunction="J5" toJunction="J4" end="360" vehsPerHour="39.12734555107686" departLane="free"/>
  <flow id="JF233539" begin="300" fromJunction="J5" toJunction="J7" end="360" vehsPerHour="25.10586858072874" departLane="free"/>
  <flow id="JF233540" begin="300" fromJunction="J6" toJunction="J0" end="360" vehsPerHour="68.3567063779639" departLane="free"/>
  <flow id="JF233541" begin="300" fromJunction="J6" toJunction="J3" end="360" vehsPerHour="18.75708594111639" departLane="free"/>
  <flow id="JF233542" begin="300" fromJunction="J6" toJunction="J4" end="360" vehsPerHour="46.372055045913235" departLane="free"/>
  <flow id="JF233543" begin="300" fromJunction="J6" toJunction="J5" end="360" vehsPerHour="18.442067506991894" departLane="free"/>
  <flow id="JF233544" begin="300" fromJunction="J6" toJunction="J7" end="360" vehsPerHour="22.473950562381578" departLane="free"/>
  <flow id="JF233545" begin="300" fromJunction="J7" toJunction="J0" end="360" vehsPerHour="30.245571902366866" departLane="free"/>
  <flow id="JF233546" begin="300" fromJunction="J7" toJunction="J3" end="360" vehsPerHour="42.08332813640993" departLane="free"/>
  <flow id="JF233547" begin="300" fromJunction="J7" toJunction="J4" end="360" vehsPerHour="58.43447082033256" departLane="free"/>
  <flow id="JF233548" begin="360" fromJunction="J0" toJunction="J3" end="420" vehsPerHour="17.77107363548392" departLane="free"/>
  <flow id="JF233549" begin="360" fromJunction="J0" toJunction="J5" end="420" vehsPerHour="128.5983709304006" departLane="free"/>
  <flow id="JF233550" begin="360" fromJunction="J0" toJunction="J6" end="420" vehsPerHour="7.808482244576967" departLane="free"/>
  <flow id="JF233551" begin="360" fromJunction="J3" toJunction="J0" end="420" vehsPerHour="128.22743955129957" departLane="free"/>
  <flow id="JF233552" begin="360" fromJunction="J3" toJunction="J4" end="420" vehsPerHour="104.23612845720487" departLane="free"/>
  <flow id="JF233553" begin="360" fromJunction="J3" toJunction="J5" end="420" vehsPerHour="40.91632157041442" departLane="free"/>
  <flow id="JF233554" begin="360" fromJunction="J4" toJunction="J0" end="420" vehsPerHour="49.07195703034315" departLane="free"/>
  <flow id="JF233555" begin="360" fromJunction="J4" toJunction="J3" end="420" vehsPerHour="25.020219529689573" departLane="free"/>
  <flow id="JF233556" begin="360" fromJunction="J4" toJunction="J5" end="420" vehsPerHour="52.26297101070949" departLane="free"/>
  <flow id="JF233557" begin="360" fromJunction="J4" toJunction="J7" end="420" vehsPerHour="1.150007150522443" departLane="free"/>
  <flow id="JF233558" begin="360" fromJunction="J5" toJunction="J0" end="420" vehsPerHour="29.524692315528238" departLane="free"/>
  <flow id="JF233559" begin="360" fromJunction="J5" toJunction="J3" end="420" vehsPerHour="1.6881643545043092" departLane="free"/>
  <flow id="JF233560" begin="360" fromJunction="J5" toJunction="J4" end="420" vehsPerHour="16.466761699801268" departLane="free"/>
  <flow id="JF233561" begin="360" fromJunction="J5" toJunction="J7" end="420" vehsPerHour="55.35160712219734" departLane="free"/>
  <flow id="JF233562" begin="360" fromJunction="J6" toJunction="J0" end="420" vehsPerHour="24.96237122882635" departLane="free"/>
  <flow id="JF233563" begin="360" fromJunction="J6" toJunction="J3" end="420" vehsPerHour="4.087020738898569" departLane="free"/>
  <flow id="JF233564" begin="360" fromJunction="J6" toJunction="J4" end="420" vehsPerHour="55.58397262457469" departLane="free"/>
  <flow id="JF233565" begin="360" fromJunction="J6" toJunction="J7" end="420" vehsPerHour="32.635238572554584" departLane="free"/>
  <flow id="JF233566" begin="360" fromJunction="J7" toJunction="J0" end="420" vehsPerHour="11.320191366830295" departLane="free"/>
  <flow id="JF233567" begin="360" fromJunction="J7" toJunction="J3" end="420" vehsPerHour="11.413494872660097" departLane="free"/>
  <flow id="JF233568" begin="360" fromJunction="J7" toJunction="J5" end="420" vehsPerHour="43.53308569114909" departLane="free"/>
  <flow id="JF233569" begin="360" fromJunction="J7" toJunction="J6" end="420" vehsPerHour="32.36292757437364" departLane="free"/>
  <flow id="JF233570" begin="420" fromJunction="J0" toJunction="J4" end="480" vehsPerHour="136.79553361768913" departLane="free"/>
  <flow id="JF233571" begin="420" fromJunction="J0" toJunction="J6" end="480" vehsPerHour="16.35402456130601" departLane="free"/>
  <flow id="JF233572" begin="420" fromJunction="J0" toJunction="J7" end="480" vehsPerHour="16.122447806292612" departLane="free"/>
  <flow id="JF233573" begin="420" fromJunction="J3" toJunction="J0" end="480" vehsPerHour="120.52705983419531" departLane="free"/>
  <flow id="JF233574" begin="420" fromJunction="J3" toJunction="J4" end="480" vehsPerHour="34.608920042351016" departLane="free"/>
  <flow id="JF233575" begin="420" fromJunction="J3" toJunction="J6" end="480" vehsPerHour="18.50617526424531" departLane="free"/>
  <flow id="JF233576" begin="420" fromJunction="J3" toJunction="J7" end="480" vehsPerHour="74.06841942611547" departLane="free"/>
  <flow id="JF233577" begin="420" fromJunction="J4" toJunction="J3" end="480" vehsPerHour="28.194990122640643" departLane="free"/>
  <flow id="JF233578" begin="420" fromJunction="J4" toJunction="J6" end="480" vehsPerHour="9.12333236902913" departLane="free"/>
  <flow id="JF233579" begin="420" fromJunction="J4" toJunction="J7" end="480" vehsPerHour="27.461177751300603" departLane="free"/>
  <flow id="JF233580" begin="420" fromJunction="J5" toJunction="J0" end="480" vehsPerHour="28.502523634324874" departLane="free"/>
  <flow id="JF233581" begin="420" fromJunction="J5" toJunction="J3" end="480" vehsPerHour="45.13496060715858" departLane="free"/>
  <flow id="JF233582" begin="420" fromJunction="J5" toJunction="J4" end="480" vehsPerHour="1.8081523007355924" departLane="free"/>
  <flow id="JF233583" begin="420" fromJunction="J5" toJunction="J6" end="480" vehsPerHour="55.83304676961184" departLane="free"/>
  <flow id="JF233584" begin="420" fromJunction="J5" toJunction="J7" end="480" vehsPerHour="14.413538956492028" departLane="free"/>
  <flow id="JF233585" begin="420" fromJunction="J6" toJunction="J0" end="480" vehsPerHour="11.05749343096173" departLane="free"/>
  <flow id="JF233586" begin="420" fromJunction="J6" toJunction="J3" end="480" vehsPerHour="10.939965664135014" departLane="free"/>
  <flow id="JF233587" begin="420" fromJunction="J6" toJunction="J4" end="480" vehsPerHour="54.66776945415571" departLane="free"/>
  <flow id="JF233588" begin="420" fromJunction="J6" toJunction="J5" end="480" vehsPerHour="29.05946956100659" departLane="free"/>
  <flow id="JF233589" begin="420" fromJunction="J7" toJunction="J3" end="480" vehsPerHour="7.0515384128921506" departLane="free"/>
  <flow id="JF233590" begin="420" fromJunction="J7" toJunction="J5" end="480" vehsPerHour="42.069593743778555" departLane="free"/>
  <flow id="JF233591" begin="480" fromJunction="J0" toJunction="J3" end="540" vehsPerHour="7.1930321628293346" departLane="free"/>
  <flow id="JF233592" begin="480" fromJunction="J0" toJunction="J4" end="540" vehsPerHour="33.33022283280635" departLane="free"/>
  <flow id="JF233593" begin="480" fromJunction="J0" toJunction="J7" end="540" vehsPerHour="66.38463867605529" departLane="free"/>
  <flow id="JF233594" begin="480" fromJunction="J3" toJunction="J0" end="540" vehsPerHour="86.24811984327567" departLane="free"/>
  <flow id="JF233595" begin="480" fromJunction="J3" toJunction="J4" end="540" vehsPerHour="97.00023454634507" departLane="free"/>
  <flow id="JF233596" begin="480" fromJunction="J3" toJunction="J6" end="540" vehsPerHour="43.46883594716097" departLane="free"/>
  <flow id="JF233597" begin="480" fromJunction="J3" toJunction="J7" end="540" vehsPerHour="52.37922907990221" departLane="free"/>
  <flow id="JF233598" begin="480" fromJunction="J4" toJunction="J0" end="540" vehsPerHour="42.4856478399406" departLane="free"/>
  <flow id="JF233599" begin="480" fromJunction="J4" toJunction="J3" end="540" vehsPerHour="40.04559334592951" departLane="free"/>
  <flow id="JF233600" begin="480" fromJunction="J4" toJunction="J5" end="540" vehsPerHour="24.36611878603339" departLane="free"/>
  <flow id="JF233601" begin="480" fromJunction="J4" toJunction="J6" end="540" vehsPerHour="56.41012185551073" departLane="free"/>
  <flow id="JF233602" begin="480" fromJunction="J5" toJunction="J0" end="540" vehsPerHour="35.03685289690751" departLane="free"/>
  <flow id="JF233603" begin="480" fromJunction="J5" toJunction="J4" end="540" vehsPerHour="60.67538949191812" departLane="free"/>
  <flow id="JF233604" begin="480" fromJunction="J5" toJunction="J6" end="540" vehsPerHour="52.557737083285566" departLane="free"/>
  <flow id="JF233605" begin="480" fromJunction="J5" toJunction="J7" end="540" vehsPerHour="45.95157824467357" departLane="free"/>
  <flow id="JF233606" begin="480" fromJunction="J6" toJunction="J0" end="540" vehsPerHour="52.2163680790371" departLane="free"/>
  <flow id="JF233607" begin="480" fromJunction="J6" toJunction="J3" end="540" vehsPerHour="39.79888926869167" departLane="free"/>
  <flow id="JF233608" begin="480" fromJunction="J6" toJunction="J4" end="540" vehsPerHour="48.63591954962531" departLane="free"/>
  <flow id="JF233609" begin="480" fromJunction="J6" toJunction="J5" end="540" vehsPerHour="59.06496595452062" departLane="free"/>
  <flow id="JF233610" begin="480" fromJunction="J6" toJunction="J7" end="540" vehsPerHour="64.54447659912708" departLane="free"/>
  <flow id="JF233611" begin="480" fromJunction="J7" toJunction="J0" end="540" vehsPerHour="8.88078978101832" departLane="free"/>
  <flow id="JF233612" begin="480" fromJunction="J7" toJunction="J3" end="540" vehsPerHour="0.7872800355922144" departLane="free"/>
  <flow id="JF233613" begin="480" fromJunction="J7" toJunction="J4" end="540" vehsPerHour="55.255518549658724" departLane="free"/>
  <flow id="JF233614" begin="480" fromJunction="J7" toJunction="J5" end="540" vehsPerHour="27.005637921870076" departLane="free"/>
  <flow id="JF233615" begin="480" fromJunction="J7" toJunction="J6" end="540" vehsPerHour="3.443639758859588" departLane="free"/>
  <flow id="JF233616" begin="540" fromJunction="J0" toJunction="J3" end="600" vehsPerHour="49.74428561945827" departLane="free"/>
  <flow id="JF233617" begin="540" fromJunction="J0" toJunction="J6" end="600" vehsPerHour="125.40169492487895" departLane="free"/>
  <flow id="JF233618" begin="540" fromJunction="J3" toJunction="J0" end="600" vehsPerHour="53.820099984773336" departLane="free"/>
  <flow id="JF233619" begin="540" fromJunction="J3" toJunction="J4" end="600" vehsPerHour="79.86976389093054" departLane="free"/>
  <flow id="JF233620" begin="540" fromJunction="J3" toJunction="J5" end="600" vehsPerHour="25.078303120396473" departLane="free"/>
  <flow id="JF233621" begin="540" fromJunction="J3" toJunction="J6" end="600" vehsPerHour="48.30878402397895" departLane="free"/>
  <flow id="JF233622" begin="540" fromJunction="J3" toJunction="J7" end="600" vehsPerHour="94.98516001196154" departLane="free"/>
  <flow id="JF233623" begin="540" fromJunction="J4" toJunction="J0" end="600" vehsPerHour="10.851740106014478" departLane="free"/>
  <flow id="JF233624" begin="540" fromJunction="J4" toJunction="J5" end="600" vehsPerHour="35.84092383541733" departLane="free"/>
  <flow id="JF233625" begin="540" fromJunction="J4" toJunction="J6" end="600" vehsPerHour="53.349512350196605" departLane="free"/>
  <flow id="JF233626" begin="540" fromJunction="J4" toJunction="J7" end="600" vehsPerHour="13.823688474329776" departLane="free"/>
  <flow id="JF233627" begin="540" fromJunction="J5" toJunction="J3" end="600" vehsPerHour="15.55344355401857" departLane="free"/>
  <flow id="JF233628" begin="540" fromJunction="J5" toJunction="J4" end="600" vehsPerHour="16.486340517265695" departLane="free"/>
  <flow id="JF233629" begin="540" fromJunction="J5" toJunction="J7" end="600" vehsPerHour="48.87916413663636" departLane="free"/>
  <flow id="JF233630" begin="540" fromJunction="J6" toJunction="J0" end="600" vehsPerHour="64.12802380867265" departLane="free"/>
  <flow id="JF233631" begin="540" fromJunction="J6" toJunction="J4" end="600" vehsPerHour="14.290725381608159" departLane="free"/>
  <flow id="JF233632" begin="540" fromJunction="J7" toJunction="J0" end="600" vehsPerHour="56.81466480139066" departLane="free"/>
  <flow id="JF233633" begin="540" fromJunction="J7" toJunction="J4" end="600" vehsPerHour="61.53612236685441" departLane="free"/>
  <flow id="JF233634" begin="540" fromJunction="J7" toJunction="J5" end="600" vehsPerHour="56.89414915029908" departLane="free"/>
  <flow id="JF233635" begin="540" fromJunction="J7" toJunction="J6" end="600" vehsPerHour="42.165829321921656" departLane="free"/>
  <flow id="JF233636" begin="600" fromJunction="J0" toJunction="J4" end="660" vehsPerHour="70.3832769563154" departLane="free"/>
  <flow id="JF233637" begin="600" fromJunction="J0" toJunction="J5" end="660" vehsPerHour="31.32445641587898" departLane="free"/>
  <flow id="JF233638" begin="600" fromJunction="J0" toJunction="J6" end="660" vehsPerHour="109.06331622537206" departLane="free"/>
  <flow id="JF233639" begin="600" fromJunction="J0" toJunction="J7" end="660" vehsPerHour="96.67429008334805" departLane="free"/>
  <flow id="JF233640" begin="600" fromJunction="J3" toJunction="J4" end="660" vehsPerHour="37.91698397938243" departLane="free"/>
  <flow id="JF233641" begin="600" fromJunction="J3" toJunction="J5" end="660" vehsPerHour="0.7631957243467531" departLane="free"/>
  <flow id="JF233642" begin="600" fromJunction="J3" toJunction="J7" end="660" vehsPerHour="3.4711682534164967" departLane="free"/>
  <flow id="JF233643" begin="600" fromJunction="J4" toJunction="J0" end="660" vehsPerHour="25.447584346176214" departLane="free"/>