<?xml version="1.0" encoding="UTF-8"?>
<routes xmlns:xsi="http://www.w3.org/2001/XMLSchema-instance" xsi:noNamespaceSchemaLocation="http://sumo.dlr.de/xsd/routes_file.xsd">
  <flow id="JF240919" begin="0" fromJunction="J0" toJunction="J3" end="60" vehsPerHour="84.81296772768722" departLane="free"/>
  <flow id="JF240920" begin="0" fromJunction="J0" toJunction="J5" end="60" vehsPerHour="86.70093742213263" departLane="free"/>
  <flow id="JF240921" begin="0" fromJunction="J0" toJunction="J6" end="60" vehsPerHour="22.796515359823548" departLane="free"/>
  <flow id="JF240922" begin="0" fromJunction="J0" toJunction="J7" end="60" vehsPerHour="3.7563542681564037" departLane="free"/>
  <flow id="JF240923" begin="0" fromJunction="J3" toJunction="J0" end="60" vehsPerHour="73.39296451308459" departLane="free"/>
  <flow id="JF240924" begin="0" fromJunction="J3" toJunction="J4" end="60" vehsPerHour="89.32029802865097" departLane="free"/>
  <flow id="JF240925" begin="0" fromJunction="J3" toJunction="J5" end="60" vehsPerHour="22.837482815847082" departLane="free"/>
  <flow id="JF240926" begin="0" fromJunction="J3" toJunction="J6" end="60" vehsPerHour="52.83398351056725" departLane="free"/>
  <flow id="JF240927" begin="0" fromJunction="J3" toJunction="J7" end="60" vehsPerHour="105.91921820380345" departLane="free"/>
  <flow id="JF240928" begin="0" fromJunction="J4" toJunction="J0" end="60" vehsPerHour="29.984165572642883" departLane="free"/>
  <flow id="JF240929" begin="0" fromJunction="J4" toJunction="J3" end="60" vehsPerHour="32.29173238776973" departLane="free"/>
  <flow id="JF240930" begin="0" fromJunction="J4" toJunction="J5" end="60" vehsPerHour="51.68484455388613" departLane="free"/>
  <flow id="JF240931" begin="0" fromJunction="J4" toJunction="J6" end="60" vehsPerHour="51.512308052936056" departLane="free"/>
  <flow id="JF240932" begin="0" fromJunction="J4" toJunction="J7" end="60" vehsPerHour="26.64038197918205" departLane="free"/>
  <flow id="JF240933" begin="0" fromJunction="J5" toJunction="J0" end="60" vehsPerHour="42.9857283927132" departLane="free"/>
  <flow id="JF240934" begin="0" fromJunction="J5" toJunction="J3" end="60" vehsPerHour="5.650977718759367" departLane="free"/>
  <flow id="JF240935" begin="0" fromJunction="J5" toJunction="J4" end="60" vehsPerHour="45.71683337592403" departLane="free"/>
  <flow id="JF240936" begin="0" fromJunction="J5" toJunction="J6" end="60" vehsPerHour="50.53017982920152" departLane="free"/>
  <flow id="JF240937" begin="0" fromJunction="J6" toJunction="J0" end="60" vehsPerHour="5.656884726796674" departLane="free"/>
  <flow id="JF240938" begin="0" fromJunction="J6" toJunction="J3" end="60" vehsPerHour="43.712461432179055" departLane="free"/>
  <flow id="JF240939" begin="0" fromJunction="J6" toJunction="J4" end="60" vehsPerHour="46.438813442535206" departLane="free"/>
  <flow id="JF240940" begin="0" fromJunction="J7" toJunction="J4" end="60" vehsPerHour="41.80402402554685" departLane="free"/>
  <flow id="JF240941" begin="60" fromJunction="J0" toJunction="J4" end="120" vehsPerHour="68.76202889602014" departLane="free"/>
  <flow id="JF240942" begin="60" fromJunction="J0" toJunction="J6" end="120" vehsPerHour="113.70472415853234" departLane="free"/>
  <flow id="JF240943" begin="60" fromJunction="J3" toJunction="J0" end="120" vehsPerHour="104.88933459168553" departLane="free"/>
  <flow id="JF240944" begin="60" fromJunction="J3" toJunction="J4" end="120" vehsPerHour="70.83064952275042" departLane="free"/>
  <flow id="JF240945" begin="60" fromJunction="J3" toJunction="J5" end="120" vehsPerHour="22.559317504536498" departLane="free"/>
  <flow id="JF240946" begin="60" fromJunction="J4" toJunction="J0" end="120" vehsPerHour="40.042138666360955" departLane="free"/>
  <flow id="JF240947" begin="60" fromJunction="J4" toJunction="J3" end="120" vehsPerHour="40.12495654682599" departLane="free"/>
  <flow id="JF240948" begin="60" fromJunction="J4" toJunction="J5" end="120" vehsPerHour="0.6353679844956049" departLane="free"/>
  <flow id="JF240949" begin="60" fromJunction="J4" toJunction="J6" end="120" vehsPerHour="63.77916197384673" departLane="free"/>
  <flow id="JF240950" begin="60" fromJunction="J5" toJunction="J0" end="120" vehsPerHour="26.934976311211468" departLane="free"/>
  <flow id="JF240951" begin="60" fromJunction="J5" toJunction="J4" end="120" vehsPerHour="63.99662368621643" departLane="free"/>
  <flow id="JF240952" begin="60" fromJunction="J5" toJunction="J6" end="120" vehsPerHour="29.97481016443972" departLane="free"/>
  <flow id="JF240953" begin="60" fromJunction="J5" toJunction="J7" end="120" vehsPerHour="43.550265666156996" departLane="free"/>
  <flow id="JF240954" begin="60" fromJunction="J6" toJunction="J0" end="120" vehsPerHour="16.38008978428713" departLane="free"/>
  <flow id="JF240955" begin="60" fromJunction="J6" toJunction="J3" end="120" vehsPerHour="9.288163380613554" departLane="free"/>
  <flow id="JF240956" begin="60" fromJunction="J7" toJunction="J3" end="120" vehsPerHour="61.248808942386795" departLane="free"/>
  <flow id="JF240957" begin="60" fromJunction="J7" toJunction="J4" end="120" vehsPerHour="68.49632940906959" departLane="free"/>
  <flow id="JF240958" begin="60" fromJunction="J7" toJunction="J5" end="120" vehsPerHour="65.87014727753794" departLane="free"/>
  <flow id="JF240959" begin="60" fromJunction="J7" toJunction="J6" end="120" vehsPerHour="2.6050290454862646" departLane="free"/>
  <flow id="JF240960" begin="120" fromJunction="J0" toJunction="J3" end="180" vehsPerHour="52.798714908376255" departLane="free"/>
  <flow id="JF240961" begin="120" fromJunction="J0" toJunction="J4" end="180" vehsPerHour="118.95329752958209" departLane="free"/>
  <flow id="JF240962" begin="120" fromJunction="J0" toJunction="J7" end="180" vehsPerHour="69.31426855457211" departLane="free"/>
  <flow id="JF240963" begin="120" fromJunction="J3" toJunction="J0" end="180" vehsPerHour="44.727778047505545" departLane="free"/>
  <flow id="JF240964" begin="120" fromJunction="J3" toJunction="J5" end="180" vehsPerHour="4.1636770931330185" departLane="free"/>
  <flow id="JF240965" begin="120" fromJunction="J3" toJunction="J6" end="180" vehsPerHour="12.3148020671225" departLane="free"/>
  <flow id="JF240966" begin="120" fromJunction="J3" toJunction="J7" end="180" vehsPerHour="72.38193798017275" departLane="free"/>
  <flow id="JF240967" begin="120" fromJunction="J4" toJunction="J0" end="180" vehsPerHour="65.9089834535736" departLane="free"/>
  <flow id="JF240968" begin="120" fromJunction="J4" toJunction="J3" end="180" vehsPerHour="66.64348455971522" departLane="free"/>
  <flow id="JF240969" begin="120" fromJunction="J4" toJunction="J5" end="180" vehsPerHour="5.327182410637095" departLane="free"/>
  <flow id="JF240970" begin="120" fromJunction="J4" toJunction="J6" end="180" vehsPerHour="11.868363718004163" departLane="free"/>
  <flow id="JF240971" begin="120" fromJunction="J4" toJunction="J7" end="180" vehsPerHour="56.59808347394774" departLane="free"/>
  <flow id="JF240972" begin="120" fromJunction="J5" toJunction="J0" end="180" vehsPerHour="18.316306389093732" departLane="free"/>
  <flow id="JF240973" begin="120" fromJunction="J5" toJunction="J3" end="180" vehsPerHour="44.03660499290213" departLane="free"/>
  <flow id="JF240974" begin="120" fromJunction="J5" toJunction="J7" end="180" vehsPerHour="7.163302096238168" departLane="free"/>
  <flow id="JF240975" begin="120" fromJunction="J6" toJunction="J0" end="180" vehsPerHour="14.38265247722359" departLane="free"/>
  <flow id="JF240976" begin="120" fromJunction="J6" toJunction="J3" end="180" vehsPerHour="24.78175396470434" departLane="free"/>
  <flow id="JF240977" begin="120" fromJunction="J6" toJunction="J4" end="180" vehsPerHour="23.50943211610407" departLane="free"/>
  <flow id="JF240978" begin="120" fromJunction="J7" toJunction="J0" end="180" vehsPerHour="1.6946192327684348" departLane="free"/>
  <flow id="JF240979" begin="120" fromJunction="J7" toJunction="J3" end="180" vehsPerHour="59.47012747075379" departLane="free"/>
  <flow id="JF240980" begin="120" fromJunction="J7" toJunction="J5" end="180" vehsPerHour="54.270569568988364" departLane="free"/>
  <flow id="JF240981" begin="120" fromJunction="J7" toJunction="J6" end="180" vehsPerHour="14.743422941214968" departLane="free"/>
  <flow id="JF240982" begin="180" fromJunction="J0" toJunction="J4" end="240" vehsPerHour="77.72454003276603" departLane="free"/>
  <flow id="JF240983" begin="180" fromJunction="J0" toJunction="J6" end="240" vehsPerHour="104.8397818445447" departLane="free"/>
  <flow id="JF240984" begin="180" fromJunction="J0" toJunction="J7" end="240" vehsPerHour="125.82127843143604" departLane="free"/>
  <flow id="JF240985" begin="180" fromJunction="J3" toJunction="J0" end="240" vehsPerHour="40.67943987427423" departLane="free"/>
  <flow id="JF240986" begin="180" fromJunction="J3" toJunction="J5" end="240" vehsPerHour="109.1669219931527" departLane="free"/>
  <flow id="JF240987" begin="180" fromJunction="J3" toJunction="J6" end="240" vehsPerHour="72.12058269488756" departLane="free"/>
  <flow id="JF240988" begin="180" fromJunction="J3" toJunction="J7" end="240" vehsPerHour="127.24316884593416" departLane="free"/>
  <flow id="JF240989" begin="180" fromJunction="J4" toJunction="J0" end="240" vehsPerHour="31.52537131078151" departLane="free"/>
  <flow id="JF240990" begin="180" fromJunction="J4" toJunction="J5" end="240" vehsPerHour="21.08935374108529" departLane="free"/>
  <flow id="JF240991" begin="180" fromJunction="J4" toJunction="J6" end="240" vehsPerHour="17.660591892971663" departLane="free"/>
  <flow id="JF240992" begin="180" fromJunction="J4" toJunction="J7" end="240" vehsPerHour="27.791292849850347" departLane="free"/>
  <flow id="JF240993" begin="180" fromJunction="J5" toJunction="J0" end="240" vehsPerHour="4.612333192967818" departLane="free"/>
  <flow id="JF240994" begin="180" fromJunction="J5" toJunction="J4" end="240" vehsPerHour="53.38731266994333" departLane="free"/>
  <flow id="JF240995" begin="180" fromJunction="J6" toJunction="J0" end="240" vehsPerHour="40.08739294467473" departLane="free"/>
  <flow id="JF240996" begin="180" fromJunction="J6" toJunction="J3" end="240" vehsPerHour="63.12086279702535" departLane="free"/>
  <flow id="JF240997" begin="180" fromJunction="J6" toJunction="J5" end="240" vehsPerHour="62.75812756342688" departLane="free"/>
  <flow id="JF240998" begin="180" fromJunction="J7" toJunction="J0" end="240" vehsPerHour="46.14322834410238" departLane="free"/>
  <flow id="JF240999" begin="180" fromJunction="J7" toJunction="J4" end="240" vehsPerHour="63.465039808720405" departLane="free"/>
  <flow id="JF241000" begin="180" fromJunction="J7" toJunction="J5" end="240" vehsPerHour="15.369283654078078" departLane="free"/>
  <flow id="JF241001" begin="180" fromJunction="J7" toJunction="J6" end="240" vehsPerHour="57.59211609078571" departLane="free"/>
  <flow id="JF241002" begin="240" fromJunction="J0" toJunction="J4" end="300" vehsPerHour="52.08507228734627" departLane="free"/>
  <flow id="JF241003" begin="240" fromJunction="J0" toJunction="J5" end="300" vehsPerHour="55.16774151252492" departLane="free"/>
  <flow id="JF241004" begin="240" fromJunction="J0" toJunction="J6" end="300" vehsPerHour="49.58479936513312" departLane="free"/>
  <flow id="JF241005" begin="240" fromJunction="J0" toJunction="J7" end="300" vehsPerHour="20.304664700434095" departLane="free"/>
  <flow id="JF241006" begin="240" fromJunction="J3" toJunction="J0" end="300" vehsPerHour="118.468351068482" departLane="free"/>
  <flow id="JF241007" begin="240" fromJunction="J3" toJunction="J4" end="300" vehsPerHour="13.672512455511898" departLane="free"/>
  <flow id="JF241008" begin="240" fromJunction="J3" toJunction="J5" end="300" vehsPerHour="98.29817669474443" departLane="free"/>
  <flow id="JF241009" begin="240" fromJunction="J3" toJunction="J6" end="300" vehsPerHour="76.67940742145943" departLane="free"/>
  <flow id="JF241010" begin="240" fromJunction="J4" toJunction="J0" end="300" vehsPerHour="33.43358030903971" departLane="free"/>
  <flow id="JF241011" begin="240" fromJunction="J4" toJunction="J3" end="300" vehsPerHour="0.7943333362282516" departLane="free"/>
  <flow id="JF241012" begin="240" fromJunction="J4" toJunction="J5" end="300" vehsPerHour="23.091094983493722" departLane="free"/>
  <flow id="JF241013" begin="240" fromJunction="J5" toJunction="J0" end="300" vehsPerHour="28.990779348838775" departLane="free"/>
  <flow id="JF241014" begin="240" fromJunction="J5" toJunction="J3" end="300" vehsPerHour="28.15565851169924" departLane="free"/>
  <flow id="JF241015" begin="240" fromJunction="J5" toJunction="J4" end="300" vehsPerHour="61.06916726088809" departLane="free"/>
  <flow id="JF241016" begin="240" fromJunction="J5" toJunction="J6" end="300" vehsPerHour="12.66820103697841" departLane="free"/>
  <flow id="JF241017" begin="240" fromJunction="J5" toJunction="J7" end="300" vehsPerHour="24.515432975449077" departLane="free"/>
  <flow id="JF241018" begin="240" fromJunction="J6" toJunction="J0" end="300" vehsPerHour="62.118934194254294" departLane="free"/>
  <flow id="JF241019" begin="240" fromJunction="J7" toJunction="J0" end="300" vehsPerHour="22.780566597031125" departLane="free"/>
  <flow id="JF241020" begin="240" fromJunction="J7" toJunction="J4" end="300" vehsPerHour="67.91112601675006" departLane="free"/>
  <flow id="JF241021" begin="240" fromJunction="J7" toJunction="J5" end="300" vehsPerHour="25.401354066916163" departLane="free"/>
  <flow id="JF241022" begin="240" fromJunction="J7" toJunction="J6" end="300" vehsPerHour="16.86790451329276" departLane="free"/>
  <flow id="JF241023" begin="300" fromJunction="J0" toJunction="J3" end="360" vehsPerHour="119.41398570340183" departLane="free"/>
  <flow id="JF241024" begin="300" fromJunction="J0" toJunction="J4" end="360" vehsPerHour="126.49149203443359" departLane="free"/>
  <flow id="JF241025" begin="300" fromJunction="J0" toJunction="J6" end="360" vehsPerHour="56.75692366280932" departLane="free"/>
  <flow id="JF241026" begin="300" fromJunction="J3" toJunction="J4" end="360" vehsPerHour="88.02457937585865" departLane="free"/>
  <flow id="JF241027" begin="300" fromJunction="J3" toJunction="J5" end="360" vehsPerHour="108.88237713017519" departLane="free"/>
  <flow id="JF241028" begin="300" fromJunction="J3" toJunction="J7" end="360" vehsPerHour="98.38741739079843" departLane="free"/>
  <flow id="JF241029" begin="300" fromJunction="J4" toJunction="J0" end="360" vehsPerHour="63.779898856601314" departLane="free"/>
  <flow id="JF241030" begin="300" fromJunction="J4" toJunction="J3" end="360" vehsPerHour="10.76080845004022" departLane="free"/>
  <flow id="JF241031" begin="300" fromJunction="J4" toJunction="J5" end="360" vehsPerHour="0.2796245586978484" departLane="free"/>
  <flow id="JF241032" begin="300" fromJunction="J4" toJunction="J6" end="360" vehsPerHour="46.203194365048" departLane="free"/>
  <flow id="JF241033" begin="300" fromJunction="J5" toJunction="J0" end="360" vehsPerHour="49.66370656637142" departLane="free"/>
  <flow id="JF241034" begin="300" fromJunction="J5" toJunction="J3" end="360" vehsPerHour="40.60521757621881" departLane="free"/>
  <flow id="JF241035" begin="300" fromJunction="J5" toJunction="J4" end="360" vehsPerHour="43.455769408317856" departLane="free"/>
  <flow id="JF241036" begin="300" fromJunction="J5" toJunction="J6" end="360" vehsPerHour="18.296304095489454" departLane="free"/>
  <flow id="JF241037" begin="300" fromJunction="J5" toJunction="J7" end="360" vehsPerHour="3.503503022905765" departLane="free"/>
  <flow id="JF241038" begin="300" fromJunction="J6" toJunction="J0" end="360" vehsPerHour="66.97237337555813" departLane="free"/>
  <flow id="JF241039" begin="300" fromJunction="J6" toJunction="J3" end="360" vehsPerHour="65.60902885380466" departLane="free"/>
  <flow id="JF241040" begin="300" fromJunction="J6" toJunction="J4" end="360" vehsPerHour="59.55815538034326" departLane="free"/>
  <flow id="JF241041" begin="300" fromJunction="J6" toJunction="J7" end="360" vehsPerHour="15.334390127788554" departLane="free"/>
  <flow id="JF241042" begin="300" fromJunction="J7" toJunction="J0" end="360" vehsPerHour="19.91978739344617" departLane="free"/>
  <flow id="JF241043" begin="300" fromJunction="J7" toJunction="J3" end="360" vehsPerHour="39.516280787512734" departLane="free"/>
  <flow id="JF241044" begin="300" fromJunction="J7" toJunction="J4" end="360" vehsPerHour="4.74963811028263" departLane="free"/>
  <flow id="JF241045" begin="300" fromJunction="J7" toJunction="J5" end="360" vehsPerHour="14.684517733360972" departLane="free"/>
  <flow id="JF241046" begin="360" fromJunction="J0" toJunction="J3" end="420" vehsPerHour="16.444191735993435" departLane="free"/>
  <flow id="JF241047" begin="360" fromJunction="J0" toJunction="J4" end="420" vehsPerHour="70.05128452955908" departLane="free"/>
  <flow id="JF241048" begin="360" fromJunction="J0" toJunction="J5" end="420" vehsPerHour="122.63240878036959" departLane="free"/>
  <flow id="JF241049" begin="360" fromJunction="J0" toJunction="J6" end="420" vehsPerHour="31.739771638769582" departLane="free"/>
  <flow id="JF241050" begin="360" fromJunction="J0" toJunction="J7" end="420" vehsPerHour="41.88571118091065" departLane="free"/>
  <flow id="JF241051" begin="360" fromJunction="J3" toJunction="J5" end="420" vehsPerHour="38.80056653709891" departLane="free"/>
  <flow id="JF241052" begin="360" fromJunction="J3" toJunction="J7" end="420" vehsPerHour="7.878229300292913" departLane="free"/>
  <flow id="JF241053" begin="360" fromJunction="J4" toJunction="J0" end="420" vehsPerHour="62.10716833855798" departLane="free"/>
  <flow id="JF241054" begin="360" fromJunction="J4" toJunction="J5" end="420" vehsPerHour="50.79213911434127" departLane="free"/>
  <flow id="JF241055" begin="360" fromJunction="J4" toJunction="J6" end="420" vehsPerHour="32.14416279050435" departLane="free"/>
  <flow id="JF241056" begin="360" fromJunction="J5" toJunction="J0" end="420" vehsPerHour="68.0959378253864" departLane="free"/>
  <flow id="JF241057" begin="360" fromJunction="J5" toJunction="J3" end="420" vehsPerHour="44.2996765991792" departLane="free"/>
  <flow id="JF241058" begin="360" fromJunction="J5" toJunction="J6" end="420" vehsPerHour="18.589929673431964" departLane="free"/>
  <flow id="JF241059" begin="360" fromJunction="J5" toJunction="J7" end="420" vehsPerHour="40.91924815586113" departLane="free"/>
  <flow id="JF241060" begin="360" fromJunction="J6" toJunction="J0" end="420" vehsPerHour="2.6152397978474706" departLane="free"/>
  <flow id="JF241061" begin="360" fromJunction="J6" toJunction="J3" end="420" vehsPerHour="0.2196615225444281" departLane="free"/>
  <flow id="JF241062" begin="360" fromJunction="J6" toJunction="J4" end="420" vehsPerHour="40.24899693050536" departLane="free"/>
  <flow id="JF241063" begin="360" fromJunction="J6" toJunction="J7" end="420" vehsPerHour="11.476338623786152" departLane="free"/>
  <flow id="JF241064" begin="360" fromJunction="J7" toJunction="J0" end="420" vehsPerHour="28.64853472533252" departLane="free"/>
  <flow id="JF241065" begin="360" fromJunction="J7" toJunction="J4" end="420" vehsPerHour="23.147480372429623" departLane="free"/>
  <flow id="JF241066" begin="360" fromJunction="J7" toJunction="J5" end="420" vehsPerHour="42.12498166180959" departLane="free"/>
  <flow id="JF241067" begin="360" fromJunction="J7" toJunction="J6" end="420" vehsPerHour="16.974953522311655" departLane="free"/>
  <flow id="JF241068" begin="420" fromJunction="J0" toJunction="J3" end="480" vehsPerHour="34.25984569559682" departLane="free"/>
  <flow id="JF241069" begin="420" fromJunction="J0" toJunction="J4" end="480" vehsPerHour="75.40222718700714" departLane="free"/>
  <flow id="JF241070" begin="420" fromJunction="J0" toJunction="J5" end="480" vehsPerHour="14.499627448415739" departLane="free"/>
  <flow id="JF241071" begin="420" fromJunction="J0" toJunction="J6" end="480" vehsPerHour="16.721169589375954" departLane="free"/>
  <flow id="JF241072" begin="420" fromJunction="J0" toJunction="J7" end="480" vehsPerHour="86.33733019632828" departLane="free"/>
  <flow id="JF241073" begin="420" fromJunction="J3" toJunction="J0" end="480" vehsPerHour="28.1664117537398" departLane="free"/>
  <flow id="JF241074" begin="420" fromJunction="J3" toJunction="J5" end="480" vehsPerHour="126.90187072099693" departLane="free"/>
  <flow id="JF241075" begin="420" fromJunction="J3" toJunction="J7" end="480" vehsPerHour="49.53680325523642" departLane="free"/>
  <flow id="JF241076" begin="420" fromJunction="J4" toJunction="J0" end="480" vehsPerHour="51.77026199365141" departLane="free"/>
  <flow id="JF241077" begin="420" fromJunction="J4" toJunction="J5" end="480" vehsPerHour="60.49247185604177" departLane="free"/>
  <flow id="JF241078" begin="420" fromJunction="J4" toJunction="J6" end="480" vehsPerHour="39.29575651009016" departLane="free"/>
  <flow id="JF241079" begin="420" fromJunction="J5" toJunction="J3" end="480" vehsPerHour="39.51209748691303" departLane="free"/>
  <flow id="JF241080" begin="420" fromJunction="J5" toJunction="J4" end="480" vehsPerHour="57.32512578638484" departLane="free"/>
  <flow id="JF241081" begin="420" fromJunction="J5" toJunction="J6" end="480" vehsPerHour="27.413796026126267" departLane="free"/>
  <flow id="JF241082" begin="420" fromJunction="J6" toJunction="J0" end="480" vehsPerHour="31.35193278731826" departLane="free"/>
  <flow id="JF241083" begin="420" fromJunction="J6" toJunction="J3" end="480" vehsPerHour="67.9465154466414" departLane="free"/>
  <flow id="JF241084" begin="420" fromJunction="J6" toJunction="J5" end="480" vehsPerHour="22.097329907976214" departLane="free"/>
  <flow id="JF241085" begin="420" fromJunction="J6" toJunction="J7" end="480" vehsPerHour="17.834769583313204" departLane="free"/>
  <flow id="JF241086" begin="420" fromJunction="J7" toJunction="J4" end="480" vehsPerHour="52.97762127950468" departLane="free"/>
  <flow id="JF241087" begin="420" fromJunction="J7" toJunction="J5" end="480" vehsPerHour="10.192376256971293" departLane="free"/>
  <flow id="JF241088" begin="420" fromJunction="J7" toJunction="J6" end="480" vehsPerHour="54.625928063049614" departLane="free"/>
  <flow id="JF241089" begin="480" fromJunction="J0" toJunction="J4" end="540" vehsPerHour="2.580178994539723" departLane="free"/>
  <flow id="JF241090" begin="480" fromJunction="J0" toJunction="J5" end="540" vehsPerHour="69.74226877002641" departLane="free"/>
  <flow id="JF241091" begin="480" fromJunction="J0" toJunction="J6" end="540" vehsPerHour="129.6544207296228" departLane="free"/>
  <flow id="JF241092" begin="480" fromJunction="J0" toJunction="J7" end="540" vehsPerHour="105.47884405446916" departLane="free"/>
  <flow id="JF241093" begin="480" fromJunction="J3" toJunction="J0" end="540" vehsPerHour="89.50883129359299" departLane="free"/>
  <flow id="JF241094" begin="480" fromJunction="J3" toJunction="J4" end="540" vehsPerHour="82.90672509061292" departLane="free"/>
  <flow id="JF241095" begin="480" fromJunction="J3" toJunction="J6" end="540" vehsPerHour="108.73879843763059" departLane="free"/>
  <flow id="JF241096" begin="480" fromJunction="J3" toJunction="J7" end="540" vehsPerHour="3.0669718019678616" departLane="free"/>
  <flow id="JF241097" begin="480" fromJunction="J4" toJunction="J0" end="540" vehsPerHour="66.48378926955426" departLane="free"/>
  <flow id="JF241098" begin="480" fromJunction="J4" toJunction="J3" end="540" vehsPerHour="56.808855578700665" departLane="free"/>
  <flow id="JF241099" begin="480" fromJunction="J4" toJunction="J5" end="540" vehsPerHour="47.77194849808742" departLane="free"/>
  <flow id="JF241100" begin="480" fromJunction="J4" toJunction="J6" end="540" vehsPerHour="17.017348120805323" departLane="free"/>
  <flow id="JF241101" begin="480" fromJunction="J4" toJunction="J7" end="540" vehsPerHour="44.138257768193704" departLane="free"/>
  <flow id="JF241102" begin="480" fromJunction="J5" toJunction="J0" end="540" vehsPerHour="66.52891853976085" departLane="free"/>
  <flow id="JF241103" begin="480" fromJunction="J5" toJunction="J3" end="540" vehsPerHour="23.246424254458663" departLane="free"/>
  <flow id="JF241104" begin="480" fromJunction="J5" toJunction="J4" end="540" vehsPerHour="1.166821277549487" departLane="free"/>
  <flow id="JF241105" begin="480" fromJunction="J5" toJunction="J7" end="540" vehsPerHour="20.083415604379" departLane="free"/>
  <flow id="JF241106" begin="480" fromJunction="J6" toJunction="J3" end="540" vehsPerHour="37.29374241806469" departLane="free"/>
  <flow id="JF241107" begin="480" fromJunction="J6" toJunction="J4" end="540" vehsPerHour="27.132954465411352" departLane="free"/>
  <flow id="JF241108" begin="480" fromJunction="J6" toJunction="J5" end="540" vehsPerHour="29.169174639330667" departLane="free"/>
  <flow id="JF241109" begin="480" fromJunction="J6" toJunction="J7" end="540" vehsPerHour="65.0254957826162" departLane="free"/>
  <flow id="JF241110" begin="480" fromJunction="J7" toJunction="J0" end="540" vehsPerHour="43.751534723458" departLane="free"/>
  <flow id="JF241111" begin="480" fromJunction="J7" toJunction="J3" end="540" vehsPerHour="5.9902855379699576" departLane="free"/>
  <flow id="JF241112" begin="480" fromJunction="J7" toJunction="J6" end="540" vehsPerHour="57.861595935289955" departLane="free"/>
  <flow id="JF241113" begin="540" fromJunction="J0" toJunction="J3" end="600" vehsPerHour="128.09713039738847" departLane="free"/>
  <flow id="JF241114" begin="540" fromJunction="J0" toJunction="J5" end="600" vehsPerHour="92.64293423630545" departLane="free"/>
  <flow id="JF241115" begin="540" fromJunction="J0" toJunction="J6" end="600" vehsPerHour="122.68696654968203" departLane="free"/>
  <flow id="JF241116" begin="540" fromJunction="J3" toJunction="J0" end="600" vehsPerHour="33.127991551069684" departLane="free"/>
  <flow id="JF241117" begin="540" fromJunction="J3" toJunction="J4" end="600" vehsPerHour="118.46291731622374" departLane="free"/>
  <flow id="JF241118" begin="540" fromJunction="J3" toJunction="J5" end="600" vehsPerHour="93.99487323202588" departLane="free"/>
  <flow id="JF241119" begin="540" fromJunction="J3" toJunction="J6" end="600" vehsPerHour="84.87162676895167" departLane="free"/>
  <flow id="JF241120" begin="540" fromJunction="J3" toJunction="J7" end="600" vehsPerHour="117.11868520570056" departLane="free"/>
  <flow id="JF241121" begin="540" fromJunction="J4" toJunction="J0" end="600" vehsPerHour="1.0019022656699375" departLane="free"/>
  <flow id="JF241122" begin="540" fromJunction="J4" toJunction="J3" end="600" vehsPerHour="26.046455369147935" departLane="free"/>
  <flow id="JF241123" begin="540" fromJunction="J4" toJunction="J5" end="600" vehsPerHour="3.041960953782811" departLane="free"/>
  <flow id="JF241124" begin="540" fromJunction="J4" toJunction="J7" end="600" vehsPerHour="13.607569966498291" departLane="free"/>
  <flow id="JF241125" begin="540" fromJunction="J5" toJunction="J0" end="600" vehsPerHour="27.269013921344193" departLane="free"/>
  <flow id="JF241126" begin="540" fromJunction="J5" toJunction="J3" end="600" vehsPerHour="36.47942906696977" departLane="free"/>
  <flow id="JF241127" begin="540" fromJunction="J5" toJunction="J4" end="600" vehsPerHour="20.246007956101096" departLane="free"/>
  <flow id="JF241128" begin="540" fromJunction="J5" toJunction="J6" end="600" vehsPerHour="32.818474072534336" departLane="free"/>
  <flow id="JF241129" begin="540" fromJunction="J5" toJunction="J7" end="600" vehsPerHour="66.02418382049464" departLane="free"/>
  <flow id="JF241130" begin="540" fromJunction="J6" toJunction="J5" end="600" vehsPerHour="45.16973654086074" departLane="free"/>
  <flow id="JF241131" begin="540" fromJunction="J6" toJunction="J7" end="600" vehsPerHour="61.771491543674976" departLane="free"/>
  <flow id="JF241132" begin="540" fromJunction="J7" toJunction="J0" end="600" vehsPerHour="17.888954317941877" departLane="free"/>
  <flow id="JF241133" begin="540" fromJunction="J7" toJunction="J3" end="600" vehsPerHour="19.427441151705786" departLane="free"/>
  <flow id="JF241134" begin="540" fromJunction="J7" toJunction="J4" end="600" vehsPerHour="16.155339542739583" departLane="free"/>
  <flow id="JF241135" begin="540" fromJunction="J7" toJunction="J5" end="600" vehsPerHour="65.25331830283554" departLane="free"/>
  <flow id="JF241136" begin="540" fromJunction="J7" toJunction="J6" end="600" vehsPerHour="4.209646408186705" departLane="free"/>
  <flow id="JF241137" begin="600" fromJunction="J0" toJunction="J3" end="660" vehsPerHour="71.8121184560444" departLane="free"/>
  <flow id="JF241138" begin="600" fromJunction="J0" toJunction="J4" end="660" vehsPerHour="96.6725185907311" departLane="free"/>
  <flow id="JF241139" begin="600" fromJunction="J0" toJunction="J5" end="660" vehsPerHour="61.37786632334145" departLane="free"/>
  <flow id="JF241140" begin="600" fromJunction="J0" toJunction="J7" end="660" vehsPerHour="57.57932905055367" departLane="free"/>
  <flow id="JF241141" begin="600" fromJunction="J3" toJunction="J4" end="660" vehsPerHour="78.95279597510398" departLane="free"/>
  <flow id="JF241142" begin="600" fromJunction="J3" toJunction="J5" end="660" vehsPerHour="91.51223590606935" departLane="free"/>
  <flow id="JF241143" begin="600" fromJunction="J3" toJunction="J6" end="660" vehsPerHour="76.97124791224786" departLane="free"/>
  <flow id="JF241144" begin="600" fromJunction="J3" toJunction="J7" end="660" vehsPerHour="47.60407828291843" departLane="free"/>
  <flow id="JF241145" begin="600" fromJunction="J4" toJunction="J0" end="660" vehsPerHour="37.0247753139301" departLane="free"/>
  <flow id="JF241146" begin="600" fromJunction="J4" toJunction="J3" end="660" vehsPerHour="38.666251879412584" departLane="free"/>
  <flow id="JF241147" begin="600" fromJunction="J4" toJunction="J7" end="660" vehsPerHour="11.383629810841548" departLane="free"/>