<?xml version="1.0" encoding="UTF-8"?>
<routes xmlns:xsi="http://www.w3.org/2001/XMLSchema-instance" xsi:noNamespaceSchemaLocation="http://sumo.dlr.de/xsd/routes_file.xsd">
  <flow id="JF248630" begin="0" fromJunction="J0" toJunction="J3" end="60" vehsPerHour="70.67604798777036" departLane="free"/>
  <flow id="JF248631" begin="0" fromJunction="J0" toJunction="J6" end="60" vehsPerHour="78.26029898476357" departLane="free"/>
  <flow id="JF248632" begin="0" fromJunction="J0" toJunction="J7" end="60" vehsPerHour="78.02720848364656" departLane="free"/>
  <flow id="JF248633" begin="0" fromJunction="J3" toJunction="J0" end="60" vehsPerHour="87.52258770685668" departLane="free"/>
  <flow id="JF248634" begin="0" fromJunction="J3" toJunction="J4" end="60" vehsPerHour="91.63585112513299" departLane="free"/>
  <flow id="JF248635" begin="0" fromJunction="J3" toJunction="J7" end="60" vehsPerHour="92.18619571660565" departLane="free"/>
  <flow id="JF248636" begin="0" fromJunction="J4" toJunction="J6" end="60" vehsPerHour="21.153031185593196" departLane="free"/>
  <flow id="JF248637" begin="0" fromJunction="J4" toJunction="J7" end="60" vehsPerHour="68.41178900274281" departLane="free"/>
  <flow id="JF248638" begin="0" fromJunction="J5" toJunction="J4" end="60" vehsPerHour="56.85905214332576" departLane="free"/>
  <flow id="JF248639" begin="0" fromJunction="J5" toJunction="J6" end="60" vehsPerHour="34.96915104857318" departLane="free"/>
  <flow id="JF248640" begin="0" fromJunction="J6" toJunction="J3" end="60" vehsPerHour="34.9624041663802" departLane="free"/>
  <flow id="JF248641" begin="0" fromJunction="J6" toJunction="J5" end="60" vehsPerHour="43.680600863735485" departLane="free"/>
  <flow id="JF248642" begin="0" fromJunction="J7" toJunction="J0" end="60" vehsPerHour="10.764880305241757" departLane="free"/>
  <flow id="JF248643" begin="0" fromJunction="J7" toJunction="J3" end="60" vehsPerHour="27.99328145139609" departLane="free"/>
  <flow id="JF248644" begin="0" fromJunction="J7" toJunction="J4" end="60" vehsPerHour="17.956607446171763" departLane="free"/>
  <flow id="JF248645" begin="0" fromJunction="J7" toJunction="J5" end="60" vehsPerHour="32.51275776401221" departLane="free"/>
  <flow id="JF248646" begin="0" fromJunction="J7" toJunction="J6" end="60" vehsPerHour="4.152026823531486" departLane="free"/>
  <flow id="JF248647" begin="60" fromJunction="J0" toJunction="J3" end="120" vehsPerHour="23.32649240367606" departLane="free"/>
  <flow id="JF248648" begin="60" fromJunction="J0" toJunction="J4" end="120" vehsPerHour="116.09472137756019" departLane="free"/>
  <flow id="JF248649" begin="60" fromJunction="J0" toJunction="J6" end="120" vehsPerHour="91.03195385960043" departLane="free"/>
  <flow id="JF248650" begin="60" fromJunction="J0" toJunction="J7" end="120" vehsPerHour="28.97869066437087" departLane="free"/>
  <flow id="JF248651" begin="60" fromJunction="J3" toJunction="J0" end="120" vehsPerHour="39.26313844148178" departLane="free"/>
  <flow id="JF248652" begin="60" fromJunction="J3" toJunction="J4" end="120" vehsPerHour="36.65788513574416" departLane="free"/>
  <flow id="JF248653" begin="60" fromJunction="J3" toJunction="J5" end="120" vehsPerHour="127.58352939668313" departLane="free"/>
  <flow id="JF248654" begin="60" fromJunction="J3" toJunction="J6" end="120" vehsPerHour="101.2262314728345" departLane="free"/>
  <flow id="JF248655" begin="60" fromJunction="J3" toJunction="J7" end="120" vehsPerHour="106.23711797723965" departLane="free"/>
  <flow id="JF248656" begin="60" fromJunction="J4" toJunction="J0" end="120" vehsPerHour="8.655450914261085" departLane="free"/>
  <flow id="JF248657" begin="60" fromJunction="J4" toJunction="J7" end="120" vehsPerHour="3.138231895955783" departLane="free"/>
  <flow id="JF248658" begin="60" fromJunction="J5" toJunction="J0" end="120" vehsPerHour="11.074818633092017" departLane="free"/>
  <flow id="JF248659" begin="60" fromJunction="J5" toJunction="J3" end="120" vehsPerHour="24.213803426937947" departLane="free"/>
  <flow id="JF248660" begin="60" fromJunction="J5" toJunction="J4" end="120" vehsPerHour="22.306990401749157" departLane="free"/>
  <flow id="JF248661" begin="60" fromJunction="J5" toJunction="J7" end="120" vehsPerHour="13.814821855679831" departLane="free"/>
  <flow id="JF248662" begin="60" fromJunction="J6" toJunction="J7" end="120" vehsPerHour="44.697605872613494" departLane="free"/>
  <flow id="JF248663" begin="60" fromJunction="J7" toJunction="J3" end="120" vehsPerHour="5.795961233498123" departLane="free"/>
  <flow id="JF248664" begin="60" fromJunction="J7" toJunction="J4" end="120" vehsPerHour="60.76912290826027" departLane="free"/>
  <flow id="JF248665" begin="120" fromJunction="J0" toJunction="J3" end="180" vehsPerHour="119.9819223745081" departLane="free"/>
  <flow id="JF248666" begin="120" fromJunction="J0" toJunction="J4" end="180" vehsPerHour="11.407605794492715" departLane="free"/>
  <flow id="JF248667" begin="120" fromJunction="J0" toJunction="J7" end="180" vehsPerHour="78.05409997534602" departLane="free"/>
  <flow id="JF248668" begin="120" fromJunction="J3" toJunction="J0" end="180" vehsPerHour="68.35114373491656" departLane="free"/>
  <flow id="JF248669" begin="120" fromJunction="J3" toJunction="J4" end="180" vehsPerHour="86.89270329120409" departLane="free"/>
  <flow id="JF248670" begin="120" fromJunction="J4" toJunction="J0" end="180" vehsPerHour="51.182546650697375" departLane="free"/>
  <flow id="JF248671" begin="120" fromJunction="J4" toJunction="J3" end="180" vehsPerHour="60.377325644061855" departLane="free"/>
  <flow id="JF248672" begin="120" fromJunction="J4" toJunction="J6" end="180" vehsPerHour="7.36967680840178" departLane="free"/>
  <flow id="JF248673" begin="120" fromJunction="J4" toJunction="J7" end="180" vehsPerHour="37.75708285621656" departLane="free"/>
  <flow id="JF248674" begin="120" fromJunction="J5" toJunction="J0" end="180" vehsPerHour="17.996968530054495" departLane="free"/>
  <flow id="JF248675" begin="120" fromJunction="J5" toJunction="J3" end="180" vehsPerHour="20.80961897491297" departLane="free"/>
  <flow id="JF248676" begin="120" fromJunction="J5" toJunction="J4" end="180" vehsPerHour="7.508083973547002" departLane="free"/>
  <flow id="JF248677" begin="120" fromJunction="J5" toJunction="J7" end="180" vehsPerHour="49.99096744186782" departLane="free"/>
  <flow id="JF248678" begin="120" fromJunction="J6" toJunction="J0" end="180" vehsPerHour="37.23727529188213" departLane="free"/>
  <flow id="JF248679" begin="120" fromJunction="J6" toJunction="J3" end="180" vehsPerHour="42.97194921883764" departLane="free"/>
  <flow id="JF248680" begin="120" fromJunction="J6" toJunction="J4" end="180" vehsPerHour="38.8443780056069" departLane="free"/>
  <flow id="JF248681" begin="120" fromJunction="J6" toJunction="J5" end="180" vehsPerHour="4.313573701564493" departLane="free"/>
  <flow id="JF248682" begin="120" fromJunction="J6" toJunction="J7" end="180" vehsPerHour="56.60645977301069" departLane="free"/>
  <flow id="JF248683" begin="120" fromJunction="J7" toJunction="J0" end="180" vehsPerHour="32.65885140603687" departLane="free"/>
  <flow id="JF248684" begin="120" fromJunction="J7" toJunction="J3" end="180" vehsPerHour="27.277910225938296" departLane="free"/>
  <flow id="JF248685" begin="120" fromJunction="J7" toJunction="J5" end="180" vehsPerHour="17.80632634455116" departLane="free"/>
  <flow id="JF248686" begin="180" fromJunction="J0" toJunction="J4" end="240" vehsPerHour="9.609712215307614" departLane="free"/>
  <flow id="JF248687" begin="180" fromJunction="J0" toJunction="J7" end="240" vehsPerHour="35.40112329231174" departLane="free"/>
  <flow id="JF248688" begin="180" fromJunction="J3" toJunction="J0" end="240" vehsPerHour="77.61110053279742" departLane="free"/>
  <flow id="JF248689" begin="180" fromJunction="J3" toJunction="J4" end="240" vehsPerHour="59.74335248917012" departLane="free"/>
  <flow id="JF248690" begin="180" fromJunction="J3" toJunction="J5" end="240" vehsPerHour="1.400819150106746" departLane="free"/>
  <flow id="JF248691" begin="180" fromJunction="J3" toJunction="J6" end="240" vehsPerHour="130.52276955641872" departLane="free"/>
  <flow id="JF248692" begin="180" fromJunction="J3" toJunction="J7" end="240" vehsPerHour="92.07914623188483" departLane="free"/>
  <flow id="JF248693" begin="180" fromJunction="J4" toJunction="J0" end="240" vehsPerHour="38.15721637347559" departLane="free"/>
  <flow id="JF248694" begin="180" fromJunction="J4" toJunction="J5" end="240" vehsPerHour="64.15775741201413" departLane="free"/>
  <flow id="JF248695" begin="180" fromJunction="J4" toJunction="J7" end="240" vehsPerHour="1.6355926997840524" departLane="free"/>
  <flow id="JF248696" begin="180" fromJunction="J5" toJunction="J0" end="240" vehsPerHour="50.12285750340314" departLane="free"/>
  <flow id="JF248697" begin="180" fromJunction="J5" toJunction="J7" end="240" vehsPerHour="68.41622106937301" departLane="free"/>
  <flow id="JF248698" begin="180" fromJunction="J6" toJunction="J0" end="240" vehsPerHour="44.48845394708136" departLane="free"/>
  <flow id="JF248699" begin="180" fromJunction="J6" toJunction="J3" end="240" vehsPerHour="1.3889567995983185" departLane="free"/>
  <flow id="JF248700" begin="180" fromJunction="J6" toJunction="J7" end="240" vehsPerHour="63.0067440516601" departLane="free"/>
  <flow id="JF248701" begin="180" fromJunction="J7" toJunction="J4" end="240" vehsPerHour="68.52742216152625" departLane="free"/>
  <flow id="JF248702" begin="180" fromJunction="J7" toJunction="J6" end="240" vehsPerHour="63.32842854323468" departLane="free"/>
  <flow id="JF248703" begin="240" fromJunction="J0" toJunction="J3" end="300" vehsPerHour="38.46603405840897" departLane="free"/>
  <flow id="JF248704" begin="240" fromJunction="J0" toJunction="J5" end="300" vehsPerHour="111.62657847371243" departLane="free"/>
  <flow id="JF248705" begin="240" fromJunction="J0" toJunction="J6" end="300" vehsPerHour="0.017714977504482567" departLane="free"/>
  <flow id="JF248706" begin="240" fromJunction="J0" toJunction="J7" end="300" vehsPerHour="133.1474763746871" departLane="free"/>
  <flow id="JF248707" begin="240" fromJunction="J3" toJunction="J0" end="300" vehsPerHour="61.75898653382053" departLane="free"/>
  <flow id="JF248708" begin="240" fromJunction="J3" toJunction="J4" end="300" vehsPerHour="125.95411395499667" departLane="free"/>
  <flow id="JF248709" begin="240" fromJunction="J3" toJunction="J5" end="300" vehsPerHour="35.41675115520548" departLane="free"/>
  <flow id="JF248710" begin="240" fromJunction="J3" toJunction="J6" end="300" vehsPerHour="95.24440780713144" departLane="free"/>
  <flow id="JF248711" begin="240" fromJunction="J4" toJunction="J0" end="300" vehsPerHour="57.764016407187974" departLane="free"/>
  <flow id="JF248712" begin="240" fromJunction="J4" toJunction="J3" end="300" vehsPerHour="55.934568001422925" departLane="free"/>
  <flow id="JF248713" begin="240" fromJunction="J4" toJunction="J5" end="300" vehsPerHour="42.29314026736224" departLane="free"/>
  <flow id="JF248714" begin="240" fromJunction="J4" toJunction="J6" end="300" vehsPerHour="58.867725290355175" departLane="free"/>
  <flow id="JF248715" begin="240" fromJunction="J4" toJunction="J7" end="300" vehsPerHour="25.216105430928927" departLane="free"/>
  <flow id="JF248716" begin="240" fromJunction="J5" toJunction="J3" end="300" vehsPerHour="55.47754454637246" departLane="free"/>
  <flow id="JF248717" begin="240" fromJunction="J5" toJunction="J4" end="300" vehsPerHour="38.91737980809592" departLane="free"/>
  <flow id="JF248718" begin="240" fromJunction="J5" toJunction="J6" end="300" vehsPerHour="33.75675986390828" departLane="free"/>
  <flow id="JF248719" begin="240" fromJunction="J6" toJunction="J0" end="300" vehsPerHour="48.59592715836436" departLane="free"/>
  <flow id="JF248720" begin="240" fromJunction="J6" toJunction="J5" end="300" vehsPerHour="33.80028582630111" departLane="free"/>
  <flow id="JF248721" begin="240" fromJunction="J6" toJunction="J7" end="300" vehsPerHour="29.860763857363448" departLane="free"/>
  <flow id="JF248722" begin="240" fromJunction="J7" toJunction="J0" end="300" vehsPerHour="49.7364063094946" departLane="free"/>
  <flow id="JF248723" begin="240" fromJunction="J7" toJunction="J5" end="300" vehsPerHour="40.150646738154265" departLane="free"/>
  <flow id="JF248724" begin="240" fromJunction="J7" toJunction="J6" end="300" vehsPerHour="51.55991440900983" departLane="free"/>
  <flow id="JF248725" begin="300" fromJunction="J0" toJunction="J3" end="360" vehsPerHour="36.374504691562585" departLane="free"/>
  <flow id="JF248726" begin="300" fromJunction="J0" toJunction="J5" end="360" vehsPerHour="123.36729152032626" departLane="free"/>
  <flow id="JF248727" begin="300" fromJunction="J0" toJunction="J6" end="360" vehsPerHour="96.81743484101472" departLane="free"/>
  <flow id="JF248728" begin="300" fromJunction="J0" toJunction="J7" end="360" vehsPerHour="90.09326134061423" departLane="free"/>
  <flow id="JF248729" begin="300" fromJunction="J3" toJunction="J0" end="360" vehsPerHour="116.67963928929987" departLane="free"/>
  <flow id="JF248730" begin="300" fromJunction="J3" toJunction="J4" end="360" vehsPerHour="121.45323560145657" departLane="free"/>
  <flow id="JF248731" begin="300" fromJunction="J3" toJunction="J5" end="360" vehsPerHour="115.09549930013381" departLane="free"/>
  <flow id="JF248732" begin="300" fromJunction="J3" toJunction="J6" end="360" vehsPerHour="102.2280508340313" departLane="free"/>
  <flow id="JF248733" begin="300" fromJunction="J3" toJunction="J7" end="360" vehsPerHour="110.58542172286724" departLane="free"/>
  <flow id="JF248734" begin="300" fromJunction="J4" toJunction="J0" end="360" vehsPerHour="68.46765885751124" departLane="free"/>
  <flow id="JF248735" begin="300" fromJunction="J4" toJunction="J3" end="360" vehsPerHour="55.774362185622564" departLane="free"/>
  <flow id="JF248736" begin="300" fromJunction="J4" toJunction="J6" end="360" vehsPerHour="30.511707382327295" departLane="free"/>
  <flow id="JF248737" begin="300" fromJunction="J4" toJunction="J7" end="360" vehsPerHour="50.78101050062576" departLane="free"/>
  <flow id="JF248738" begin="300" fromJunction="J5" toJunction="J0" end="360" vehsPerHour="22.256365293197998" departLane="free"/>
  <flow id="JF248739" begin="300" fromJunction="J5" toJunction="J4" end="360" vehsPerHour="3.923441448216071" departLane="free"/>
  <flow id="JF248740" begin="300" fromJunction="J5" toJunction="J7" end="360" vehsPerHour="50.7218273967491" departLane="free"/>
  <flow id="JF248741" begin="300" fromJunction="J6" toJunction="J0" end="360" vehsPerHour="20.942571376148603" departLane="free"/>
  <flow id="JF248742" begin="300" fromJunction="J6" toJunction="J3" end="360" vehsPerHour="50.91769046011267" departLane="free"/>
  <flow id="JF248743" begin="300" fromJunction="J6" toJunction="J4" end="360" vehsPerHour="65.77248610590404" departLane="free"/>
  <flow id="JF248744" begin="300" fromJunction="J7" toJunction="J0" end="360" vehsPerHour="16.387760637847826" departLane="free"/>
  <flow id="JF248745" begin="300" fromJunction="J7" toJunction="J3" end="360" vehsPerHour="26.163376953671232" departLane="free"/>
  <flow id="JF248746" begin="300" fromJunction="J7" toJunction="J4" end="360" vehsPerHour="20.271840192403108" departLane="free"/>
  <flow id="JF248747" begin="300" fromJunction="J7" toJunction="J5" end="360" vehsPerHour="35.59342138369877" departLane="free"/>
  <flow id="JF248748" begin="300" fromJunction="J7" toJunction="J6" end="360" vehsPerHour="32.71009116663422" departLane="free"/>
  <flow id="JF248749" begin="360" fromJunction="J0" toJunction="J3" end="420" vehsPerHour="46.677156188436484" departLane="free"/>
  <flow id="JF248750" begin="360" fromJunction="J0" toJunction="J4" end="420" vehsPerHour="23.335029613268386" departLane="free"/>
  <flow id="JF248751" begin="360" fromJunction="J0" toJunction="J5" end="420" vehsPerHour="62.907788368586004" departLane="free"/>
  <flow id="JF248752" begin="360" fromJunction="J0" toJunction="J7" end="420" vehsPerHour="103.51588716548737" departLane="free"/>
  <flow id="JF248753" begin="360" fromJunction="J3" toJunction="J0" end="420" vehsPerHour="102.67939008059254" departLane="free"/>
  <flow id="JF248754" begin="360" fromJunction="J3" toJunction="J4" end="420" vehsPerHour="43.73153252585843" departLane="free"/>
  <flow id="JF248755" begin="360" fromJunction="J3" toJunction="J5" end="420" vehsPerHour="4.728124216230079" departLane="free"/>
  <flow id="JF248756" begin="360" fromJunction="J3" toJunction="J7" end="420" vehsPerHour="129.60289360144463" departLane="free"/>
  <flow id="JF248757" begin="360" fromJunction="J4" toJunction="J3" end="420" vehsPerHour="53.7589128579649" departLane="free"/>
  <flow id="JF248758" begin="360" fromJunction="J4" toJunction="J6" end="420" vehsPerHour="44.80335340584569" departLane="free"/>
  <flow id="JF248759" begin="360" fromJunction="J5" toJunction="J0" end="420" vehsPerHour="2.965488603994579" departLane="free"/>
  <flow id="JF248760" begin="360" fromJunction="J5" toJunction="J3" end="420" vehsPerHour="67.46651193314683" departLane="free"/>
  <flow id="JF248761" begin="360" fromJunction="J5" toJunction="J4" end="420" vehsPerHour="39.53589046785931" departLane="free"/>
  <flow id="JF248762" begin="360" fromJunction="J5" toJunction="J6" end="420" vehsPerHour="16.59615799962679" departLane="free"/>
  <flow id="JF248763" begin="360" fromJunction="J5" toJunction="J7" end="420" vehsPerHour="63.308747400925085" departLane="free"/>
  <flow id="JF248764" begin="360" fromJunction="J7" toJunction="J5" end="420" vehsPerHour="54.520048189469264" departLane="free"/>
  <flow id="JF248765" begin="360" fromJunction="J7" toJunction="J6" end="420" vehsPerHour="57.96522254252302" departLane="free"/>
  <flow id="JF248766" begin="420" fromJunction="J0" toJunction="J3" end="480" vehsPerHour="11.226949639109737" departLane="free"/>
  <flow id="JF248767" begin="420" fromJunction="J0" toJunction="J4" end="480" vehsPerHour="53.25738900012184" departLane="free"/>
  <flow id="JF248768" begin="420" fromJunction="J0" toJunction="J5" end="480" vehsPerHour="67.99700323217034" departLane="free"/>
  <flow id="JF248769" begin="420" fromJunction="J0" toJunction="J6" end="480" vehsPerHour="5.137698510201958" departLane="free"/>
  <flow id="JF248770" begin="420" fromJunction="J3" toJunction="J0" end="480" vehsPerHour="53.26064767036469" departLane="free"/>
  <flow id="JF248771" begin="420" fromJunction="J3" toJunction="J5" end="480" vehsPerHour="102.21496124302107" departLane="free"/>
  <flow id="JF248772" begin="420" fromJunction="J3" toJunction="J6" end="480" vehsPerHour="97.2892736039271" departLane="free"/>
  <flow id="JF248773" begin="420" fromJunction="J4" toJunction="J0" end="480" vehsPerHour="36.844420160015886" departLane="free"/>
  <flow id="JF248774" begin="420" fromJunction="J4" toJunction="J3" end="480" vehsPerHour="52.07749638916627" departLane="free"/>
  <flow id="JF248775" begin="420" fromJunction="J4" toJunction="J5" end="480" vehsPerHour="11.15348617029635" departLane="free"/>
  <flow id="JF248776" begin="420" fromJunction="J4" toJunction="J6" end="480" vehsPerHour="10.873152243538721" departLane="free"/>
  <flow id="JF248777" begin="420" fromJunction="J4" toJunction="J7" end="480" vehsPerHour="43.875458082985084" departLane="free"/>
  <flow id="JF248778" begin="420" fromJunction="J5" toJunction="J0" end="480" vehsPerHour="36.04537366764744" departLane="free"/>
  <flow id="JF248779" begin="420" fromJunction="J5" toJunction="J7" end="480" vehsPerHour="45.007505460703335" departLane="free"/>
  <flow id="JF248780" begin="420" fromJunction="J6" toJunction="J3" end="480" vehsPerHour="67.8413876052852" departLane="free"/>
  <flow id="JF248781" begin="420" fromJunction="J6" toJunction="J7" end="480" vehsPerHour="9.96003038607237" departLane="free"/>
  <flow id="JF248782" begin="420" fromJunction="J7" toJunction="J0" end="480" vehsPerHour="62.6592871622171" departLane="free"/>
  <flow id="JF248783" begin="420" fromJunction="J7" toJunction="J3" end="480" vehsPerHour="36.490614566997706" departLane="free"/>
  <flow id="JF248784" begin="420" fromJunction="J7" toJunction="J4" end="480" vehsPerHour="18.421765635017795" departLane="free"/>
  <flow id="JF248785" begin="420" fromJunction="J7" toJunction="J6" end="480" vehsPerHour="41.13746495114581" departLane="free"/>
  <flow id="JF248786" begin="480" fromJunction="J0" toJunction="J5" end="540" vehsPerHour="29.85222878312739" departLane="free"/>
  <flow id="JF248787" begin="480" fromJunction="J0" toJunction="J6" end="540" vehsPerHour="3.127021102932488" departLane="free"/>
  <flow id="JF248788" begin="480" fromJunction="J0" toJunction="J7" end="540" vehsPerHour="41.81653073159556" departLane="free"/>
  <flow id="JF248789" begin="480" fromJunction="J3" toJunction="J0" end="540" vehsPerHour="6.4244257193339696" departLane="free"/>
  <flow id="JF248790" begin="480" fromJunction="J3" toJunction="J4" end="540" vehsPerHour="134.01103688331224" departLane="free"/>
  <flow id="JF248791" begin="480" fromJunction="J3" toJunction="J5" end="540" vehsPerHour="125.15972005634426" departLane="free"/>
  <flow id="JF248792" begin="480" fromJunction="J3" toJunction="J6" end="540" vehsPerHour="20.22931503391184" departLane="free"/>
  <flow id="JF248793" begin="480" fromJunction="J3" toJunction="J7" end="540" vehsPerHour="77.9100497340816" departLane="free"/>
  <flow id="JF248794" begin="480" fromJunction="J4" toJunction="J0" end="540" vehsPerHour="42.758760250556" departLane="free"/>
  <flow id="JF248795" begin="480" fromJunction="J4" toJunction="J3" end="540" vehsPerHour="67.75515855905186" departLane="free"/>
  <flow id="JF248796" begin="480" fromJunction="J4" toJunction="J6" end="540" vehsPerHour="28.181320176447112" departLane="free"/>
  <flow id="JF248797" begin="480" fromJunction="J4" toJunction="J7" end="540" vehsPerHour="40.17447364741636" departLane="free"/>
  <flow id="JF248798" begin="480" fromJunction="J5" toJunction="J0" end="540" vehsPerHour="41.049753838952384" departLane="free"/>
  <flow id="JF248799" begin="480" fromJunction="J5" toJunction="J4" end="540" vehsPerHour="46.433298037156966" departLane="free"/>
  <flow id="JF248800" begin="480" fromJunction="J5" toJunction="J6" end="540" vehsPerHour="59.930217541918815" departLane="free"/>
  <flow id="JF248801" begin="480" fromJunction="J5" toJunction="J7" end="540" vehsPerHour="18.198489756137057" departLane="free"/>
  <flow id="JF248802" begin="480" fromJunction="J6" toJunction="J0" end="540" vehsPerHour="36.09827394086065" departLane="free"/>
  <flow id="JF248803" begin="480" fromJunction="J6" toJunction="J3" end="540" vehsPerHour="34.50152911447881" departLane="free"/>
  <flow id="JF248804" begin="480" fromJunction="J6" toJunction="J4" end="540" vehsPerHour="41.88298805642756" departLane="free"/>
  <flow id="JF248805" begin="480" fromJunction="J6" toJunction="J5" end="540" vehsPerHour="59.89344946377048" departLane="free"/>
  <flow id="JF248806" begin="480" fromJunction="J6" toJunction="J7" end="540" vehsPerHour="25.750748560975364" departLane="free"/>
  <flow id="JF248807" begin="480" fromJunction="J7" toJunction="J3" end="540" vehsPerHour="21.042060231561308" departLane="free"/>
  <flow id="JF248808" begin="480" fromJunction="J7" toJunction="J4" end="540" vehsPerHour="60.83729951079547" departLane="free"/>
  <flow id="JF248809" begin="480" fromJunction="J7" toJunction="J5" end="540" vehsPerHour="16.031638362099645" departLane="free"/>
  <flow id="JF248810" begin="480" fromJunction="J7" toJunction="J6" end="540" vehsPerHour="66.07995591506563" departLane="free"/>
  <flow id="JF248811" begin="540" fromJunction="J0" toJunction="J3" end="600" vehsPerHour="88.72354787087919" departLane="free"/>
  <flow id="JF248812" begin="540" fromJunction="J0" toJunction="J4" end="600" vehsPerHour="42.02107620026375" departLane="free"/>
  <flow id="JF248813" begin="540" fromJunction="J0" toJunction="J7" end="600" vehsPerHour="1.4674416766911607" departLane="free"/>
  <flow id="JF248814" begin="540" fromJunction="J3" toJunction="J0" end="600" vehsPerHour="3.177786818507818" departLane="free"/>
  <flow id="JF248815" begin="540" fromJunction="J3" toJunction="J4" end="600" vehsPerHour="46.75635909636805" departLane="free"/>
  <flow id="JF248816" begin="540" fromJunction="J3" toJunction="J5" end="600" vehsPerHour="91.70342899568836" departLane="free"/>
  <flow id="JF248817" begin="540" fromJunction="J3" toJunction="J6" end="600" vehsPerHour="68.62162997127533" departLane="free"/>
  <flow id="JF248818" begin="540" fromJunction="J3" toJunction="J7" end="600" vehsPerHour="74.18898571891181" departLane="free"/>
  <flow id="JF248819" begin="540" fromJunction="J4" toJunction="J0" end="600" vehsPerHour="50.596003266304166" departLane="free"/>
  <flow id="JF248820" begin="540" fromJunction="J4" toJunction="J3" end="600" vehsPerHour="23.43284497106848" departLane="free"/>
  <flow id="JF248821" begin="540" fromJunction="J4" toJunction="J7" end="600" vehsPerHour="52.54015565108095" departLane="free"/>
  <flow id="JF248822" begin="540" fromJunction="J5" toJunction="J0" end="600" vehsPerHour="65.58966553629612" departLane="free"/>
  <flow id="JF248823" begin="540" fromJunction="J5" toJunction="J3" end="600" vehsPerHour="20.955099935280536" departLane="free"/>
  <flow id="JF248824" begin="540" fromJunction="J5" toJunction="J4" end="600" vehsPerHour="62.831077818881624" departLane="free"/>
  <flow id="JF248825" begin="540" fromJunction="J5" toJunction="J7" end="600" vehsPerHour="26.991065939791188" departLane="free"/>
  <flow id="JF248826" begin="540" fromJunction="J6" toJunction="J0" end="600" vehsPerHour="44.94202964722135" departLane="free"/>
  <flow id="JF248827" begin="540" fromJunction="J6" toJunction="J3" end="600" vehsPerHour="60.70990486480787" departLane="free"/>
  <flow id="JF248828" begin="540" fromJunction="J6" toJunction="J4" end="600" vehsPerHour="8.638733158366227" departLane="free"/>
  <flow id="JF248829" begin="540" fromJunction="J6" toJunction="J5" end="600" vehsPerHour="68.28255396272692" departLane="free"/>
  <flow id="JF248830" begin="540" fromJunction="J7" toJunction="J6" end="600" vehsPerHour="65.68451106841616" departLane="free"/>
  <flow id="JF248831" begin="600" fromJunction="J0" toJunction="J3" end="660" vehsPerHour="22.78554943273878" departLane="free"/>
  <flow id="JF248832" begin="600" fromJunction="J0" toJunction="J4" end="660" vehsPerHour="25.296168451037868" departLane="free"/>
  <flow id="JF248833" begin="600" fromJunction="J0" toJunction="J6" end="660" vehsPerHour="57.531419054372336" departLane="free"/>
  <flow id="JF248834" begin="600" fromJunction="J0" toJunction="J7" end="660" vehsPerHour="55.35900733485964" departLane="free"/>
  <flow id="JF248835" begin="600" fromJunction="J3" toJunction="J0" end="660" vehsPerHour="83.45777690870284" departLane="free"/>
  <flow id="JF248836" begin="600" fromJunction="J3" toJunction="J4" end="660" vehsPerHour="52.21836099595481" departLane="free"/>
  <flow id="JF248837" begin="600" fromJunction="J3" toJunction="J7" end="660" vehsPerHour="50.69159392313933" departLane="free"/>
  <flow id="JF248838" begin="600" fromJunction="J4" toJunction="J0" end="660" vehsPerHour="18.77548523108737" departLane="free"/>
  <flow id="JF248839" begin="600" fromJunction="J4" toJunction="J5" end="660" vehsPerHour="54.039333303287385" departLane="free"/>
  <flow id="JF248840" begin="600" fromJunction="J4" toJunction="J6" end="660" vehsPerHour="36.58189939571917" departLane="free"/>
  <flow id="JF248841" begin="600" fromJunction="J4" toJunction="J7" end="660" vehsPerHour="4.50939636891875" departLane="free"/>
  <flow id="JF248842" begin="600" fromJunction="J5" toJunction="J3" end="660" vehsPerHour="57.3215619715066" departLane="free"/>
  <flow id="JF248843" begin="600" fromJunction="J5" toJunction="J6" end="660" vehsPerHour="32.540078989422945" departLane="free"/>
  <flow id="JF248844" begin="600" fromJunction="J5" toJunction="J7" end="660" vehsPerHour="9.162940669964918" departLane="free"/>
  <flow id="JF248845" begin="600" fromJunction="J6" toJunction="J3" end="660" vehsPerHour="19.992420870343388" departLane="free"/>
  <flow id="JF248846" begin="600" fromJunction="J6" toJunction="J4" end="660" vehsPerHour="22.70861944725889" departLane="free"/>
  <flow id="JF248847" begin="600" fromJunction="J6" toJunction="J5" end="660" vehsPerHour="34.34930940135328" departLane="free"/>
  <flow id="JF248848" begin="600" fromJunction="J6" toJunction="J7" end="660" vehsPerHour="15.226574301263007" departLane="free"/>
  <flow id="JF248849" begin="600" fromJunction="J7" toJunction="J3" end="660" vehsPerHour="64.34517831160045" departLane="free"/>
  <flow id="JF248850" begin="660" fromJunction="J0" toJunction="J3" end="720" vehsPerHour="70.85143141081869" departLane="free"/>
  <flow id="JF248851" begin="660" fromJunction="J0" toJunction="J6" end="720" vehsPerHour="88.71760284767115" departLane="free"/>
  <flow id="JF248852" begin="660" fromJunction="J0" toJunction="J7" end="720" vehsPerHour="57.77306925001511" departLane="free"/>
  <flow id="JF248853" begin="660" fromJunction="J3" toJunction="J0" end="720" vehsPerHour="28.81072532997659" departLane="free"/>
  <flow id="JF248854" begin="660" fromJunction="J3" toJunction="J4" end="720" vehsPerHour="122.24159362036418" departLane="free"/>
  <flow id="JF248855" begin="660" fromJunction="J3" toJunction="J7" end="720" vehsPerHour="7.2924315613019095" departLane="free"/>
  <flow id="JF248856" begin="660" fromJunction="J4" toJunction="J0" end="720" vehsPerHour="60.29282249129716" departLane="free"/>
  <flow id="JF248857" begin="660" fromJunction="J4" toJunction="J3" end="720" vehsPerHour="49.31204898444358" departLane="free"/>
  <flow id="JF248858" begin="660" fromJunction="J4" toJunction="J5" end="720" vehsPerHour="50.38523287552793" departLane="free"/>