<?xml version="1.0" encoding="UTF-8"?>
<routes xmlns:xsi="http://www.w3.org/2001/XMLSchema-instance" xsi:noNamespaceSchemaLocation="http://sumo.dlr.de/xsd/routes_file.xsd">
  <flow id="JF236981" begin="0" fromJunction="J0" toJunction="J3" end="60" vehsPerHour="56.594337860848526" departLane="free"/>
  <flow id="JF236982" begin="0" fromJunction="J0" toJunction="J4" end="60" vehsPerHour="122.82902224927895" departLane="free"/>
  <flow id="JF236983" begin="0" fromJunction="J0" toJunction="J6" end="60" vehsPerHour="0.12585734964273995" departLane="free"/>
  <flow id="JF236984" begin="0" fromJunction="J0" toJunction="J7" end="60" vehsPerHour="69.55121644951609" departLane="free"/>
  <flow id="JF236985" begin="0" fromJunction="J3" toJunction="J0" end="60" vehsPerHour="130.0115061227031" departLane="free"/>
  <flow id="JF236986" begin="0" fromJunction="J3" toJunction="J5" end="60" vehsPerHour="19.04225059376167" departLane="free"/>
  <flow id="JF236987" begin="0" fromJunction="J3" toJunction="J6" end="60" vehsPerHour="103.4798459012124" departLane="free"/>
  <flow id="JF236988" begin="0" fromJunction="J4" toJunction="J3" end="60" vehsPerHour="43.3188489723844" departLane="free"/>
  <flow id="JF236989" begin="0" fromJunction="J4" toJunction="J5" end="60" vehsPerHour="55.72404512099586" departLane="free"/>
  <flow id="JF236990" begin="0" fromJunction="J4" toJunction="J7" end="60" vehsPerHour="13.100285755535698" departLane="free"/>
  <flow id="JF236991" begin="0" fromJunction="J5" toJunction="J0" end="60" vehsPerHour="18.029668429794114" departLane="free"/>
  <flow id="JF236992" begin="0" fromJunction="J5" toJunction="J3" end="60" vehsPerHour="32.347406139863374" departLane="free"/>
  <flow id="JF236993" begin="0" fromJunction="J5" toJunction="J7" end="60" vehsPerHour="18.868089409033466" departLane="free"/>
  <flow id="JF236994" begin="0" fromJunction="J6" toJunction="J0" end="60" vehsPerHour="14.220188899308317" departLane="free"/>
  <flow id="JF236995" begin="0" fromJunction="J6" toJunction="J3" end="60" vehsPerHour="15.282201395427503" departLane="free"/>
  <flow id="JF236996" begin="0" fromJunction="J6" toJunction="J4" end="60" vehsPerHour="3.9084160845238474" departLane="free"/>
  <flow id="JF236997" begin="0" fromJunction="J6" toJunction="J7" end="60" vehsPerHour="9.943330496039767" departLane="free"/>
  <flow id="JF236998" begin="0" fromJunction="J7" toJunction="J0" end="60" vehsPerHour="51.87264178540477" departLane="free"/>
  <flow id="JF236999" begin="0" fromJunction="J7" toJunction="J3" end="60" vehsPerHour="50.92280521739249" departLane="free"/>
  <flow id="JF237000" begin="0" fromJunction="J7" toJunction="J4" end="60" vehsPerHour="66.05414033934652" departLane="free"/>
  <flow id="JF237001" begin="0" fromJunction="J7" toJunction="J5" end="60" vehsPerHour="28.407215869654813" departLane="free"/>
  <flow id="JF237002" begin="0" fromJunction="J7" toJunction="J6" end="60" vehsPerHour="6.661702999892214" departLane="free"/>
  <flow id="JF237003" begin="60" fromJunction="J0" toJunction="J3" end="120" vehsPerHour="66.2491263360729" departLane="free"/>
  <flow id="JF237004" begin="60" fromJunction="J0" toJunction="J4" end="120" vehsPerHour="135.74614299912204" departLane="free"/>
  <flow id="JF237005" begin="60" fromJunction="J0" toJunction="J5" end="120" vehsPerHour="46.393086851320895" departLane="free"/>
  <flow id="JF237006" begin="60" fromJunction="J3" toJunction="J0" end="120" vehsPerHour="130.43537484475954" departLane="free"/>
  <flow id="JF237007" begin="60" fromJunction="J3" toJunction="J4" end="120" vehsPerHour="12.583636972777642" departLane="free"/>
  <flow id="JF237008" begin="60" fromJunction="J3" toJunction="J6" end="120" vehsPerHour="103.01257181046768" departLane="free"/>
  <flow id="JF237009" begin="60" fromJunction="J3" toJunction="J7" end="120" vehsPerHour="19.516868129712748" departLane="free"/>
  <flow id="JF237010" begin="60" fromJunction="J4" toJunction="J0" end="120" vehsPerHour="62.1614629644912" departLane="free"/>
  <flow id="JF237011" begin="60" fromJunction="J4" toJunction="J5" end="120" vehsPerHour="62.58823907191056" departLane="free"/>
  <flow id="JF237012" begin="60" fromJunction="J4" toJunction="J6" end="120" vehsPerHour="32.645280451286155" departLane="free"/>
  <flow id="JF237013" begin="60" fromJunction="J4" toJunction="J7" end="120" vehsPerHour="39.50733914003256" departLane="free"/>
  <flow id="JF237014" begin="60" fromJunction="J5" toJunction="J0" end="120" vehsPerHour="28.68534887367273" departLane="free"/>
  <flow id="JF237015" begin="60" fromJunction="J5" toJunction="J3" end="120" vehsPerHour="50.34497577577373" departLane="free"/>
  <flow id="JF237016" begin="60" fromJunction="J5" toJunction="J4" end="120" vehsPerHour="43.63688125140476" departLane="free"/>
  <flow id="JF237017" begin="60" fromJunction="J5" toJunction="J7" end="120" vehsPerHour="48.116110464652564" departLane="free"/>
  <flow id="JF237018" begin="60" fromJunction="J6" toJunction="J0" end="120" vehsPerHour="15.454214971627538" departLane="free"/>
  <flow id="JF237019" begin="60" fromJunction="J6" toJunction="J3" end="120" vehsPerHour="21.80382370464796" departLane="free"/>
  <flow id="JF237020" begin="60" fromJunction="J6" toJunction="J4" end="120" vehsPerHour="44.023996887494306" departLane="free"/>
  <flow id="JF237021" begin="60" fromJunction="J6" toJunction="J5" end="120" vehsPerHour="2.4149549767561433" departLane="free"/>
  <flow id="JF237022" begin="60" fromJunction="J6" toJunction="J7" end="120" vehsPerHour="2.5519756195044554" departLane="free"/>
  <flow id="JF237023" begin="60" fromJunction="J7" toJunction="J3" end="120" vehsPerHour="47.73633312889356" departLane="free"/>
  <flow id="JF237024" begin="60" fromJunction="J7" toJunction="J4" end="120" vehsPerHour="44.83198541639767" departLane="free"/>
  <flow id="JF237025" begin="120" fromJunction="J0" toJunction="J3" end="180" vehsPerHour="98.9248319761852" departLane="free"/>
  <flow id="JF237026" begin="120" fromJunction="J0" toJunction="J5" end="180" vehsPerHour="61.75868412983631" departLane="free"/>
  <flow id="JF237027" begin="120" fromJunction="J0" toJunction="J6" end="180" vehsPerHour="24.855271444950898" departLane="free"/>
  <flow id="JF237028" begin="120" fromJunction="J0" toJunction="J7" end="180" vehsPerHour="127.51562531958821" departLane="free"/>
  <flow id="JF237029" begin="120" fromJunction="J3" toJunction="J0" end="180" vehsPerHour="60.33520425123382" departLane="free"/>
  <flow id="JF237030" begin="120" fromJunction="J3" toJunction="J4" end="180" vehsPerHour="3.983264092161249" departLane="free"/>
  <flow id="JF237031" begin="120" fromJunction="J3" toJunction="J6" end="180" vehsPerHour="89.8604913519204" departLane="free"/>
  <flow id="JF237032" begin="120" fromJunction="J4" toJunction="J3" end="180" vehsPerHour="17.797048971950492" departLane="free"/>
  <flow id="JF237033" begin="120" fromJunction="J4" toJunction="J5" end="180" vehsPerHour="10.130897571300654" departLane="free"/>
  <flow id="JF237034" begin="120" fromJunction="J4" toJunction="J6" end="180" vehsPerHour="13.547944785243379" departLane="free"/>
  <flow id="JF237035" begin="120" fromJunction="J4" toJunction="J7" end="180" vehsPerHour="17.578897740130206" departLane="free"/>
  <flow id="JF237036" begin="120" fromJunction="J5" toJunction="J0" end="180" vehsPerHour="22.128416684508263" departLane="free"/>
  <flow id="JF237037" begin="120" fromJunction="J5" toJunction="J3" end="180" vehsPerHour="42.5507208754217" departLane="free"/>
  <flow id="JF237038" begin="120" fromJunction="J5" toJunction="J4" end="180" vehsPerHour="18.617060518600123" departLane="free"/>
  <flow id="JF237039" begin="120" fromJunction="J5" toJunction="J7" end="180" vehsPerHour="15.754138955572694" departLane="free"/>
  <flow id="JF237040" begin="120" fromJunction="J6" toJunction="J3" end="180" vehsPerHour="42.024584224135225" departLane="free"/>
  <flow id="JF237041" begin="120" fromJunction="J6" toJunction="J4" end="180" vehsPerHour="30.51163557537784" departLane="free"/>
  <flow id="JF237042" begin="120" fromJunction="J6" toJunction="J5" end="180" vehsPerHour="30.49294269156578" departLane="free"/>
  <flow id="JF237043" begin="120" fromJunction="J6" toJunction="J7" end="180" vehsPerHour="41.18243852764593" departLane="free"/>
  <flow id="JF237044" begin="120" fromJunction="J7" toJunction="J3" end="180" vehsPerHour="0.14574671691308072" departLane="free"/>
  <flow id="JF237045" begin="120" fromJunction="J7" toJunction="J4" end="180" vehsPerHour="1.873674807651011" departLane="free"/>
  <flow id="JF237046" begin="120" fromJunction="J7" toJunction="J6" end="180" vehsPerHour="43.19049301982115" departLane="free"/>
  <flow id="JF237047" begin="180" fromJunction="J0" toJunction="J3" end="240" vehsPerHour="6.846985244276044" departLane="free"/>
  <flow id="JF237048" begin="180" fromJunction="J0" toJunction="J4" end="240" vehsPerHour="127.30297345361198" departLane="free"/>
  <flow id="JF237049" begin="180" fromJunction="J0" toJunction="J6" end="240" vehsPerHour="118.32768264771224" departLane="free"/>
  <flow id="JF237050" begin="180" fromJunction="J0" toJunction="J7" end="240" vehsPerHour="30.5366064848446" departLane="free"/>
  <flow id="JF237051" begin="180" fromJunction="J3" toJunction="J4" end="240" vehsPerHour="21.976830897557473" departLane="free"/>
  <flow id="JF237052" begin="180" fromJunction="J3" toJunction="J6" end="240" vehsPerHour="127.2705079801172" departLane="free"/>
  <flow id="JF237053" begin="180" fromJunction="J3" toJunction="J7" end="240" vehsPerHour="122.40412515256901" departLane="free"/>
  <flow id="JF237054" begin="180" fromJunction="J4" toJunction="J0" end="240" vehsPerHour="27.068060799958385" departLane="free"/>
  <flow id="JF237055" begin="180" fromJunction="J4" toJunction="J5" end="240" vehsPerHour="37.00803677909922" departLane="free"/>
  <flow id="JF237056" begin="180" fromJunction="J4" toJunction="J6" end="240" vehsPerHour="17.824450782867526" departLane="free"/>
  <flow id="JF237057" begin="180" fromJunction="J5" toJunction="J0" end="240" vehsPerHour="33.22164413940333" departLane="free"/>
  <flow id="JF237058" begin="180" fromJunction="J5" toJunction="J3" end="240" vehsPerHour="12.130608950520351" departLane="free"/>
  <flow id="JF237059" begin="180" fromJunction="J5" toJunction="J4" end="240" vehsPerHour="67.1730183047257" departLane="free"/>
  <flow id="JF237060" begin="180" fromJunction="J5" toJunction="J6" end="240" vehsPerHour="59.726065436309845" departLane="free"/>
  <flow id="JF237061" begin="180" fromJunction="J5" toJunction="J7" end="240" vehsPerHour="33.64238108178302" departLane="free"/>
  <flow id="JF237062" begin="180" fromJunction="J6" toJunction="J0" end="240" vehsPerHour="21.067029291683415" departLane="free"/>
  <flow id="JF237063" begin="180" fromJunction="J6" toJunction="J3" end="240" vehsPerHour="39.15837676718059" departLane="free"/>
  <flow id="JF237064" begin="180" fromJunction="J6" toJunction="J5" end="240" vehsPerHour="7.97016128118568" departLane="free"/>
  <flow id="JF237065" begin="180" fromJunction="J6" toJunction="J7" end="240" vehsPerHour="18.036442357150033" departLane="free"/>
  <flow id="JF237066" begin="180" fromJunction="J7" toJunction="J3" end="240" vehsPerHour="65.15020590183236" departLane="free"/>
  <flow id="JF237067" begin="180" fromJunction="J7" toJunction="J5" end="240" vehsPerHour="46.41028328179131" departLane="free"/>
  <flow id="JF237068" begin="180" fromJunction="J7" toJunction="J6" end="240" vehsPerHour="3.400977046537399" departLane="free"/>
  <flow id="JF237069" begin="240" fromJunction="J0" toJunction="J3" end="300" vehsPerHour="44.67458611336863" departLane="free"/>
  <flow id="JF237070" begin="240" fromJunction="J0" toJunction="J4" end="300" vehsPerHour="46.6419343865443" departLane="free"/>
  <flow id="JF237071" begin="240" fromJunction="J0" toJunction="J5" end="300" vehsPerHour="23.047930241008046" departLane="free"/>
  <flow id="JF237072" begin="240" fromJunction="J0" toJunction="J6" end="300" vehsPerHour="51.95564582702507" departLane="free"/>
  <flow id="JF237073" begin="240" fromJunction="J0" toJunction="J7" end="300" vehsPerHour="73.75280254841617" departLane="free"/>
  <flow id="JF237074" begin="240" fromJunction="J3" toJunction="J5" end="300" vehsPerHour="83.84442156960517" departLane="free"/>
  <flow id="JF237075" begin="240" fromJunction="J3" toJunction="J6" end="300" vehsPerHour="22.139208259749395" departLane="free"/>
  <flow id="JF237076" begin="240" fromJunction="J3" toJunction="J7" end="300" vehsPerHour="110.25574624111752" departLane="free"/>
  <flow id="JF237077" begin="240" fromJunction="J4" toJunction="J0" end="300" vehsPerHour="5.791168904551975" departLane="free"/>
  <flow id="JF237078" begin="240" fromJunction="J4" toJunction="J3" end="300" vehsPerHour="68.03337975549792" departLane="free"/>
  <flow id="JF237079" begin="240" fromJunction="J4" toJunction="J5" end="300" vehsPerHour="55.657009312913715" departLane="free"/>
  <flow id="JF237080" begin="240" fromJunction="J4" toJunction="J6" end="300" vehsPerHour="50.05921672075557" departLane="free"/>
  <flow id="JF237081" begin="240" fromJunction="J5" toJunction="J0" end="300" vehsPerHour="31.586675569822166" departLane="free"/>
  <flow id="JF237082" begin="240" fromJunction="J5" toJunction="J4" end="300" vehsPerHour="14.972435152278697" departLane="free"/>
  <flow id="JF237083" begin="240" fromJunction="J5" toJunction="J6" end="300" vehsPerHour="5.32771856341519" departLane="free"/>
  <flow id="JF237084" begin="240" fromJunction="J5" toJunction="J7" end="300" vehsPerHour="46.1367978563728" departLane="free"/>
  <flow id="JF237085" begin="240" fromJunction="J6" toJunction="J0" end="300" vehsPerHour="32.63400185220092" departLane="free"/>
  <flow id="JF237086" begin="240" fromJunction="J6" toJunction="J7" end="300" vehsPerHour="5.282328136203489" departLane="free"/>
  <flow id="JF237087" begin="240" fromJunction="J7" toJunction="J0" end="300" vehsPerHour="32.78490314241485" departLane="free"/>
  <flow id="JF237088" begin="240" fromJunction="J7" toJunction="J3" end="300" vehsPerHour="58.36704679949442" departLane="free"/>
  <flow id="JF237089" begin="240" fromJunction="J7" toJunction="J4" end="300" vehsPerHour="51.91116069422329" departLane="free"/>
  <flow id="JF237090" begin="240" fromJunction="J7" toJunction="J5" end="300" vehsPerHour="66.0550114242348" departLane="free"/>
  <flow id="JF237091" begin="300" fromJunction="J0" toJunction="J4" end="360" vehsPerHour="42.86853898036227" departLane="free"/>
  <flow id="JF237092" begin="300" fromJunction="J0" toJunction="J6" end="360" vehsPerHour="6.407185982609793" departLane="free"/>
  <flow id="JF237093" begin="300" fromJunction="J0" toJunction="J7" end="360" vehsPerHour="18.99222442587438" departLane="free"/>
  <flow id="JF237094" begin="300" fromJunction="J3" toJunction="J4" end="360" vehsPerHour="122.56052013773731" departLane="free"/>
  <flow id="JF237095" begin="300" fromJunction="J3" toJunction="J6" end="360" vehsPerHour="0.6822065024213744" departLane="free"/>
  <flow id="JF237096" begin="300" fromJunction="J4" toJunction="J0" end="360" vehsPerHour="20.13405630409361" departLane="free"/>
  <flow id="JF237097" begin="300" fromJunction="J4" toJunction="J3" end="360" vehsPerHour="63.05751345767797" departLane="free"/>
  <flow id="JF237098" begin="300" fromJunction="J4" toJunction="J5" end="360" vehsPerHour="13.261157311893603" departLane="free"/>
  <flow id="JF237099" begin="300" fromJunction="J5" toJunction="J0" end="360" vehsPerHour="26.72910946044006" departLane="free"/>
  <flow id="JF237100" begin="300" fromJunction="J5" toJunction="J4" end="360" vehsPerHour="50.93025331519415" departLane="free"/>
  <flow id="JF237101" begin="300" fromJunction="J6" toJunction="J0" end="360" vehsPerHour="32.68609503719674" departLane="free"/>
  <flow id="JF237102" begin="300" fromJunction="J6" toJunction="J3" end="360" vehsPerHour="66.06923871564713" departLane="free"/>
  <flow id="JF237103" begin="300" fromJunction="J6" toJunction="J4" end="360" vehsPerHour="6.402733876276509" departLane="free"/>
  <flow id="JF237104" begin="300" fromJunction="J7" toJunction="J3" end="360" vehsPerHour="54.942555283443305" departLane="free"/>
  <flow id="JF237105" begin="300" fromJunction="J7" toJunction="J4" end="360" vehsPerHour="31.357164528173552" departLane="free"/>
  <flow id="JF237106" begin="300" fromJunction="J7" toJunction="J5" end="360" vehsPerHour="3.1305892917780818" departLane="free"/>
  <flow id="JF237107" begin="300" fromJunction="J7" toJunction="J6" end="360" vehsPerHour="30.406804759541654" departLane="free"/>
  <flow id="JF237108" begin="360" fromJunction="J0" toJunction="J3" end="420" vehsPerHour="13.363058697321163" departLane="free"/>
  <flow id="JF237109" begin="360" fromJunction="J0" toJunction="J4" end="420" vehsPerHour="106.47349475192107" departLane="free"/>
  <flow id="JF237110" begin="360" fromJunction="J0" toJunction="J7" end="420" vehsPerHour="119.11047037218398" departLane="free"/>
  <flow id="JF237111" begin="360" fromJunction="J3" toJunction="J4" end="420" vehsPerHour="129.09145066374245" departLane="free"/>
  <flow id="JF237112" begin="360" fromJunction="J3" toJunction="J5" end="420" vehsPerHour="127.27159357945187" departLane="free"/>
  <flow id="JF237113" begin="360" fromJunction="J3" toJunction="J7" end="420" vehsPerHour="102.9255276051075" departLane="free"/>
  <flow id="JF237114" begin="360" fromJunction="J4" toJunction="J0" end="420" vehsPerHour="25.636137537068024" departLane="free"/>
  <flow id="JF237115" begin="360" fromJunction="J4" toJunction="J3" end="420" vehsPerHour="28.980634784374587" departLane="free"/>
  <flow id="JF237116" begin="360" fromJunction="J4" toJunction="J5" end="420" vehsPerHour="56.01702958596914" departLane="free"/>
  <flow id="JF237117" begin="360" fromJunction="J4" toJunction="J6" end="420" vehsPerHour="47.72396034628976" departLane="free"/>
  <flow id="JF237118" begin="360" fromJunction="J4" toJunction="J7" end="420" vehsPerHour="30.144919043584324" departLane="free"/>
  <flow id="JF237119" begin="360" fromJunction="J5" toJunction="J0" end="420" vehsPerHour="28.30663588395628" departLane="free"/>
  <flow id="JF237120" begin="360" fromJunction="J5" toJunction="J3" end="420" vehsPerHour="42.9346922313625" departLane="free"/>
  <flow id="JF237121" begin="360" fromJunction="J5" toJunction="J4" end="420" vehsPerHour="9.15169071463322" departLane="free"/>
  <flow id="JF237122" begin="360" fromJunction="J5" toJunction="J7" end="420" vehsPerHour="34.60760711843302" departLane="free"/>
  <flow id="JF237123" begin="360" fromJunction="J6" toJunction="J0" end="420" vehsPerHour="31.431253196283787" departLane="free"/>
  <flow id="JF237124" begin="360" fromJunction="J6" toJunction="J3" end="420" vehsPerHour="19.997190213220115" departLane="free"/>
  <flow id="JF237125" begin="360" fromJunction="J6" toJunction="J5" end="420" vehsPerHour="18.450765728429307" departLane="free"/>
  <flow id="JF237126" begin="360" fromJunction="J7" toJunction="J0" end="420" vehsPerHour="0.3276881849371745" departLane="free"/>
  <flow id="JF237127" begin="360" fromJunction="J7" toJunction="J3" end="420" vehsPerHour="41.47307485005285" departLane="free"/>
  <flow id="JF237128" begin="360" fromJunction="J7" toJunction="J5" end="420" vehsPerHour="43.46844894725047" departLane="free"/>
  <flow id="JF237129" begin="360" fromJunction="J7" toJunction="J6" end="420" vehsPerHour="66.82558458775675" departLane="free"/>
  <flow id="JF237130" begin="420" fromJunction="J0" toJunction="J3" end="480" vehsPerHour="121.5965993259807" departLane="free"/>
  <flow id="JF237131" begin="420" fromJunction="J0" toJunction="J4" end="480" vehsPerHour="68.02666496399783" departLane="free"/>
  <flow id="JF237132" begin="420" fromJunction="J0" toJunction="J5" end="480" vehsPerHour="136.42375933628318" departLane="free"/>
  <flow id="JF237133" begin="420" fromJunction="J0" toJunction="J6" end="480" vehsPerHour="93.29468221261682" departLane="free"/>
  <flow id="JF237134" begin="420" fromJunction="J0" toJunction="J7" end="480" vehsPerHour="121.9870601662057" departLane="free"/>
  <flow id="JF237135" begin="420" fromJunction="J3" toJunction="J0" end="480" vehsPerHour="136.6506848583962" departLane="free"/>
  <flow id="JF237136" begin="420" fromJunction="J3" toJunction="J4" end="480" vehsPerHour="60.68677627564875" departLane="free"/>
  <flow id="JF237137" begin="420" fromJunction="J3" toJunction="J6" end="480" vehsPerHour="25.952671700312873" departLane="free"/>
  <flow id="JF237138" begin="420" fromJunction="J3" toJunction="J7" end="480" vehsPerHour="110.63301927963096" departLane="free"/>
  <flow id="JF237139" begin="420" fromJunction="J4" toJunction="J0" end="480" vehsPerHour="43.5198988206184" departLane="free"/>
  <flow id="JF237140" begin="420" fromJunction="J4" toJunction="J3" end="480" vehsPerHour="23.395850615778418" departLane="free"/>
  <flow id="JF237141" begin="420" fromJunction="J4" toJunction="J5" end="480" vehsPerHour="22.62447961877572" departLane="free"/>
  <flow id="JF237142" begin="420" fromJunction="J4" toJunction="J6" end="480" vehsPerHour="20.380634588411812" departLane="free"/>
  <flow id="JF237143" begin="420" fromJunction="J4" toJunction="J7" end="480" vehsPerHour="52.30138488762271" departLane="free"/>
  <flow id="JF237144" begin="420" fromJunction="J5" toJunction="J0" end="480" vehsPerHour="3.8947874490278958" departLane="free"/>
  <flow id="JF237145" begin="420" fromJunction="J5" toJunction="J3" end="480" vehsPerHour="61.10104508983582" departLane="free"/>
  <flow id="JF237146" begin="420" fromJunction="J5" toJunction="J4" end="480" vehsPerHour="26.045000791373635" departLane="free"/>
  <flow id="JF237147" begin="420" fromJunction="J5" toJunction="J6" end="480" vehsPerHour="68.1645502049951" departLane="free"/>
  <flow id="JF237148" begin="420" fromJunction="J6" toJunction="J0" end="480" vehsPerHour="11.810051779567258" departLane="free"/>
  <flow id="JF237149" begin="420" fromJunction="J6" toJunction="J3" end="480" vehsPerHour="15.270539824510502" departLane="free"/>
  <flow id="JF237150" begin="420" fromJunction="J6" toJunction="J4" end="480" vehsPerHour="11.717011255652874" departLane="free"/>
  <flow id="JF237151" begin="420" fromJunction="J6" toJunction="J5" end="480" vehsPerHour="55.2104172741533" departLane="free"/>
  <flow id="JF237152" begin="420" fromJunction="J7" toJunction="J0" end="480" vehsPerHour="27.267569752282345" departLane="free"/>
  <flow id="JF237153" begin="420" fromJunction="J7" toJunction="J3" end="480" vehsPerHour="44.66268264792951" departLane="free"/>
  <flow id="JF237154" begin="420" fromJunction="J7" toJunction="J4" end="480" vehsPerHour="16.69149697764546" departLane="free"/>
  <flow id="JF237155" begin="420" fromJunction="J7" toJunction="J5" end="480" vehsPerHour="24.150172916361356" departLane="free"/>
  <flow id="JF237156" begin="480" fromJunction="J0" toJunction="J3" end="540" vehsPerHour="39.44153989774889" departLane="free"/>
  <flow id="JF237157" begin="480" fromJunction="J0" toJunction="J4" end="540" vehsPerHour="43.42428555990106" departLane="free"/>
  <flow id="JF237158" begin="480" fromJunction="J0" toJunction="J6" end="540" vehsPerHour="7.562374916438363" departLane="free"/>
  <flow id="JF237159" begin="480" fromJunction="J3" toJunction="J0" end="540" vehsPerHour="38.785744616228065" departLane="free"/>
  <flow id="JF237160" begin="480" fromJunction="J3" toJunction="J4" end="540" vehsPerHour="99.49048665527782" departLane="free"/>
  <flow id="JF237161" begin="480" fromJunction="J3" toJunction="J6" end="540" vehsPerHour="122.78125901596624" departLane="free"/>
  <flow id="JF237162" begin="480" fromJunction="J4" toJunction="J5" end="540" vehsPerHour="1.7340195874376245" departLane="free"/>
  <flow id="JF237163" begin="480" fromJunction="J4" toJunction="J7" end="540" vehsPerHour="11.77998828360775" departLane="free"/>
  <flow id="JF237164" begin="480" fromJunction="J5" toJunction="J0" end="540" vehsPerHour="55.40911423808657" departLane="free"/>
  <flow id="JF237165" begin="480" fromJunction="J5" toJunction="J3" end="540" vehsPerHour="58.850198402002285" departLane="free"/>
  <flow id="JF237166" begin="480" fromJunction="J5" toJunction="J6" end="540" vehsPerHour="35.80039263998647" departLane="free"/>
  <flow id="JF237167" begin="480" fromJunction="J5" toJunction="J7" end="540" vehsPerHour="50.67955342115232" departLane="free"/>
  <flow id="JF237168" begin="480" fromJunction="J6" toJunction="J3" end="540" vehsPerHour="34.27855813831626" departLane="free"/>
  <flow id="JF237169" begin="480" fromJunction="J6" toJunction="J5" end="540" vehsPerHour="36.72989607981205" departLane="free"/>
  <flow id="JF237170" begin="480" fromJunction="J6" toJunction="J7" end="540" vehsPerHour="64.4547532361053" departLane="free"/>
  <flow id="JF237171" begin="480" fromJunction="J7" toJunction="J0" end="540" vehsPerHour="33.27319614584139" departLane="free"/>
  <flow id="JF237172" begin="540" fromJunction="J0" toJunction="J3" end="600" vehsPerHour="20.283200571329942" departLane="free"/>
  <flow id="JF237173" begin="540" fromJunction="J0" toJunction="J5" end="600" vehsPerHour="98.7646634179546" departLane="free"/>
  <flow id="JF237174" begin="540" fromJunction="J0" toJunction="J6" end="600" vehsPerHour="1.037796863935415" departLane="free"/>
  <flow id="JF237175" begin="540" fromJunction="J0" toJunction="J7" end="600" vehsPerHour="42.84814842522688" departLane="free"/>
  <flow id="JF237176" begin="540" fromJunction="J3" toJunction="J0" end="600" vehsPerHour="56.92493407921006" departLane="free"/>
  <flow id="JF237177" begin="540" fromJunction="J3" toJunction="J5" end="600" vehsPerHour="70.53004893778123" departLane="free"/>
  <flow id="JF237178" begin="540" fromJunction="J3" toJunction="J6" end="600" vehsPerHour="84.56452958282995" departLane="free"/>
  <flow id="JF237179" begin="540" fromJunction="J3" toJunction="J7" end="600" vehsPerHour="27.733491790758258" departLane="free"/>
  <flow id="JF237180" begin="540" fromJunction="J4" toJunction="J0" end="600" vehsPerHour="25.99792109619798" departLane="free"/>
  <flow id="JF237181" begin="540" fromJunction="J4" toJunction="J5" end="600" vehsPerHour="50.295609973100255" departLane="free"/>
  <flow id="JF237182" begin="540" fromJunction="J4" toJunction="J6" end="600" vehsPerHour="44.534316663331964" departLane="free"/>
  <flow id="JF237183" begin="540" fromJunction="J4" toJunction="J7" end="600" vehsPerHour="56.89284659450877" departLane="free"/>
  <flow id="JF237184" begin="540" fromJunction="J5" toJunction="J0" end="600" vehsPerHour="44.88405086696276" departLane="free"/>
  <flow id="JF237185" begin="540" fromJunction="J5" toJunction="J3" end="600" vehsPerHour="5.3056832689613795" departLane="free"/>
  <flow id="JF237186" begin="540" fromJunction="J5" toJunction="J4" end="600" vehsPerHour="0.9100167272584371" departLane="free"/>
  <flow id="JF237187" begin="540" fromJunction="J5" toJunction="J6" end="600" vehsPerHour="0.880913540801618" departLane="free"/>
  <flow id="JF237188" begin="540" fromJunction="J5" toJunction="J7" end="600" vehsPerHour="38.95725998239181" departLane="free"/>
  <flow id="JF237189" begin="540" fromJunction="J6" toJunction="J0" end="600" vehsPerHour="7.735619103177069" departLane="free"/>
  <flow id="JF237190" begin="540" fromJunction="J6" toJunction="J3" end="600" vehsPerHour="52.233146074326456" departLane="free"/>
  <flow id="JF237191" begin="540" fromJunction="J6" toJunction="J4" end="600" vehsPerHour="60.38338925712097" departLane="free"/>
  <flow id="JF237192" begin="540" fromJunction="J7" toJunction="J3" end="600" vehsPerHour="18.50777904393125" departLane="free"/>
  <flow id="JF237193" begin="540" fromJunction="J7" toJunction="J6" end="600" vehsPerHour="22.258702135523837" departLane="free"/>
  <flow id="JF237194" begin="600" fromJunction="J0" toJunction="J4" end="660" vehsPerHour="85.83373718262753" departLane="free"/>
  <flow id="JF237195" begin="600" fromJunction="J0" toJunction="J5" end="660" vehsPerHour="20.15520245770654" departLane="free"/>
  <flow id="JF237196" begin="600" fromJunction="J0" toJunction="J6" end="660" vehsPerHour="93.21666781295912" departLane="free"/>
  <flow id="JF237197" begin="600" fromJunction="J0" toJunction="J7" end="660" vehsPerHour="8.469083725639823" departLane="free"/>
  <flow id="JF237198" begin="600" fromJunction="J3" toJunction="J0" end="660" vehsPerHour="28.825739016011926" departLane="free"/>
  <flow id="JF237199" begin="600" fromJunction="J3" toJunction="J4" end="660" vehsPerHour="123.77661897858968" departLane="free"/>
  <flow id="JF237200" begin="600" fromJunction="J3" toJunction="J5" end="660" vehsPerHour="79.48621025760373" departLane="free"/>
  <flow id="JF237201" begin="600" fromJunction="J3" toJunction="J6" end="660" vehsPerHour="104.40048721314695" departLane="free"/>
  <flow id="JF237202" begin="600" fromJunction="J4" toJunction="J0" end="660" vehsPerHour="11.929313425479755" departLane="free"/>
  <flow id="JF237203" begin="600" fromJunction="J4" toJunction="J5" end="660" vehsPerHour="32.46544977663649" departLane="free"/>
  <flow id="JF237204" begin="600" fromJunction="J4" toJunction="J6" end="660" vehsPerHour="63.7993295529233" departLane="free"/>
  <flow id="JF237205" begin="600" fromJunction="J4" toJunction="J7" end="660" vehsPerHour="7.99190733902941" departLane="free"/>
  <flow id="JF237206" begin="600" fromJunction="J5" toJunction="J0" end="660" vehsPerHour="31.88235610404595" departLane="free"/>
  <flow id="JF237207" begin="600" fromJunction="J5" toJunction="J3" end="660" vehsPerHour="12.600039181237376" departLane="free"/>
  <flow id="JF237208" begin="600" fromJunction="J5" toJunction="J4" end="660" vehsPerHour="50.82204705334187" departLane="free"/>
  <flow id="JF237209" begin="600" fromJunction="J5" toJunction="J6" end="660" vehsPerHour="33.64648311897183" departLane="free"/>