<?xml version="1.0" encoding="UTF-8"?>
<routes xmlns:xsi="http://www.w3.org/2001/XMLSchema-instance" xsi:noNamespaceSchemaLocation="http://sumo.dlr.de/xsd/routes_file.xsd">
  <flow id="JF244694" begin="0" fromJunction="J0" toJunction="J4" end="60" vehsPerHour="128.77520318944048" departLane="free"/>
  <flow id="JF244695" begin="0" fromJunction="J0" toJunction="J5" end="60" vehsPerHour="35.873795050924215" departLane="free"/>
  <flow id="JF244696" begin="0" fromJunction="J0" toJunction="J6" end="60" vehsPerHour="70.62740837352013" departLane="free"/>
  <flow id="JF244697" begin="0" fromJunction="J0" toJunction="J7" end="60" vehsPerHour="41.698671492290174" departLane="free"/>
  <flow id="JF244698" begin="0" fromJunction="J3" toJunction="J5" end="60" vehsPerHour="62.17524367919154" departLane="free"/>
  <flow id="JF244699" begin="0" fromJunction="J3" toJunction="J6" end="60" vehsPerHour="69.71033626320916" departLane="free"/>
  <flow id="JF244700" begin="0" fromJunction="J4" toJunction="J0" end="60" vehsPerHour="36.00967112391766" departLane="free"/>
  <flow id="JF244701" begin="0" fromJunction="J4" toJunction="J3" end="60" vehsPerHour="23.596622037637445" departLane="free"/>
  <flow id="JF244702" begin="0" fromJunction="J4" toJunction="J5" end="60" vehsPerHour="22.994681324960318" departLane="free"/>
  <flow id="JF244703" begin="0" fromJunction="J4" toJunction="J6" end="60" vehsPerHour="8.426563888763038" departLane="free"/>
  <flow id="JF244704" begin="0" fromJunction="J4" toJunction="J7" end="60" vehsPerHour="63.418369285048925" departLane="free"/>
  <flow id="JF244705" begin="0" fromJunction="J5" toJunction="J3" end="60" vehsPerHour="31.904339413206618" departLane="free"/>
  <flow id="JF244706" begin="0" fromJunction="J5" toJunction="J6" end="60" vehsPerHour="35.17033401575296" departLane="free"/>
  <flow id="JF244707" begin="0" fromJunction="J5" toJunction="J7" end="60" vehsPerHour="3.593781388628594" departLane="free"/>
  <flow id="JF244708" begin="0" fromJunction="J6" toJunction="J0" end="60" vehsPerHour="8.659005106193323" departLane="free"/>
  <flow id="JF244709" begin="0" fromJunction="J6" toJunction="J3" end="60" vehsPerHour="52.19148130045464" departLane="free"/>
  <flow id="JF244710" begin="0" fromJunction="J6" toJunction="J4" end="60" vehsPerHour="14.958370785754079" departLane="free"/>
  <flow id="JF244711" begin="0" fromJunction="J6" toJunction="J5" end="60" vehsPerHour="48.8272428316983" departLane="free"/>
  <flow id="JF244712" begin="0" fromJunction="J6" toJunction="J7" end="60" vehsPerHour="2.2603119049799023" departLane="free"/>
  <flow id="JF244713" begin="0" fromJunction="J7" toJunction="J3" end="60" vehsPerHour="13.310247223733644" departLane="free"/>
  <flow id="JF244714" begin="0" fromJunction="J7" toJunction="J6" end="60" vehsPerHour="50.65311542869701" departLane="free"/>
  <flow id="JF244715" begin="60" fromJunction="J0" toJunction="J3" end="120" vehsPerHour="35.22802604667816" departLane="free"/>
  <flow id="JF244716" begin="60" fromJunction="J0" toJunction="J4" end="120" vehsPerHour="121.55158271249583" departLane="free"/>
  <flow id="JF244717" begin="60" fromJunction="J0" toJunction="J5" end="120" vehsPerHour="42.10745189755658" departLane="free"/>
  <flow id="JF244718" begin="60" fromJunction="J0" toJunction="J6" end="120" vehsPerHour="134.64015535405198" departLane="free"/>
  <flow id="JF244719" begin="60" fromJunction="J3" toJunction="J0" end="120" vehsPerHour="118.15257647934123" departLane="free"/>
  <flow id="JF244720" begin="60" fromJunction="J3" toJunction="J4" end="120" vehsPerHour="8.9921971605143" departLane="free"/>
  <flow id="JF244721" begin="60" fromJunction="J3" toJunction="J5" end="120" vehsPerHour="132.79140271953113" departLane="free"/>
  <flow id="JF244722" begin="60" fromJunction="J3" toJunction="J6" end="120" vehsPerHour="9.68428762176484" departLane="free"/>
  <flow id="JF244723" begin="60" fromJunction="J3" toJunction="J7" end="120" vehsPerHour="43.803480970591934" departLane="free"/>
  <flow id="JF244724" begin="60" fromJunction="J4" toJunction="J0" end="120" vehsPerHour="46.00403967376578" departLane="free"/>
  <flow id="JF244725" begin="60" fromJunction="J4" toJunction="J3" end="120" vehsPerHour="29.86980718551778" departLane="free"/>
  <flow id="JF244726" begin="60" fromJunction="J4" toJunction="J6" end="120" vehsPerHour="64.33251160695862" departLane="free"/>
  <flow id="JF244727" begin="60" fromJunction="J5" toJunction="J3" end="120" vehsPerHour="25.99194506896307" departLane="free"/>
  <flow id="JF244728" begin="60" fromJunction="J5" toJunction="J4" end="120" vehsPerHour="67.11319780227268" departLane="free"/>
  <flow id="JF244729" begin="60" fromJunction="J5" toJunction="J6" end="120" vehsPerHour="62.5456565192587" departLane="free"/>
  <flow id="JF244730" begin="60" fromJunction="J6" toJunction="J3" end="120" vehsPerHour="21.628484719020047" departLane="free"/>
  <flow id="JF244731" begin="60" fromJunction="J6" toJunction="J4" end="120" vehsPerHour="18.06194658427272" departLane="free"/>
  <flow id="JF244732" begin="60" fromJunction="J6" toJunction="J7" end="120" vehsPerHour="61.27247472176058" departLane="free"/>
  <flow id="JF244733" begin="60" fromJunction="J7" toJunction="J0" end="120" vehsPerHour="14.383037554087709" departLane="free"/>
  <flow id="JF244734" begin="60" fromJunction="J7" toJunction="J3" end="120" vehsPerHour="32.12011559311808" departLane="free"/>
  <flow id="JF244735" begin="60" fromJunction="J7" toJunction="J5" end="120" vehsPerHour="14.40958171879254" departLane="free"/>
  <flow id="JF244736" begin="60" fromJunction="J7" toJunction="J6" end="120" vehsPerHour="17.40954990534269" departLane="free"/>
  <flow id="JF244737" begin="120" fromJunction="J0" toJunction="J3" end="180" vehsPerHour="132.94778188152134" departLane="free"/>
  <flow id="JF244738" begin="120" fromJunction="J0" toJunction="J4" end="180" vehsPerHour="7.102568316227125" departLane="free"/>
  <flow id="JF244739" begin="120" fromJunction="J0" toJunction="J5" end="180" vehsPerHour="25.227747400695606" departLane="free"/>
  <flow id="JF244740" begin="120" fromJunction="J0" toJunction="J6" end="180" vehsPerHour="137.16230085658137" departLane="free"/>
  <flow id="JF244741" begin="120" fromJunction="J0" toJunction="J7" end="180" vehsPerHour="50.24380651210194" departLane="free"/>
  <flow id="JF244742" begin="120" fromJunction="J3" toJunction="J0" end="180" vehsPerHour="33.3737948368486" departLane="free"/>
  <flow id="JF244743" begin="120" fromJunction="J3" toJunction="J5" end="180" vehsPerHour="64.77187269212091" departLane="free"/>
  <flow id="JF244744" begin="120" fromJunction="J3" toJunction="J6" end="180" vehsPerHour="19.952272537141678" departLane="free"/>
  <flow id="JF244745" begin="120" fromJunction="J3" toJunction="J7" end="180" vehsPerHour="91.89863585965007" departLane="free"/>
  <flow id="JF244746" begin="120" fromJunction="J4" toJunction="J3" end="180" vehsPerHour="27.863465139585816" departLane="free"/>
  <flow id="JF244747" begin="120" fromJunction="J4" toJunction="J5" end="180" vehsPerHour="52.99043758008466" departLane="free"/>
  <flow id="JF244748" begin="120" fromJunction="J4" toJunction="J6" end="180" vehsPerHour="58.05399289305288" departLane="free"/>
  <flow id="JF244749" begin="120" fromJunction="J4" toJunction="J7" end="180" vehsPerHour="66.3264564688238" departLane="free"/>
  <flow id="JF244750" begin="120" fromJunction="J5" toJunction="J3" end="180" vehsPerHour="3.122807798397938" departLane="free"/>
  <flow id="JF244751" begin="120" fromJunction="J5" toJunction="J4" end="180" vehsPerHour="59.88926289898653" departLane="free"/>
  <flow id="JF244752" begin="120" fromJunction="J5" toJunction="J6" end="180" vehsPerHour="50.576147673691366" departLane="free"/>
  <flow id="JF244753" begin="120" fromJunction="J6" toJunction="J4" end="180" vehsPerHour="27.38194585057791" departLane="free"/>
  <flow id="JF244754" begin="120" fromJunction="J6" toJunction="J7" end="180" vehsPerHour="35.45536563627997" departLane="free"/>
  <flow id="JF244755" begin="120" fromJunction="J7" toJunction="J0" end="180" vehsPerHour="39.953410056635775" departLane="free"/>
  <flow id="JF244756" begin="120" fromJunction="J7" toJunction="J3" end="180" vehsPerHour="12.447671063967837" departLane="free"/>
  <flow id="JF244757" begin="120" fromJunction="J7" toJunction="J5" end="180" vehsPerHour="23.968941540382335" departLane="free"/>
  <flow id="JF244758" begin="180" fromJunction="J0" toJunction="J5" end="240" vehsPerHour="27.169606559328802" departLane="free"/>
  <flow id="JF244759" begin="180" fromJunction="J0" toJunction="J6" end="240" vehsPerHour="17.10801585608569" departLane="free"/>
  <flow id="JF244760" begin="180" fromJunction="J3" toJunction="J5" end="240" vehsPerHour="65.58648190240154" departLane="free"/>
  <flow id="JF244761" begin="180" fromJunction="J3" toJunction="J6" end="240" vehsPerHour="24.21470119896191" departLane="free"/>
  <flow id="JF244762" begin="180" fromJunction="J3" toJunction="J7" end="240" vehsPerHour="90.90042368527446" departLane="free"/>
  <flow id="JF244763" begin="180" fromJunction="J4" toJunction="J0" end="240" vehsPerHour="11.369675961673154" departLane="free"/>
  <flow id="JF244764" begin="180" fromJunction="J4" toJunction="J3" end="240" vehsPerHour="62.87499233850668" departLane="free"/>
  <flow id="JF244765" begin="180" fromJunction="J4" toJunction="J5" end="240" vehsPerHour="65.64751713350577" departLane="free"/>
  <flow id="JF244766" begin="180" fromJunction="J4" toJunction="J7" end="240" vehsPerHour="33.111021638198814" departLane="free"/>
  <flow id="JF244767" begin="180" fromJunction="J5" toJunction="J6" end="240" vehsPerHour="49.175531310783654" departLane="free"/>
  <flow id="JF244768" begin="180" fromJunction="J5" toJunction="J7" end="240" vehsPerHour="26.20347567278755" departLane="free"/>
  <flow id="JF244769" begin="180" fromJunction="J6" toJunction="J0" end="240" vehsPerHour="50.588146923752134" departLane="free"/>
  <flow id="JF244770" begin="180" fromJunction="J6" toJunction="J3" end="240" vehsPerHour="42.221046377876434" departLane="free"/>
  <flow id="JF244771" begin="180" fromJunction="J6" toJunction="J4" end="240" vehsPerHour="11.094353117963024" departLane="free"/>
  <flow id="JF244772" begin="180" fromJunction="J6" toJunction="J5" end="240" vehsPerHour="9.290205565868364" departLane="free"/>
  <flow id="JF244773" begin="180" fromJunction="J6" toJunction="J7" end="240" vehsPerHour="6.408898876902839" departLane="free"/>
  <flow id="JF244774" begin="180" fromJunction="J7" toJunction="J0" end="240" vehsPerHour="62.64628162015271" departLane="free"/>
  <flow id="JF244775" begin="180" fromJunction="J7" toJunction="J5" end="240" vehsPerHour="50.40653611827246" departLane="free"/>
  <flow id="JF244776" begin="180" fromJunction="J7" toJunction="J6" end="240" vehsPerHour="24.805311854862246" departLane="free"/>
  <flow id="JF244777" begin="240" fromJunction="J0" toJunction="J3" end="300" vehsPerHour="77.01045826075871" departLane="free"/>
  <flow id="JF244778" begin="240" fromJunction="J0" toJunction="J5" end="300" vehsPerHour="27.51170842852454" departLane="free"/>
  <flow id="JF244779" begin="240" fromJunction="J0" toJunction="J6" end="300" vehsPerHour="132.63033870843392" departLane="free"/>
  <flow id="JF244780" begin="240" fromJunction="J0" toJunction="J7" end="300" vehsPerHour="29.95022674851918" departLane="free"/>
  <flow id="JF244781" begin="240" fromJunction="J3" toJunction="J0" end="300" vehsPerHour="53.65880923213741" departLane="free"/>
  <flow id="JF244782" begin="240" fromJunction="J3" toJunction="J5" end="300" vehsPerHour="80.30409938859343" departLane="free"/>
  <flow id="JF244783" begin="240" fromJunction="J4" toJunction="J0" end="300" vehsPerHour="28.148651474027226" departLane="free"/>
  <flow id="JF244784" begin="240" fromJunction="J4" toJunction="J3" end="300" vehsPerHour="1.7748717950261785" departLane="free"/>
  <flow id="JF244785" begin="240" fromJunction="J4" toJunction="J5" end="300" vehsPerHour="8.922088022463143" departLane="free"/>
  <flow id="JF244786" begin="240" fromJunction="J4" toJunction="J6" end="300" vehsPerHour="28.422624979460277" departLane="free"/>
  <flow id="JF244787" begin="240" fromJunction="J4" toJunction="J7" end="300" vehsPerHour="36.59222278094508" departLane="free"/>
  <flow id="JF244788" begin="240" fromJunction="J5" toJunction="J0" end="300" vehsPerHour="37.99584474238755" departLane="free"/>
  <flow id="JF244789" begin="240" fromJunction="J5" toJunction="J6" end="300" vehsPerHour="3.291602395772436" departLane="free"/>
  <flow id="JF244790" begin="240" fromJunction="J5" toJunction="J7" end="300" vehsPerHour="57.222059966221536" departLane="free"/>
  <flow id="JF244791" begin="240" fromJunction="J6" toJunction="J3" end="300" vehsPerHour="67.4148331656503" departLane="free"/>
  <flow id="JF244792" begin="240" fromJunction="J6" toJunction="J4" end="300" vehsPerHour="42.46624526490902" departLane="free"/>
  <flow id="JF244793" begin="240" fromJunction="J6" toJunction="J5" end="300" vehsPerHour="6.780672409883639" departLane="free"/>
  <flow id="JF244794" begin="240" fromJunction="J6" toJunction="J7" end="300" vehsPerHour="34.23881446856436" departLane="free"/>
  <flow id="JF244795" begin="240" fromJunction="J7" toJunction="J4" end="300" vehsPerHour="54.39879043771678" departLane="free"/>
  <flow id="JF244796" begin="240" fromJunction="J7" toJunction="J5" end="300" vehsPerHour="65.9620306077858" departLane="free"/>
  <flow id="JF244797" begin="240" fromJunction="J7" toJunction="J6" end="300" vehsPerHour="63.38276504811754" departLane="free"/>
  <flow id="JF244798" begin="300" fromJunction="J0" toJunction="J4" end="360" vehsPerHour="26.263300253257775" departLane="free"/>
  <flow id="JF244799" begin="300" fromJunction="J0" toJunction="J6" end="360" vehsPerHour="115.34207904217915" departLane="free"/>
  <flow id="JF244800" begin="300" fromJunction="J0" toJunction="J7" end="360" vehsPerHour="129.68797295267203" departLane="free"/>
  <flow id="JF244801" begin="300" fromJunction="J3" toJunction="J4" end="360" vehsPerHour="128.47634255156126" departLane="free"/>
  <flow id="JF244802" begin="300" fromJunction="J3" toJunction="J6" end="360" vehsPerHour="81.27213006557704" departLane="free"/>
  <flow id="JF244803" begin="300" fromJunction="J3" toJunction="J7" end="360" vehsPerHour="77.45107783614667" departLane="free"/>
  <flow id="JF244804" begin="300" fromJunction="J4" toJunction="J0" end="360" vehsPerHour="52.415896932881665" departLane="free"/>
  <flow id="JF244805" begin="300" fromJunction="J4" toJunction="J3" end="360" vehsPerHour="16.152322993306804" departLane="free"/>
  <flow id="JF244806" begin="300" fromJunction="J4" toJunction="J6" end="360" vehsPerHour="2.602752782276314" departLane="free"/>
  <flow id="JF244807" begin="300" fromJunction="J5" toJunction="J0" end="360" vehsPerHour="45.672248430831566" departLane="free"/>
  <flow id="JF244808" begin="300" fromJunction="J5" toJunction="J4" end="360" vehsPerHour="9.80879088720825" departLane="free"/>
  <flow id="JF244809" begin="300" fromJunction="J5" toJunction="J6" end="360" vehsPerHour="26.92385816039277" departLane="free"/>
  <flow id="JF244810" begin="300" fromJunction="J5" toJunction="J7" end="360" vehsPerHour="32.636866964743255" departLane="free"/>
  <flow id="JF244811" begin="300" fromJunction="J6" toJunction="J3" end="360" vehsPerHour="7.344576735757742" departLane="free"/>
  <flow id="JF244812" begin="300" fromJunction="J6" toJunction="J7" end="360" vehsPerHour="31.49462427646545" departLane="free"/>
  <flow id="JF244813" begin="300" fromJunction="J7" toJunction="J0" end="360" vehsPerHour="22.275751247235952" departLane="free"/>
  <flow id="JF244814" begin="300" fromJunction="J7" toJunction="J3" end="360" vehsPerHour="24.977501168043272" departLane="free"/>
  <flow id="JF244815" begin="300" fromJunction="J7" toJunction="J5" end="360" vehsPerHour="17.481390132218305" departLane="free"/>
  <flow id="JF244816" begin="360" fromJunction="J0" toJunction="J3" end="420" vehsPerHour="14.939197274310404" departLane="free"/>
  <flow id="JF244817" begin="360" fromJunction="J0" toJunction="J4" end="420" vehsPerHour="104.35063389635295" departLane="free"/>
  <flow id="JF244818" begin="360" fromJunction="J0" toJunction="J5" end="420" vehsPerHour="85.62020524823133" departLane="free"/>
  <flow id="JF244819" begin="360" fromJunction="J0" toJunction="J6" end="420" vehsPerHour="128.13852265295785" departLane="free"/>
  <flow id="JF244820" begin="360" fromJunction="J3" toJunction="J0" end="420" vehsPerHour="115.45027890514875" departLane="free"/>
  <flow id="JF244821" begin="360" fromJunction="J3" toJunction="J4" end="420" vehsPerHour="64.4900116414884" departLane="free"/>
  <flow id="JF244822" begin="360" fromJunction="J3" toJunction="J5" end="420" vehsPerHour="99.61397919238593" departLane="free"/>
  <flow id="JF244823" begin="360" fromJunction="J3" toJunction="J7" end="420" vehsPerHour="87.11700140046395" departLane="free"/>
  <flow id="JF244824" begin="360" fromJunction="J4" toJunction="J0" end="420" vehsPerHour="13.022416271049352" departLane="free"/>
  <flow id="JF244825" begin="360" fromJunction="J4" toJunction="J3" end="420" vehsPerHour="29.888449239197797" departLane="free"/>
  <flow id="JF244826" begin="360" fromJunction="J4" toJunction="J5" end="420" vehsPerHour="49.95090120595217" departLane="free"/>
  <flow id="JF244827" begin="360" fromJunction="J4" toJunction="J6" end="420" vehsPerHour="37.51452654474582" departLane="free"/>
  <flow id="JF244828" begin="360" fromJunction="J4" toJunction="J7" end="420" vehsPerHour="45.49789879663853" departLane="free"/>
  <flow id="JF244829" begin="360" fromJunction="J5" toJunction="J0" end="420" vehsPerHour="21.408046596246685" departLane="free"/>
  <flow id="JF244830" begin="360" fromJunction="J5" toJunction="J3" end="420" vehsPerHour="54.518297614420135" departLane="free"/>
  <flow id="JF244831" begin="360" fromJunction="J5" toJunction="J4" end="420" vehsPerHour="55.84376461203131" departLane="free"/>
  <flow id="JF244832" begin="360" fromJunction="J5" toJunction="J6" end="420" vehsPerHour="15.689196058065804" departLane="free"/>
  <flow id="JF244833" begin="360" fromJunction="J5" toJunction="J7" end="420" vehsPerHour="26.040974943152264" departLane="free"/>
  <flow id="JF244834" begin="360" fromJunction="J6" toJunction="J0" end="420" vehsPerHour="42.47934733141442" departLane="free"/>
  <flow id="JF244835" begin="360" fromJunction="J6" toJunction="J3" end="420" vehsPerHour="29.25740186253865" departLane="free"/>
  <flow id="JF244836" begin="360" fromJunction="J6" toJunction="J4" end="420" vehsPerHour="64.67161650542678" departLane="free"/>
  <flow id="JF244837" begin="360" fromJunction="J6" toJunction="J5" end="420" vehsPerHour="40.92497633917911" departLane="free"/>
  <flow id="JF244838" begin="360" fromJunction="J6" toJunction="J7" end="420" vehsPerHour="44.33664018826428" departLane="free"/>
  <flow id="JF244839" begin="360" fromJunction="J7" toJunction="J0" end="420" vehsPerHour="3.7026360148421142" departLane="free"/>
  <flow id="JF244840" begin="360" fromJunction="J7" toJunction="J3" end="420" vehsPerHour="1.6684130733581026" departLane="free"/>
  <flow id="JF244841" begin="360" fromJunction="J7" toJunction="J4" end="420" vehsPerHour="51.44603735253061" departLane="free"/>
  <flow id="JF244842" begin="360" fromJunction="J7" toJunction="J5" end="420" vehsPerHour="52.62179094866027" departLane="free"/>
  <flow id="JF244843" begin="360" fromJunction="J7" toJunction="J6" end="420" vehsPerHour="37.345343306845976" departLane="free"/>
  <flow id="JF244844" begin="420" fromJunction="J0" toJunction="J4" end="480" vehsPerHour="13.622471065337544" departLane="free"/>
  <flow id="JF244845" begin="420" fromJunction="J0" toJunction="J6" end="480" vehsPerHour="124.9209567746877" departLane="free"/>
  <flow id="JF244846" begin="420" fromJunction="J0" toJunction="J7" end="480" vehsPerHour="133.57718302602404" departLane="free"/>
  <flow id="JF244847" begin="420" fromJunction="J3" toJunction="J0" end="480" vehsPerHour="134.39681587367497" departLane="free"/>
  <flow id="JF244848" begin="420" fromJunction="J3" toJunction="J5" end="480" vehsPerHour="85.06237288921672" departLane="free"/>
  <flow id="JF244849" begin="420" fromJunction="J3" toJunction="J6" end="480" vehsPerHour="71.44648400068026" departLane="free"/>
  <flow id="JF244850" begin="420" fromJunction="J3" toJunction="J7" end="480" vehsPerHour="14.720286339626565" departLane="free"/>
  <flow id="JF244851" begin="420" fromJunction="J4" toJunction="J0" end="480" vehsPerHour="28.61481322031126" departLane="free"/>
  <flow id="JF244852" begin="420" fromJunction="J4" toJunction="J5" end="480" vehsPerHour="0.2489019396171815" departLane="free"/>
  <flow id="JF244853" begin="420" fromJunction="J4" toJunction="J6" end="480" vehsPerHour="17.42754408473542" departLane="free"/>
  <flow id="JF244854" begin="420" fromJunction="J4" toJunction="J7" end="480" vehsPerHour="62.261615325186064" departLane="free"/>
  <flow id="JF244855" begin="420" fromJunction="J5" toJunction="J0" end="480" vehsPerHour="16.22039322344503" departLane="free"/>
  <flow id="JF244856" begin="420" fromJunction="J5" toJunction="J3" end="480" vehsPerHour="6.059139630014958" departLane="free"/>
  <flow id="JF244857" begin="420" fromJunction="J5" toJunction="J4" end="480" vehsPerHour="25.526639821925578" departLane="free"/>
  <flow id="JF244858" begin="420" fromJunction="J5" toJunction="J6" end="480" vehsPerHour="28.946627265272237" departLane="free"/>
  <flow id="JF244859" begin="420" fromJunction="J5" toJunction="J7" end="480" vehsPerHour="55.95472484770004" departLane="free"/>
  <flow id="JF244860" begin="420" fromJunction="J6" toJunction="J4" end="480" vehsPerHour="26.43664795147056" departLane="free"/>
  <flow id="JF244861" begin="420" fromJunction="J6" toJunction="J5" end="480" vehsPerHour="5.549059034608192" departLane="free"/>
  <flow id="JF244862" begin="420" fromJunction="J6" toJunction="J7" end="480" vehsPerHour="5.282780495435014" departLane="free"/>
  <flow id="JF244863" begin="420" fromJunction="J7" toJunction="J0" end="480" vehsPerHour="43.10123141403698" departLane="free"/>
  <flow id="JF244864" begin="420" fromJunction="J7" toJunction="J3" end="480" vehsPerHour="42.47788309368844" departLane="free"/>
  <flow id="JF244865" begin="420" fromJunction="J7" toJunction="J4" end="480" vehsPerHour="44.891968790498716" departLane="free"/>
  <flow id="JF244866" begin="420" fromJunction="J7" toJunction="J5" end="480" vehsPerHour="53.22434160676104" departLane="free"/>
  <flow id="JF244867" begin="480" fromJunction="J0" toJunction="J5" end="540" vehsPerHour="88.30821956629758" departLane="free"/>
  <flow id="JF244868" begin="480" fromJunction="J0" toJunction="J6" end="540" vehsPerHour="10.010260979521336" departLane="free"/>
  <flow id="JF244869" begin="480" fromJunction="J0" toJunction="J7" end="540" vehsPerHour="11.734564956452354" departLane="free"/>
  <flow id="JF244870" begin="480" fromJunction="J3" toJunction="J0" end="540" vehsPerHour="74.65558034874837" departLane="free"/>
  <flow id="JF244871" begin="480" fromJunction="J3" toJunction="J5" end="540" vehsPerHour="119.70115831704443" departLane="free"/>
  <flow id="JF244872" begin="480" fromJunction="J3" toJunction="J7" end="540" vehsPerHour="25.5172910954618" departLane="free"/>
  <flow id="JF244873" begin="480" fromJunction="J4" toJunction="J0" end="540" vehsPerHour="61.133072208623815" departLane="free"/>
  <flow id="JF244874" begin="480" fromJunction="J4" toJunction="J3" end="540" vehsPerHour="20.082151280406343" departLane="free"/>
  <flow id="JF244875" begin="480" fromJunction="J4" toJunction="J6" end="540" vehsPerHour="20.55792220149789" departLane="free"/>
  <flow id="JF244876" begin="480" fromJunction="J4" toJunction="J7" end="540" vehsPerHour="60.90421695602245" departLane="free"/>
  <flow id="JF244877" begin="480" fromJunction="J5" toJunction="J0" end="540" vehsPerHour="64.24396735087866" departLane="free"/>
  <flow id="JF244878" begin="480" fromJunction="J5" toJunction="J4" end="540" vehsPerHour="8.214865719460343" departLane="free"/>
  <flow id="JF244879" begin="480" fromJunction="J5" toJunction="J7" end="540" vehsPerHour="50.54197010470484" departLane="free"/>
  <flow id="JF244880" begin="480" fromJunction="J6" toJunction="J0" end="540" vehsPerHour="27.852367554519596" departLane="free"/>
  <flow id="JF244881" begin="480" fromJunction="J6" toJunction="J3" end="540" vehsPerHour="24.01980168939058" departLane="free"/>
  <flow id="JF244882" begin="480" fromJunction="J6" toJunction="J4" end="540" vehsPerHour="68.64522706071855" departLane="free"/>
  <flow id="JF244883" begin="480" fromJunction="J6" toJunction="J5" end="540" vehsPerHour="55.29978064464919" departLane="free"/>
  <flow id="JF244884" begin="480" fromJunction="J6" toJunction="J7" end="540" vehsPerHour="29.633664484105182" departLane="free"/>
  <flow id="JF244885" begin="480" fromJunction="J7" toJunction="J0" end="540" vehsPerHour="29.291870141148777" departLane="free"/>
  <flow id="JF244886" begin="480" fromJunction="J7" toJunction="J3" end="540" vehsPerHour="63.33699907978403" departLane="free"/>
  <flow id="JF244887" begin="480" fromJunction="J7" toJunction="J4" end="540" vehsPerHour="66.02753143522109" departLane="free"/>
  <flow id="JF244888" begin="480" fromJunction="J7" toJunction="J5" end="540" vehsPerHour="27.411292228857846" departLane="free"/>
  <flow id="JF244889" begin="480" fromJunction="J7" toJunction="J6" end="540" vehsPerHour="32.85760209021039" departLane="free"/>
  <flow id="JF244890" begin="540" fromJunction="J0" toJunction="J3" end="600" vehsPerHour="41.15236341103934" departLane="free"/>
  <flow id="JF244891" begin="540" fromJunction="J0" toJunction="J5" end="600" vehsPerHour="118.53383957789836" departLane="free"/>
  <flow id="JF244892" begin="540" fromJunction="J0" toJunction="J7" end="600" vehsPerHour="89.88377230701413" departLane="free"/>
  <flow id="JF244893" begin="540" fromJunction="J3" toJunction="J0" end="600" vehsPerHour="56.83510851979846" departLane="free"/>
  <flow id="JF244894" begin="540" fromJunction="J3" toJunction="J4" end="600" vehsPerHour="117.52912802152098" departLane="free"/>
  <flow id="JF244895" begin="540" fromJunction="J3" toJunction="J5" end="600" vehsPerHour="125.38340824356301" departLane="free"/>
  <flow id="JF244896" begin="540" fromJunction="J3" toJunction="J6" end="600" vehsPerHour="32.000706527050035" departLane="free"/>
  <flow id="JF244897" begin="540" fromJunction="J4" toJunction="J3" end="600" vehsPerHour="17.529252858737003" departLane="free"/>
  <flow id="JF244898" begin="540" fromJunction="J4" toJunction="J6" end="600" vehsPerHour="34.22400389749755" departLane="free"/>
  <flow id="JF244899" begin="540" fromJunction="J5" toJunction="J0" end="600" vehsPerHour="48.86882689113318" departLane="free"/>
  <flow id="JF244900" begin="540" fromJunction="J5" toJunction="J7" end="600" vehsPerHour="8.975970970297032" departLane="free"/>
  <flow id="JF244901" begin="540" fromJunction="J6" toJunction="J4" end="600" vehsPerHour="44.76440553980114" departLane="free"/>
  <flow id="JF244902" begin="540" fromJunction="J7" toJunction="J0" end="600" vehsPerHour="36.12766144390344" departLane="free"/>
  <flow id="JF244903" begin="540" fromJunction="J7" toJunction="J3" end="600" vehsPerHour="21.790425965286072" departLane="free"/>
  <flow id="JF244904" begin="540" fromJunction="J7" toJunction="J4" end="600" vehsPerHour="43.07369167323691" departLane="free"/>
  <flow id="JF244905" begin="540" fromJunction="J7" toJunction="J6" end="600" vehsPerHour="19.78045991449601" departLane="free"/>
  <flow id="JF244906" begin="600" fromJunction="J0" toJunction="J5" end="660" vehsPerHour="47.73644965108411" departLane="free"/>
  <flow id="JF244907" begin="600" fromJunction="J0" toJunction="J6" end="660" vehsPerHour="58.43549298356024" departLane="free"/>
  <flow id="JF244908" begin="600" fromJunction="J0" toJunction="J7" end="660" vehsPerHour="136.85990786913055" departLane="free"/>
  <flow id="JF244909" begin="600" fromJunction="J3" toJunction="J5" end="660" vehsPerHour="116.46846056199925" departLane="free"/>
  <flow id="JF244910" begin="600" fromJunction="J3" toJunction="J6" end="660" vehsPerHour="132.06086903951916" departLane="free"/>
  <flow id="JF244911" begin="600" fromJunction="J3" toJunction="J7" end="660" vehsPerHour="45.179865732115246" departLane="free"/>
  <flow id="JF244912" begin="600" fromJunction="J4" toJunction="J3" end="660" vehsPerHour="55.01607628130744" departLane="free"/>
  <flow id="JF244913" begin="600" fromJunction="J4" toJunction="J5" end="660" vehsPerHour="67.87246234220906" departLane="free"/>
  <flow id="JF244914" begin="600" fromJunction="J4" toJunction="J6" end="660" vehsPerHour="2.5776661838864032" departLane="free"/>
  <flow id="JF244915" begin="600" fromJunction="J4" toJunction="J7" end="660" vehsPerHour="62.5701421310571" departLane="free"/>
  <flow id="JF244916" begin="600" fromJunction="J5" toJunction="J0" end="660" vehsPerHour="51.669246848415504" departLane="free"/>
  <flow id="JF244917" begin="600" fromJunction="J5" toJunction="J4" end="660" vehsPerHour="34.86490583513242" departLane="free"/>
  <flow id="JF244918" begin="600" fromJunction="J5" toJunction="J6" end="660" vehsPerHour="54.10222737525192" departLane="free"/>
  <flow id="JF244919" begin="600" fromJunction="J5" toJunction="J7" end="660" vehsPerHour="67.20809296700193" departLane="free"/>
  <flow id="JF244920" begin="600" fromJunction="J6" toJunction="J4" end="660" vehsPerHour="17.659795493636842" departLane="free"/>
  <flow id="JF244921" begin="600" fromJunction="J6" toJunction="J7" end="660" vehsPerHour="36.727051581517266" departLane="free"/>
  <flow id="JF244922" begin="600" fromJunction="J7" toJunction="J0" end="660" vehsPerHour="36.25236202918357" departLane="free"/>