<?xml version="1.0" encoding="UTF-8"?>
<routes xmlns:xsi="http://www.w3.org/2001/XMLSchema-instance" xsi:noNamespaceSchemaLocation="http://sumo.dlr.de/xsd/routes_file.xsd">
  <flow id="JF13096" begin="0" fromJunction="J3" toJunction="J0" end="360" vehsPerHour="1.6529262080708016" departLane="free" arrivalSpeed="0.0"/>
  <flow id="JF13097" begin="0" fromJunction="J3" toJunction="J4" end="360" vehsPerHour="132.19158002860058" departLane="free" arrivalSpeed="0.0"/>
  <flow id="JF13098" begin="0" fromJunction="J3" toJunction="J5" end="360" vehsPerHour="2.7258481421545406" departLane="free" arrivalSpeed="0.0"/>
  <flow id="JF13099" begin="0" fromJunction="J3" toJunction="J6" end="360" vehsPerHour="120.82542111040772" departLane="free" arrivalSpeed="0.0"/>
  <flow id="JF13100" begin="0" fromJunction="J4" toJunction="J3" end="360" vehsPerHour="34.52325604105041" departLane="free" arrivalSpeed="0.0"/>
  <flow id="JF13101" begin="0" fromJunction="J4" toJunction="J5" end="360" vehsPerHour="14.650539722685044" departLane="free" arrivalSpeed="0.0"/>
  <flow id="JF13102" begin="0" fromJunction="J4" toJunction="J6" end="360" vehsPerHour="13.424556939099656" departLane="free" arrivalSpeed="0.0"/>
  <flow id="JF13103" begin="0" fromJunction="J5" toJunction="J3" end="360" vehsPerHour="37.97835543604756" departLane="free" arrivalSpeed="0.0"/>
  <flow id="JF13104" begin="0" fromJunction="J5" toJunction="J6" end="360" vehsPerHour="43.22697738000406" departLane="free" arrivalSpeed="0.0"/>
  <flow id="JF13105" begin="0" fromJunction="J5" toJunction="J7" end="360" vehsPerHour="41.30986116400673" departLane="free" arrivalSpeed="0.0"/>
  <flow id="JF13106" begin="0" fromJunction="J6" toJunction="J3" end="360" vehsPerHour="67.99099204296142" departLane="free" arrivalSpeed="0.0"/>
  <flow id="JF13107" begin="0" fromJunction="J6" toJunction="J4" end="360" vehsPerHour="9.940510454780899" departLane="free" arrivalSpeed="0.0"/>
  <flow id="JF13108" begin="0" fromJunction="J6" toJunction="J7" end="360" vehsPerHour="6.453373937409975" departLane="free" arrivalSpeed="0.0"/>
  <flow id="JF13109" begin="0" fromJunction="J7" toJunction="J0" end="360" vehsPerHour="0.3514336054747951" departLane="free" arrivalSpeed="0.0"/>
  <flow id="JF13110" begin="0" fromJunction="J7" toJunction="J3" end="360" vehsPerHour="57.46200212262813" departLane="free" arrivalSpeed="0.0"/>
  <flow id="JF13111" begin="0" fromJunction="J7" toJunction="J4" end="360" vehsPerHour="43.656827257012104" departLane="free" arrivalSpeed="0.0"/>
  <flow id="JF13112" begin="0" fromJunction="J7" toJunction="J5" end="360" vehsPerHour="67.77238896872136" departLane="free" arrivalSpeed="0.0"/>
  <flow id="JF13113" begin="0" fromJunction="J7" toJunction="J6" end="360" vehsPerHour="52.31407759785044" departLane="free" arrivalSpeed="0.0"/>
  <flow id="JF13114" begin="360" fromJunction="J0" toJunction="J3" end="720" vehsPerHour="29.076197394624348" departLane="free" arrivalSpeed="0.0"/>
  <flow id="JF13115" begin="360" fromJunction="J0" toJunction="J5" end="720" vehsPerHour="34.0498064051657" departLane="free" arrivalSpeed="0.0"/>
  <flow id="JF13116" begin="360" fromJunction="J0" toJunction="J6" end="720" vehsPerHour="64.57247774054272" departLane="free" arrivalSpeed="0.0"/>
  <flow id="JF13117" begin="360" fromJunction="J3" toJunction="J0" end="720" vehsPerHour="25.964982360280267" departLane="free" arrivalSpeed="0.0"/>
  <flow id="JF13118" begin="360" fromJunction="J3" toJunction="J4" end="720" vehsPerHour="125.63467574399229" departLane="free" arrivalSpeed="0.0"/>
  <flow id="JF13119" begin="360" fromJunction="J3" toJunction="J6" end="720" vehsPerHour="3.438034282890776" departLane="free" arrivalSpeed="0.0"/>
  <flow id="JF13120" begin="360" fromJunction="J3" toJunction="J7" end="720" vehsPerHour="79.14462588759858" departLane="free" arrivalSpeed="0.0"/>
  <flow id="JF13121" begin="360" fromJunction="J4" toJunction="J0" end="720" vehsPerHour="7.530579349971748" departLane="free" arrivalSpeed="0.0"/>
  <flow id="JF13122" begin="360" fromJunction="J4" toJunction="J3" end="720" vehsPerHour="28.167763767915183" departLane="free" arrivalSpeed="0.0"/>
  <flow id="JF13123" begin="360" fromJunction="J4" toJunction="J5" end="720" vehsPerHour="44.448755634969814" departLane="free" arrivalSpeed="0.0"/>
  <flow id="JF13124" begin="360" fromJunction="J4" toJunction="J6" end="720" vehsPerHour="64.90660864785137" departLane="free" arrivalSpeed="0.0"/>
  <flow id="JF13125" begin="360" fromJunction="J4" toJunction="J7" end="720" vehsPerHour="22.052513536436116" departLane="free" arrivalSpeed="0.0"/>
  <flow id="JF13126" begin="360" fromJunction="J5" toJunction="J0" end="720" vehsPerHour="44.21830783215468" departLane="free" arrivalSpeed="0.0"/>
  <flow id="JF13127" begin="360" fromJunction="J5" toJunction="J3" end="720" vehsPerHour="43.28246724351446" departLane="free" arrivalSpeed="0.0"/>
  <flow id="JF13128" begin="360" fromJunction="J5" toJunction="J4" end="720" vehsPerHour="16.954008157203614" departLane="free" arrivalSpeed="0.0"/>
  <flow id="JF13129" begin="360" fromJunction="J5" toJunction="J7" end="720" vehsPerHour="45.588716774335126" departLane="free" arrivalSpeed="0.0"/>
  <flow id="JF13130" begin="360" fromJunction="J6" toJunction="J3" end="720" vehsPerHour="35.36108984308734" departLane="free" arrivalSpeed="0.0"/>
  <flow id="JF13131" begin="360" fromJunction="J6" toJunction="J4" end="720" vehsPerHour="38.65772851334874" departLane="free" arrivalSpeed="0.0"/>
  <flow id="JF13132" begin="360" fromJunction="J6" toJunction="J5" end="720" vehsPerHour="15.926968129299615" departLane="free" arrivalSpeed="0.0"/>
  <flow id="JF13133" begin="360" fromJunction="J6" toJunction="J7" end="720" vehsPerHour="56.026117470392364" departLane="free" arrivalSpeed="0.0"/>
  <flow id="JF13134" begin="360" fromJunction="J7" toJunction="J5" end="720" vehsPerHour="43.57512464123005" departLane="free" arrivalSpeed="0.0"/>
  <flow id="JF13135" begin="360" fromJunction="J7" toJunction="J6" end="720" vehsPerHour="18.371374614060887" departLane="free" arrivalSpeed="0.0"/>
  <flow id="JF13136" begin="720" fromJunction="J0" toJunction="J3" end="1080" vehsPerHour="90.89207218586856" departLane="free" arrivalSpeed="0.0"/>
  <flow id="JF13137" begin="720" fromJunction="J0" toJunction="J4" end="1080" vehsPerHour="35.669558854205704" departLane="free" arrivalSpeed="0.0"/>
  <flow id="JF13138" begin="720" fromJunction="J0" toJunction="J5" end="1080" vehsPerHour="53.25973621942601" departLane="free" arrivalSpeed="0.0"/>
  <flow id="JF13139" begin="720" fromJunction="J0" toJunction="J7" end="1080" vehsPerHour="102.54526753177052" departLane="free" arrivalSpeed="0.0"/>
  <flow id="JF13140" begin="720" fromJunction="J3" toJunction="J0" end="1080" vehsPerHour="84.40614285096122" departLane="free" arrivalSpeed="0.0"/>
  <flow id="JF13141" begin="720" fromJunction="J3" toJunction="J4" end="1080" vehsPerHour="25.17501351331099" departLane="free" arrivalSpeed="0.0"/>
  <flow id="JF13142" begin="720" fromJunction="J3" toJunction="J5" end="1080" vehsPerHour="15.654746753984911" departLane="free" arrivalSpeed="0.0"/>
  <flow id="JF13143" begin="720" fromJunction="J3" toJunction="J7" end="1080" vehsPerHour="125.79747263066356" departLane="free" arrivalSpeed="0.0"/>
  <flow id="JF13144" begin="720" fromJunction="J4" toJunction="J0" end="1080" vehsPerHour="61.44993161964173" departLane="free" arrivalSpeed="0.0"/>
  <flow id="JF13145" begin="720" fromJunction="J4" toJunction="J3" end="1080" vehsPerHour="37.2144265846395" departLane="free" arrivalSpeed="0.0"/>
  <flow id="JF13146" begin="720" fromJunction="J4" toJunction="J5" end="1080" vehsPerHour="8.792596965627245" departLane="free" arrivalSpeed="0.0"/>
  <flow id="JF13147" begin="720" fromJunction="J4" toJunction="J6" end="1080" vehsPerHour="43.87203722368685" departLane="free" arrivalSpeed="0.0"/>
  <flow id="JF13148" begin="720" fromJunction="J4" toJunction="J7" end="1080" vehsPerHour="56.045444510862616" departLane="free" arrivalSpeed="0.0"/>
  <flow id="JF13149" begin="720" fromJunction="J5" toJunction="J0" end="1080" vehsPerHour="53.649809868233305" departLane="free" arrivalSpeed="0.0"/>
  <flow id="JF13150" begin="720" fromJunction="J5" toJunction="J3" end="1080" vehsPerHour="26.26602337876853" departLane="free" arrivalSpeed="0.0"/>
  <flow id="JF13151" begin="720" fromJunction="J5" toJunction="J4" end="1080" vehsPerHour="37.640962111689525" departLane="free" arrivalSpeed="0.0"/>
  <flow id="JF13152" begin="720" fromJunction="J5" toJunction="J6" end="1080" vehsPerHour="61.90484745068616" departLane="free" arrivalSpeed="0.0"/>
  <flow id="JF13153" begin="720" fromJunction="J5" toJunction="J7" end="1080" vehsPerHour="24.424579314204504" departLane="free" arrivalSpeed="0.0"/>
  <flow id="JF13154" begin="720" fromJunction="J6" toJunction="J0" end="1080" vehsPerHour="12.526023138564353" departLane="free" arrivalSpeed="0.0"/>
  <flow id="JF13155" begin="720" fromJunction="J6" toJunction="J3" end="1080" vehsPerHour="24.832733356245164" departLane="free" arrivalSpeed="0.0"/>
  <flow id="JF13156" begin="720" fromJunction="J6" toJunction="J4" end="1080" vehsPerHour="39.98371022903105" departLane="free" arrivalSpeed="0.0"/>
  <flow id="JF13157" begin="720" fromJunction="J6" toJunction="J7" end="1080" vehsPerHour="4.3429552803910285" departLane="free" arrivalSpeed="0.0"/>
  <flow id="JF13158" begin="720" fromJunction="J7" toJunction="J0" end="1080" vehsPerHour="44.9205041363376" departLane="free" arrivalSpeed="0.0"/>
  <flow id="JF13159" begin="720" fromJunction="J7" toJunction="J3" end="1080" vehsPerHour="9.098276976588933" departLane="free" arrivalSpeed="0.0"/>
  <flow id="JF13160" begin="720" fromJunction="J7" toJunction="J4" end="1080" vehsPerHour="38.93432894625402" departLane="free" arrivalSpeed="0.0"/>
  <flow id="JF13161" begin="720" fromJunction="J7" toJunction="J5" end="1080" vehsPerHour="23.870212641890216" departLane="free" arrivalSpeed="0.0"/>
  <flow id="JF13162" begin="1080" fromJunction="J0" toJunction="J3" end="1440" vehsPerHour="125.22378996211722" departLane="free" arrivalSpeed="0.0"/>
  <flow id="JF13163" begin="1080" fromJunction="J0" toJunction="J4" end="1440" vehsPerHour="67.14171795266803" departLane="free" arrivalSpeed="0.0"/>
  <flow id="JF13164" begin="1080" fromJunction="J0" toJunction="J5" end="1440" vehsPerHour="58.916335618373594" departLane="free" arrivalSpeed="0.0"/>
  <flow id="JF13165" begin="1080" fromJunction="J0" toJunction="J7" end="1440" vehsPerHour="83.41573662945193" departLane="free" arrivalSpeed="0.0"/>
  <flow id="JF13166" begin="1080" fromJunction="J3" toJunction="J0" end="1440" vehsPerHour="0.804698360266476" departLane="free" arrivalSpeed="0.0"/>
  <flow id="JF13167" begin="1080" fromJunction="J3" toJunction="J4" end="1440" vehsPerHour="119.62176984272647" departLane="free" arrivalSpeed="0.0"/>
  <flow id="JF13168" begin="1080" fromJunction="J3" toJunction="J5" end="1440" vehsPerHour="114.35593863333618" departLane="free" arrivalSpeed="0.0"/>
  <flow id="JF13169" begin="1080" fromJunction="J3" toJunction="J6" end="1440" vehsPerHour="97.00690278702916" departLane="free" arrivalSpeed="0.0"/>
  <flow id="JF13170" begin="1080" fromJunction="J3" toJunction="J7" end="1440" vehsPerHour="90.51145968658413" departLane="free" arrivalSpeed="0.0"/>
  <flow id="JF13171" begin="1080" fromJunction="J4" toJunction="J0" end="1440" vehsPerHour="25.291749473687183" departLane="free" arrivalSpeed="0.0"/>
  <flow id="JF13172" begin="1080" fromJunction="J4" toJunction="J5" end="1440" vehsPerHour="13.610185246009413" departLane="free" arrivalSpeed="0.0"/>
  <flow id="JF13173" begin="1080" fromJunction="J4" toJunction="J7" end="1440" vehsPerHour="20.242114591775184" departLane="free" arrivalSpeed="0.0"/>
  <flow id="JF13174" begin="1080" fromJunction="J5" toJunction="J3" end="1440" vehsPerHour="41.20019654054569" departLane="free" arrivalSpeed="0.0"/>
  <flow id="JF13175" begin="1080" fromJunction="J5" toJunction="J4" end="1440" vehsPerHour="20.9849229915509" departLane="free" arrivalSpeed="0.0"/>
  <flow id="JF13176" begin="1080" fromJunction="J5" toJunction="J6" end="1440" vehsPerHour="35.61925620790661" departLane="free" arrivalSpeed="0.0"/>
  <flow id="JF13177" begin="1080" fromJunction="J6" toJunction="J0" end="1440" vehsPerHour="35.52213125130077" departLane="free" arrivalSpeed="0.0"/>
  <flow id="JF13178" begin="1080" fromJunction="J6" toJunction="J5" end="1440" vehsPerHour="25.886133796930245" departLane="free" arrivalSpeed="0.0"/>
  <flow id="JF13179" begin="1080" fromJunction="J6" toJunction="J7" end="1440" vehsPerHour="32.717320607880836" departLane="free" arrivalSpeed="0.0"/>
  <flow id="JF13180" begin="1080" fromJunction="J7" toJunction="J5" end="1440" vehsPerHour="33.829378248537154" departLane="free" arrivalSpeed="0.0"/>
  <flow id="JF13181" begin="1080" fromJunction="J7" toJunction="J6" end="1440" vehsPerHour="5.185635391657153" departLane="free" arrivalSpeed="0.0"/>
  <flow id="JF13182" begin="1440" fromJunction="J0" toJunction="J4" end="1800" vehsPerHour="124.88289162931255" departLane="free" arrivalSpeed="0.0"/>
  <flow id="JF13183" begin="1440" fromJunction="J0" toJunction="J5" end="1800" vehsPerHour="107.18565482858561" departLane="free" arrivalSpeed="0.0"/>
  <flow id="JF13184" begin="1440" fromJunction="J0" toJunction="J6" end="1800" vehsPerHour="76.73293165067714" departLane="free" arrivalSpeed="0.0"/>
  <flow id="JF13185" begin="1440" fromJunction="J0" toJunction="J7" end="1800" vehsPerHour="62.97503928865807" departLane="free" arrivalSpeed="0.0"/>
  <flow id="JF13186" begin="1440" fromJunction="J3" toJunction="J0" end="1800" vehsPerHour="134.49202718009627" departLane="free" arrivalSpeed="0.0"/>
  <flow id="JF13187" begin="1440" fromJunction="J3" toJunction="J4" end="1800" vehsPerHour="45.778506471028216" departLane="free" arrivalSpeed="0.0"/>
  <flow id="JF13188" begin="1440" fromJunction="J3" toJunction="J5" end="1800" vehsPerHour="132.73749783047668" departLane="free" arrivalSpeed="0.0"/>
  <flow id="JF13189" begin="1440" fromJunction="J3" toJunction="J6" end="1800" vehsPerHour="4.986095474971171" departLane="free" arrivalSpeed="0.0"/>
  <flow id="JF13190" begin="1440" fromJunction="J4" toJunction="J3" end="1800" vehsPerHour="60.09643324598911" departLane="free" arrivalSpeed="0.0"/>
  <flow id="JF13191" begin="1440" fromJunction="J4" toJunction="J5" end="1800" vehsPerHour="42.36508363277231" departLane="free" arrivalSpeed="0.0"/>
  <flow id="JF13192" begin="1440" fromJunction="J4" toJunction="J6" end="1800" vehsPerHour="5.141843189680873" departLane="free" arrivalSpeed="0.0"/>
  <flow id="JF13193" begin="1440" fromJunction="J4" toJunction="J7" end="1800" vehsPerHour="24.343564858730502" departLane="free" arrivalSpeed="0.0"/>
  <flow id="JF13194" begin="1440" fromJunction="J5" toJunction="J0" end="1800" vehsPerHour="6.552067135478246" departLane="free" arrivalSpeed="0.0"/>
  <flow id="JF13195" begin="1440" fromJunction="J5" toJunction="J6" end="1800" vehsPerHour="49.25305703580348" departLane="free" arrivalSpeed="0.0"/>
  <flow id="JF13196" begin="1440" fromJunction="J5" toJunction="J7" end="1800" vehsPerHour="47.99389145994639" departLane="free" arrivalSpeed="0.0"/>
  <flow id="JF13197" begin="1440" fromJunction="J6" toJunction="J3" end="1800" vehsPerHour="8.357366134575177" departLane="free" arrivalSpeed="0.0"/>
  <flow id="JF13198" begin="1440" fromJunction="J6" toJunction="J4" end="1800" vehsPerHour="52.20279810216789" departLane="free" arrivalSpeed="0.0"/>
  <flow id="JF13199" begin="1440" fromJunction="J6" toJunction="J7" end="1800" vehsPerHour="2.7538741693415636" departLane="free" arrivalSpeed="0.0"/>
  <flow id="JF13200" begin="1440" fromJunction="J7" toJunction="J0" end="1800" vehsPerHour="46.577061727440956" departLane="free" arrivalSpeed="0.0"/>
  <flow id="JF13201" begin="1440" fromJunction="J7" toJunction="J3" end="1800" vehsPerHour="30.33207103306071" departLane="free" arrivalSpeed="0.0"/>
  <flow id="JF13202" begin="1440" fromJunction="J7" toJunction="J4" end="1800" vehsPerHour="59.28193942569838" departLane="free" arrivalSpeed="0.0"/>
  <flow id="JF13203" begin="1440" fromJunction="J7" toJunction="J5" end="1800" vehsPerHour="25.790055797265836" departLane="free" arrivalSpeed="0.0"/>
  <flow id="JF13204" begin="1440" fromJunction="J7" toJunction="J6" end="1800" vehsPerHour="17.83329285209286" departLane="free" arrivalSpeed="0.0"/>
  <flow id="JF13205" begin="1800" fromJunction="J0" toJunction="J3" end="2160" vehsPerHour="38.541169343014296" departLane="free" arrivalSpeed="0.0"/>
  <flow id="JF13206" begin="1800" fromJunction="J0" toJunction="J4" end="2160" vehsPerHour="132.83328313446827" departLane="free" arrivalSpeed="0.0"/>
  <flow id="JF13207" begin="1800" fromJunction="J0" toJunction="J5" end="2160" vehsPerHour="130.3585670127311" departLane="free" arrivalSpeed="0.0"/>
  <flow id="JF13208" begin="1800" fromJunction="J0" toJunction="J6" end="2160" vehsPerHour="109.61870854090647" departLane="free" arrivalSpeed="0.0"/>
  <flow id="JF13209" begin="1800" fromJunction="J0" toJunction="J7" end="2160" vehsPerHour="21.680051009580062" departLane="free" arrivalSpeed="0.0"/>
  <flow id="JF13210" begin="1800" fromJunction="J3" toJunction="J4" end="2160" vehsPerHour="69.23195434476504" departLane="free" arrivalSpeed="0.0"/>
  <flow id="JF13211" begin="1800" fromJunction="J3" toJunction="J6" end="2160" vehsPerHour="67.25759335881038" departLane="free" arrivalSpeed="0.0"/>
  <flow id="JF13212" begin="1800" fromJunction="J4" toJunction="J0" end="2160" vehsPerHour="1.3255129029642743" departLane="free" arrivalSpeed="0.0"/>
  <flow id="JF13213" begin="1800" fromJunction="J4" toJunction="J3" end="2160" vehsPerHour="21.53544676325476" departLane="free" arrivalSpeed="0.0"/>
  <flow id="JF13214" begin="1800" fromJunction="J4" toJunction="J5" end="2160" vehsPerHour="16.92917920384481" departLane="free" arrivalSpeed="0.0"/>
  <flow id="JF13215" begin="1800" fromJunction="J5" toJunction="J3" end="2160" vehsPerHour="27.090726301323656" departLane="free" arrivalSpeed="0.0"/>
  <flow id="JF13216" begin="1800" fromJunction="J5" toJunction="J4" end="2160" vehsPerHour="27.802801114196196" departLane="free" arrivalSpeed="0.0"/>
  <flow id="JF13217" begin="1800" fromJunction="J5" toJunction="J7" end="2160" vehsPerHour="54.0121676050094" departLane="free" arrivalSpeed="0.0"/>
  <flow id="JF13218" begin="1800" fromJunction="J6" toJunction="J0" end="2160" vehsPerHour="68.23119774884019" departLane="free" arrivalSpeed="0.0"/>
  <flow id="JF13219" begin="1800" fromJunction="J6" toJunction="J3" end="2160" vehsPerHour="44.055234861352936" departLane="free" arrivalSpeed="0.0"/>
  <flow id="JF13220" begin="1800" fromJunction="J6" toJunction="J4" end="2160" vehsPerHour="49.58085920065343" departLane="free" arrivalSpeed="0.0"/>
  <flow id="JF13221" begin="1800" fromJunction="J6" toJunction="J7" end="2160" vehsPerHour="45.3907232991801" departLane="free" arrivalSpeed="0.0"/>
  <flow id="JF13222" begin="1800" fromJunction="J7" toJunction="J0" end="2160" vehsPerHour="33.45763401707452" departLane="free" arrivalSpeed="0.0"/>
  <flow id="JF13223" begin="1800" fromJunction="J7" toJunction="J3" end="2160" vehsPerHour="6.667167756204014" departLane="free" arrivalSpeed="0.0"/>
  <flow id="JF13224" begin="1800" fromJunction="J7" toJunction="J4" end="2160" vehsPerHour="67.47223814319771" departLane="free" arrivalSpeed="0.0"/>
  <flow id="JF13225" begin="1800" fromJunction="J7" toJunction="J5" end="2160" vehsPerHour="4.41894876794789" departLane="free" arrivalSpeed="0.0"/>
  <flow id="JF13226" begin="2160" fromJunction="J0" toJunction="J3" end="2520" vehsPerHour="101.70840111519698" departLane="free" arrivalSpeed="0.0"/>
  <flow id="JF13227" begin="2160" fromJunction="J0" toJunction="J6" end="2520" vehsPerHour="39.17755432780854" departLane="free" arrivalSpeed="0.0"/>
  <flow id="JF13228" begin="2160" fromJunction="J0" toJunction="J7" end="2520" vehsPerHour="61.32952793386047" departLane="free" arrivalSpeed="0.0"/>
  <flow id="JF13229" begin="2160" fromJunction="J3" toJunction="J5" end="2520" vehsPerHour="16.743809559669277" departLane="free" arrivalSpeed="0.0"/>
  <flow id="JF13230" begin="2160" fromJunction="J3" toJunction="J7" end="2520" vehsPerHour="6.561868062414918" departLane="free" arrivalSpeed="0.0"/>
  <flow id="JF13231" begin="2160" fromJunction="J4" toJunction="J0" end="2520" vehsPerHour="40.35883264370793" departLane="free" arrivalSpeed="0.0"/>
  <flow id="JF13232" begin="2160" fromJunction="J4" toJunction="J5" end="2520" vehsPerHour="3.3767996000901754" departLane="free" arrivalSpeed="0.0"/>
  <flow id="JF13233" begin="2160" fromJunction="J4" toJunction="J6" end="2520" vehsPerHour="2.6943470771231777" departLane="free" arrivalSpeed="0.0"/>
  <flow id="JF13234" begin="2160" fromJunction="J4" toJunction="J7" end="2520" vehsPerHour="41.363462317250054" departLane="free" arrivalSpeed="0.0"/>
  <flow id="JF13235" begin="2160" fromJunction="J5" toJunction="J0" end="2520" vehsPerHour="5.819444222226942" departLane="free" arrivalSpeed="0.0"/>
  <flow id="JF13236" begin="2160" fromJunction="J5" toJunction="J4" end="2520" vehsPerHour="48.37598191109868" departLane="free" arrivalSpeed="0.0"/>
  <flow id="JF13237" begin="2160" fromJunction="J5" toJunction="J7" end="2520" vehsPerHour="1.2912905507478214" departLane="free" arrivalSpeed="0.0"/>
  <flow id="JF13238" begin="2160" fromJunction="J6" toJunction="J0" end="2520" vehsPerHour="12.152107873190351" departLane="free" arrivalSpeed="0.0"/>
  <flow id="JF13239" begin="2160" fromJunction="J6" toJunction="J3" end="2520" vehsPerHour="47.927577354385114" departLane="free" arrivalSpeed="0.0"/>
  <flow id="JF13240" begin="2160" fromJunction="J6" toJunction="J5" end="2520" vehsPerHour="23.76120431171192" departLane="free" arrivalSpeed="0.0"/>
  <flow id="JF13241" begin="2160" fromJunction="J6" toJunction="J7" end="2520" vehsPerHour="34.21375118382898" departLane="free" arrivalSpeed="0.0"/>
  <flow id="JF13242" begin="2160" fromJunction="J7" toJunction="J0" end="2520" vehsPerHour="12.66860210365069" departLane="free" arrivalSpeed="0.0"/>
  <flow id="JF13243" begin="2160" fromJunction="J7" toJunction="J3" end="2520" vehsPerHour="63.51048679453331" departLane="free" arrivalSpeed="0.0"/>
  <flow id="JF13244" begin="2160" fromJunction="J7" toJunction="J6" end="2520" vehsPerHour="26.517197560172466" departLane="free" arrivalSpeed="0.0"/>
  <flow id="JF13245" begin="2520" fromJunction="J0" toJunction="J4" end="2880" vehsPerHour="83.8262737960746" departLane="free" arrivalSpeed="0.0"/>
  <flow id="JF13246" begin="2520" fromJunction="J0" toJunction="J7" end="2880" vehsPerHour="66.68447461546116" departLane="free" arrivalSpeed="0.0"/>
  <flow id="JF13247" begin="2520" fromJunction="J3" toJunction="J0" end="2880" vehsPerHour="73.61053274972606" departLane="free" arrivalSpeed="0.0"/>
  <flow id="JF13248" begin="2520" fromJunction="J3" toJunction="J4" end="2880" vehsPerHour="116.27634503795373" departLane="free" arrivalSpeed="0.0"/>
  <flow id="JF13249" begin="2520" fromJunction="J3" toJunction="J5" end="2880" vehsPerHour="102.69776989308781" departLane="free" arrivalSpeed="0.0"/>
  <flow id="JF13250" begin="2520" fromJunction="J3" toJunction="J6" end="2880" vehsPerHour="54.26678661418554" departLane="free" arrivalSpeed="0.0"/>
  <flow id="JF13251" begin="2520" fromJunction="J4" toJunction="J0" end="2880" vehsPerHour="19.403259877713264" departLane="free" arrivalSpeed="0.0"/>
  <flow id="JF13252" begin="2520" fromJunction="J4" toJunction="J3" end="2880" vehsPerHour="38.185564819216005" departLane="free" arrivalSpeed="0.0"/>
  <flow id="JF13253" begin="2520" fromJunction="J4" toJunction="J5" end="2880" vehsPerHour="49.29576674477196" departLane="free" arrivalSpeed="0.0"/>
  <flow id="JF13254" begin="2520" fromJunction="J5" toJunction="J4" end="2880" vehsPerHour="4.4286520233926465" departLane="free" arrivalSpeed="0.0"/>
  <flow id="JF13255" begin="2520" fromJunction="J5" toJunction="J7" end="2880" vehsPerHour="48.103132705311715" departLane="free" arrivalSpeed="0.0"/>
  <flow id="JF13256" begin="2520" fromJunction="J6" toJunction="J0" end="2880" vehsPerHour="54.311211580555934" departLane="free" arrivalSpeed="0.0"/>
  <flow id="JF13257" begin="2520" fromJunction="J6" toJunction="J3" end="2880" vehsPerHour="32.111748379484624" departLane="free" arrivalSpeed="0.0"/>
  <flow id="JF13258" begin="2520" fromJunction="J6" toJunction="J4" end="2880" vehsPerHour="60.71946786935106" departLane="free" arrivalSpeed="0.0"/>
  <flow id="JF13259" begin="2520" fromJunction="J6" toJunction="J5" end="2880" vehsPerHour="41.780089979921264" departLane="free" arrivalSpeed="0.0"/>
  <flow id="JF13260" begin="2520" fromJunction="J7" toJunction="J0" end="2880" vehsPerHour="42.79895935295738" departLane="free" arrivalSpeed="0.0"/>
  <flow id="JF13261" begin="2520" fromJunction="J7" toJunction="J3" end="2880" vehsPerHour="55.89639214774886" departLane="free" arrivalSpeed="0.0"/>
  <flow id="JF13262" begin="2520" fromJunction="J7" toJunction="J4" end="2880" vehsPerHour="42.58576583182637" departLane="free" arrivalSpeed="0.0"/>
  <flow id="JF13263" begin="2520" fromJunction="J7" toJunction="J6" end="2880" vehsPerHour="41.65863018721428" departLane="free" arrivalSpeed="0.0"/>
  <flow id="JF13264" begin="2880" fromJunction="J0" toJunction="J6" end="3240" vehsPerHour="109.42194014570563" departLane="free" arrivalSpeed="0.0"/>
  <flow id="JF13265" begin="2880" fromJunction="J0" toJunction="J7" end="3240" vehsPerHour="121.14022468533706" departLane="free" arrivalSpeed="0.0"/>
  <flow id="JF13266" begin="2880" fromJunction="J3" toJunction="J0" end="3240" vehsPerHour="91.68742392348939" departLane="free" arrivalSpeed="0.0"/>
  <flow id="JF13267" begin="2880" fromJunction="J3" toJunction="J4" end="3240" vehsPerHour="0.712672012307585" departLane="free" arrivalSpeed="0.0"/>
  <flow id="JF13268" begin="2880" fromJunction="J3" toJunction="J6" end="3240" vehsPerHour="13.58214967115398" departLane="free" arrivalSpeed="0.0"/>
  <flow id="JF13269" begin="2880" fromJunction="J4" toJunction="J0" end="3240" vehsPerHour="8.109110421286235" departLane="free" arrivalSpeed="0.0"/>
  <flow id="JF13270" begin="2880" fromJunction="J4" toJunction="J5" end="3240" vehsPerHour="15.650604049094591" departLane="free" arrivalSpeed="0.0"/>
  <flow id="JF13271" begin="2880" fromJunction="J4" toJunction="J6" end="3240" vehsPerHour="52.55240211700278" departLane="free" arrivalSpeed="0.0"/>
  <flow id="JF13272" begin="2880" fromJunction="J4" toJunction="J7" end="3240" vehsPerHour="32.031120177255374" departLane="free" arrivalSpeed="0.0"/>
  <flow id="JF13273" begin="2880" fromJunction="J5" toJunction="J0" end="3240" vehsPerHour="66.71263131102364" departLane="free" arrivalSpeed="0.0"/>
  <flow id="JF13274" begin="2880" fromJunction="J5" toJunction="J6" end="3240" vehsPerHour="47.38687821468623" departLane="free" arrivalSpeed="0.0"/>
  <flow id="JF13275" begin="2880" fromJunction="J5" toJunction="J7" end="3240" vehsPerHour="36.94454572976748" departLane="free" arrivalSpeed="0.0"/>
  <flow id="JF13276" begin="2880" fromJunction="J6" toJunction="J0" end="3240" vehsPerHour="55.44874912951807" departLane="free" arrivalSpeed="0.0"/>
  <flow id="JF13277" begin="2880" fromJunction="J6" toJunction="J3" end="3240" vehsPerHour="25.837430682133157" departLane="free" arrivalSpeed="0.0"/>
  <flow id="JF13278" begin="2880" fromJunction="J6" toJunction="J4" end="3240" vehsPerHour="40.70038071922514" departLane="free" arrivalSpeed="0.0"/>
  <flow id="JF13279" begin="2880" fromJunction="J6" toJunction="J5" end="3240" vehsPerHour="14.416838590582692" departLane="free" arrivalSpeed="0.0"/>
  <flow id="JF13280" begin="2880" fromJunction="J7" toJunction="J0" end="3240" vehsPerHour="65.86250442191184" departLane="free" arrivalSpeed="0.0"/>
  <flow id="JF13281" begin="2880" fromJunction="J7" toJunction="J3" end="3240" vehsPerHour="42.308785365504114" departLane="free" arrivalSpeed="0.0"/>
  <flow id="JF13282" begin="2880" fromJunction="J7" toJunction="J4" end="3240" vehsPerHour="37.87412720645202" departLane="free" arrivalSpeed="0.0"/>
  <flow id="JF13283" begin="2880" fromJunction="J7" toJunction="J6" end="3240" vehsPerHour="30.695882518655523" departLane="free" arrivalSpeed="0.0"/>
  <flow id="JF13284" begin="3240" fromJunction="J0" toJunction="J4" end="3600" vehsPerHour="12.912486209825545" departLane="free" arrivalSpeed="0.0"/>
  <flow id="JF13285" begin="3240" fromJunction="J0" toJunction="J5" end="3600" vehsPerHour="69.69004135583617" departLane="free" arrivalSpeed="0.0"/>
  <flow id="JF13286" begin="3240" fromJunction="J0" toJunction="J7" end="3600" vehsPerHour="129.86788490091286" departLane="free" arrivalSpeed="0.0"/>
  <flow id="JF13287" begin="3240" fromJunction="J3" toJunction="J0" end="3600" vehsPerHour="75.0816452883195" departLane="free" arrivalSpeed="0.0"/>
  <flow id="JF13288" begin="3240" fromJunction="J3" toJunction="J4" end="3600" vehsPerHour="115.05886608355357" departLane="free" arrivalSpeed="0.0"/>
  <flow id="JF13289" begin="3240" fromJunction="J3" toJunction="J5" end="3600" vehsPerHour="0.2376299653635116" departLane="free" arrivalSpeed="0.0"/>
  <flow id="JF13290" begin="3240" fromJunction="J4" toJunction="J0" end="3600" vehsPerHour="24.38824752928283" departLane="free" arrivalSpeed="0.0"/>
  <flow id="JF13291" begin="3240" fromJunction="J4" toJunction="J7" end="3600" vehsPerHour="55.49586976477849" departLane="free" arrivalSpeed="0.0"/>
  <flow id="JF13292" begin="3240" fromJunction="J5" toJunction="J3" end="3600" vehsPerHour="15.670127667969105" departLane="free" arrivalSpeed="0.0"/>
  <flow id="JF13293" begin="3240" fromJunction="J5" toJunction="J4" end="3600" vehsPerHour="27.916789541706013" departLane="free" arrivalSpeed="0.0"/>
  <flow id="JF13294" begin="3240" fromJunction="J5" toJunction="J6" end="3600" vehsPerHour="63.6502413333252" departLane="free" arrivalSpeed="0.0"/>