<?xml version="1.0" encoding="UTF-8"?>
<routes xmlns:xsi="http://www.w3.org/2001/XMLSchema-instance" xsi:noNamespaceSchemaLocation="http://sumo.dlr.de/xsd/routes_file.xsd">
  <flow id="JF387879" begin="0" fromJunction="J3" toJunction="J0" end="5000" vehsPerHour="680.0927734006891" departLane="free"/>
  <flow id="JF387880" begin="0" fromJunction="J0" toJunction="J3" end="5000" vehsPerHour="1326.0397456365986" departLane="free"/>
  <flow id="JF387881" begin="0" fromJunction="J3" toJunction="J7" end="5000" vehsPerHour="109.29794626077603" departLane="free"/>
  <flow id="JF387882" begin="0" fromJunction="J3" toJunction="J6" end="5000" vehsPerHour="108.99830238374275" departLane="free"/>
  <flow id="JF387883" begin="0" fromJunction="J3" toJunction="J4" end="5000" vehsPerHour="124.24647448489401" departLane="free"/>
  <flow id="JF387884" begin="0" fromJunction="J3" toJunction="J5" end="5000" vehsPerHour="9.15012722773589" departLane="free"/>
  <flow id="JF387885" begin="0" fromJunction="J0" toJunction="J7" end="5000" vehsPerHour="20.089437139293416" departLane="free"/>
  <flow id="JF387886" begin="0" fromJunction="J0" toJunction="J6" end="5000" vehsPerHour="114.48870606863173" departLane="free"/>
  <flow id="JF387887" begin="0" fromJunction="J0" toJunction="J4" end="5000" vehsPerHour="93.56645058928635" departLane="free"/>
  <flow id="JF387888" begin="0" fromJunction="J0" toJunction="J5" end="5000" vehsPerHour="7.801620883916406" departLane="free"/>
  <flow id="JF387889" begin="0" fromJunction="J7" toJunction="J6" end="5000" vehsPerHour="51.31564707080407" departLane="free"/>
  <flow id="JF387890" begin="0" fromJunction="J7" toJunction="J4" end="5000" vehsPerHour="45.969110617542036" departLane="free"/>
  <flow id="JF387891" begin="0" fromJunction="J7" toJunction="J5" end="5000" vehsPerHour="67.36533692382068" departLane="free"/>
  <flow id="JF387892" begin="0" fromJunction="J6" toJunction="J7" end="5000" vehsPerHour="10.586492442900663" departLane="free"/>
  <flow id="JF387893" begin="0" fromJunction="J6" toJunction="J4" end="5000" vehsPerHour="39.96891177919782" departLane="free"/>
  <flow id="JF387894" begin="0" fromJunction="J6" toJunction="J5" end="5000" vehsPerHour="29.385008373883178" departLane="free"/>
  <flow id="JF387895" begin="0" fromJunction="J4" toJunction="J7" end="5000" vehsPerHour="21.433128267076672" departLane="free"/>
  <flow id="JF387896" begin="0" fromJunction="J4" toJunction="J6" end="5000" vehsPerHour="41.95568631262979" departLane="free"/>
  <flow id="JF387897" begin="0" fromJunction="J4" toJunction="J5" end="5000" vehsPerHour="15.236515053292242" departLane="free"/>
  <flow id="JF387898" begin="0" fromJunction="J5" toJunction="J7" end="5000" vehsPerHour="62.32941774025363" departLane="free"/>
  <flow id="JF387899" begin="0" fromJunction="J5" toJunction="J6" end="5000" vehsPerHour="4.238528345893642" departLane="free"/>
  <flow id="JF387900" begin="0" fromJunction="J5" toJunction="J4" end="5000" vehsPerHour="45.30548755053838" departLane="free"/>
  <flow id="JF387901" begin="0" fromJunction="J7" toJunction="J3" end="5000" vehsPerHour="66.17511717520254" departLane="free"/>
  <flow id="JF387902" begin="0" fromJunction="J7" toJunction="J0" end="5000" vehsPerHour="39.480460348948256" departLane="free"/>
  <flow id="JF387903" begin="0" fromJunction="J6" toJunction="J3" end="5000" vehsPerHour="63.46925411196954" departLane="free"/>
  <flow id="JF387904" begin="0" fromJunction="J6" toJunction="J0" end="5000" vehsPerHour="55.18250200049085" departLane="free"/>
  <flow id="JF387905" begin="0" fromJunction="J4" toJunction="J3" end="5000" vehsPerHour="43.18242745612182" departLane="free"/>
  <flow id="JF387906" begin="0" fromJunction="J4" toJunction="J0" end="5000" vehsPerHour="34.44931497735291" departLane="free"/>
  <flow id="JF387907" begin="0" fromJunction="J5" toJunction="J3" end="5000" vehsPerHour="15.18235271190934" departLane="free"/>
  <flow id="JF387908" begin="0" fromJunction="J5" toJunction="J0" end="5000" vehsPerHour="38.15096683127939" departLane="free"/>
  <flow id="JF387909" begin="5000" fromJunction="J3" toJunction="J4" end="5060" vehsPerHour="360.7460479779078" departLane="free"/>
  <flow id="JF387910" begin="5000" fromJunction="J3" toJunction="J5" end="5060" vehsPerHour="335.9790543455642" departLane="free"/>
  <flow id="JF387911" begin="5000" fromJunction="J3" toJunction="J6" end="5060" vehsPerHour="262.95791053877207" departLane="free"/>
  <flow id="JF387912" begin="5000" fromJunction="J3" toJunction="J7" end="5060" vehsPerHour="410.1939383246723" departLane="free"/>
  <flow id="JF387913" begin="5000" fromJunction="J4" toJunction="J0" end="5060" vehsPerHour="176.62913278955432" departLane="free"/>
  <flow id="JF387914" begin="5000" fromJunction="J4" toJunction="J3" end="5060" vehsPerHour="271.5168124886462" departLane="free"/>
  <flow id="JF387915" begin="5000" fromJunction="J4" toJunction="J6" end="5060" vehsPerHour="58.84088887885968" departLane="free"/>
  <flow id="JF387916" begin="5000" fromJunction="J5" toJunction="J0" end="5060" vehsPerHour="143.52136674161784" departLane="free"/>
  <flow id="JF387917" begin="5000" fromJunction="J5" toJunction="J4" end="5060" vehsPerHour="255.89677214963126" departLane="free"/>
  <flow id="JF387918" begin="5000" fromJunction="J5" toJunction="J6" end="5060" vehsPerHour="8.861539102409255" departLane="free"/>
  <flow id="JF387919" begin="5000" fromJunction="J5" toJunction="J7" end="5060" vehsPerHour="260.3980915806845" departLane="free"/>
  <flow id="JF387920" begin="5000" fromJunction="J6" toJunction="J0" end="5060" vehsPerHour="54.57515484735633" departLane="free"/>
  <flow id="JF387921" begin="5000" fromJunction="J6" toJunction="J3" end="5060" vehsPerHour="136.6430019642773" departLane="free"/>
  <flow id="JF387922" begin="5000" fromJunction="J6" toJunction="J5" end="5060" vehsPerHour="127.49742811537091" departLane="free"/>
  <flow id="JF387923" begin="5000" fromJunction="J6" toJunction="J7" end="5060" vehsPerHour="87.4770385781952" departLane="free"/>
  <flow id="JF387924" begin="5000" fromJunction="J7" toJunction="J3" end="5060" vehsPerHour="80.9474499858729" departLane="free"/>
  <flow id="JF387925" begin="5000" fromJunction="J7" toJunction="J4" end="5060" vehsPerHour="157.81355475945603" departLane="free"/>
  <flow id="JF387926" begin="5000" fromJunction="J7" toJunction="J5" end="5060" vehsPerHour="153.36719263415083" departLane="free"/>
  <flow id="JF387927" begin="5000" fromJunction="J7" toJunction="J6" end="5060" vehsPerHour="63.16743579905527" departLane="free"/>
  <flow id="JF387928" begin="5060" fromJunction="J0" toJunction="J3" end="5120" vehsPerHour="527.4099813076788" departLane="free"/>
  <flow id="JF387929" begin="5060" fromJunction="J0" toJunction="J5" end="5120" vehsPerHour="49.394509396338975" departLane="free"/>
  <flow id="JF387930" begin="5060" fromJunction="J0" toJunction="J6" end="5120" vehsPerHour="423.15688003437543" departLane="free"/>
  <flow id="JF387931" begin="5060" fromJunction="J0" toJunction="J7" end="5120" vehsPerHour="126.6038707452567" departLane="free"/>
  <flow id="JF387932" begin="5060" fromJunction="J3" toJunction="J0" end="5120" vehsPerHour="382.0320311981338" departLane="free"/>
  <flow id="JF387933" begin="5060" fromJunction="J3" toJunction="J6" end="5120" vehsPerHour="540.293079087855" departLane="free"/>
  <flow id="JF387934" begin="5060" fromJunction="J4" toJunction="J0" end="5120" vehsPerHour="173.07099688678753" departLane="free"/>
  <flow id="JF387935" begin="5060" fromJunction="J4" toJunction="J3" end="5120" vehsPerHour="133.35459089759632" departLane="free"/>
  <flow id="JF387936" begin="5060" fromJunction="J4" toJunction="J5" end="5120" vehsPerHour="191.66610307436824" departLane="free"/>
  <flow id="JF387937" begin="5060" fromJunction="J4" toJunction="J6" end="5120" vehsPerHour="126.3496627776503" departLane="free"/>
  <flow id="JF387938" begin="5060" fromJunction="J5" toJunction="J0" end="5120" vehsPerHour="154.6852672744946" departLane="free"/>
  <flow id="JF387939" begin="5060" fromJunction="J5" toJunction="J3" end="5120" vehsPerHour="270.49328600698556" departLane="free"/>
  <flow id="JF387940" begin="5060" fromJunction="J5" toJunction="J4" end="5120" vehsPerHour="136.55832368806617" departLane="free"/>
  <flow id="JF387941" begin="5060" fromJunction="J5" toJunction="J6" end="5120" vehsPerHour="150.05667972029391" departLane="free"/>
  <flow id="JF387942" begin="5060" fromJunction="J6" toJunction="J0" end="5120" vehsPerHour="102.5357380052027" departLane="free"/>
  <flow id="JF387943" begin="5060" fromJunction="J6" toJunction="J3" end="5120" vehsPerHour="0.7716912423007045" departLane="free"/>
  <flow id="JF387944" begin="5060" fromJunction="J6" toJunction="J4" end="5120" vehsPerHour="31.817686036646226" departLane="free"/>
  <flow id="JF387945" begin="5060" fromJunction="J6" toJunction="J7" end="5120" vehsPerHour="39.290673134742796" departLane="free"/>
  <flow id="JF387946" begin="5060" fromJunction="J7" toJunction="J5" end="5120" vehsPerHour="128.54314805177393" departLane="free"/>
  <flow id="JF387947" begin="5060" fromJunction="J7" toJunction="J6" end="5120" vehsPerHour="111.62028900791788" departLane="free"/>
  <flow id="JF387948" begin="5120" fromJunction="J0" toJunction="J3" end="5180" vehsPerHour="508.98931781761803" departLane="free"/>
  <flow id="JF387949" begin="5120" fromJunction="J0" toJunction="J4" end="5180" vehsPerHour="530.9532168076267" departLane="free"/>
  <flow id="JF387950" begin="5120" fromJunction="J0" toJunction="J5" end="5180" vehsPerHour="128.267474999826" departLane="free"/>
  <flow id="JF387951" begin="5120" fromJunction="J0" toJunction="J7" end="5180" vehsPerHour="264.67712136544895" departLane="free"/>
  <flow id="JF387952" begin="5120" fromJunction="J3" toJunction="J0" end="5180" vehsPerHour="250.981859652033" departLane="free"/>
  <flow id="JF387953" begin="5120" fromJunction="J3" toJunction="J5" end="5180" vehsPerHour="424.5958583923153" departLane="free"/>
  <flow id="JF387954" begin="5120" fromJunction="J3" toJunction="J6" end="5180" vehsPerHour="67.70728567201199" departLane="free"/>
  <flow id="JF387955" begin="5120" fromJunction="J4" toJunction="J0" end="5180" vehsPerHour="146.56516298675825" departLane="free"/>
  <flow id="JF387956" begin="5120" fromJunction="J4" toJunction="J3" end="5180" vehsPerHour="52.56293814832437" departLane="free"/>
  <flow id="JF387957" begin="5120" fromJunction="J5" toJunction="J7" end="5180" vehsPerHour="216.08958893624222" departLane="free"/>
  <flow id="JF387958" begin="5120" fromJunction="J6" toJunction="J0" end="5180" vehsPerHour="76.25447189874806" departLane="free"/>
  <flow id="JF387959" begin="5120" fromJunction="J6" toJunction="J3" end="5180" vehsPerHour="260.25764186680595" departLane="free"/>
  <flow id="JF387960" begin="5120" fromJunction="J6" toJunction="J5" end="5180" vehsPerHour="135.62196034759998" departLane="free"/>
  <flow id="JF387961" begin="5120" fromJunction="J6" toJunction="J7" end="5180" vehsPerHour="52.10778054142215" departLane="free"/>
  <flow id="JF387962" begin="5120" fromJunction="J7" toJunction="J0" end="5180" vehsPerHour="100.10246268442634" departLane="free"/>
  <flow id="JF387963" begin="5120" fromJunction="J7" toJunction="J4" end="5180" vehsPerHour="201.1813821633631" departLane="free"/>
  <flow id="JF387964" begin="5120" fromJunction="J7" toJunction="J5" end="5180" vehsPerHour="6.971461195989782" departLane="free"/>
  <flow id="JF387965" begin="5120" fromJunction="J7" toJunction="J6" end="5180" vehsPerHour="90.258711237661" departLane="free"/>
  <flow id="JF387966" begin="5180" fromJunction="J0" toJunction="J3" end="5240" vehsPerHour="379.09123163687167" departLane="free"/>
  <flow id="JF387967" begin="5180" fromJunction="J0" toJunction="J4" end="5240" vehsPerHour="233.29232402915287" departLane="free"/>
  <flow id="JF387968" begin="5180" fromJunction="J0" toJunction="J5" end="5240" vehsPerHour="133.9212970871805" departLane="free"/>
  <flow id="JF387969" begin="5180" fromJunction="J0" toJunction="J6" end="5240" vehsPerHour="367.5127225728072" departLane="free"/>
  <flow id="JF387970" begin="5180" fromJunction="J0" toJunction="J7" end="5240" vehsPerHour="473.59579253188485" departLane="free"/>
  <flow id="JF387971" begin="5180" fromJunction="J3" toJunction="J0" end="5240" vehsPerHour="517.7796884358543" departLane="free"/>
  <flow id="JF387972" begin="5180" fromJunction="J3" toJunction="J5" end="5240" vehsPerHour="147.15791518019176" departLane="free"/>
  <flow id="JF387973" begin="5180" fromJunction="J3" toJunction="J6" end="5240" vehsPerHour="351.7357810501064" departLane="free"/>
  <flow id="JF387974" begin="5180" fromJunction="J3" toJunction="J7" end="5240" vehsPerHour="172.74952161443716" departLane="free"/>
  <flow id="JF387975" begin="5180" fromJunction="J4" toJunction="J0" end="5240" vehsPerHour="236.1118176868672" departLane="free"/>
  <flow id="JF387976" begin="5180" fromJunction="J4" toJunction="J3" end="5240" vehsPerHour="252.48407835307384" departLane="free"/>
  <flow id="JF387977" begin="5180" fromJunction="J4" toJunction="J6" end="5240" vehsPerHour="148.71653914746156" departLane="free"/>
  <flow id="JF387978" begin="5180" fromJunction="J5" toJunction="J3" end="5240" vehsPerHour="263.3977741191801" departLane="free"/>
  <flow id="JF387979" begin="5180" fromJunction="J5" toJunction="J4" end="5240" vehsPerHour="181.8260767528044" departLane="free"/>
  <flow id="JF387980" begin="5180" fromJunction="J5" toJunction="J6" end="5240" vehsPerHour="228.48021615058147" departLane="free"/>
  <flow id="JF387981" begin="5180" fromJunction="J5" toJunction="J7" end="5240" vehsPerHour="3.5514120712952915" departLane="free"/>
  <flow id="JF387982" begin="5180" fromJunction="J6" toJunction="J0" end="5240" vehsPerHour="6.703753085454364" departLane="free"/>
  <flow id="JF387983" begin="5180" fromJunction="J6" toJunction="J3" end="5240" vehsPerHour="36.50706617925203" departLane="free"/>
  <flow id="JF387984" begin="5180" fromJunction="J6" toJunction="J4" end="5240" vehsPerHour="34.49688158410748" departLane="free"/>
  <flow id="JF387985" begin="5180" fromJunction="J6" toJunction="J7" end="5240" vehsPerHour="47.65055734627339" departLane="free"/>
  <flow id="JF387986" begin="5180" fromJunction="J7" toJunction="J4" end="5240" vehsPerHour="255.87321423218313" departLane="free"/>
  <flow id="JF387987" begin="5180" fromJunction="J7" toJunction="J5" end="5240" vehsPerHour="127.68551302978989" departLane="free"/>
  <flow id="JF387988" begin="5240" fromJunction="J0" toJunction="J5" end="5300" vehsPerHour="254.4596488991492" departLane="free"/>
  <flow id="JF387989" begin="5240" fromJunction="J0" toJunction="J6" end="5300" vehsPerHour="291.81598283380544" departLane="free"/>
  <flow id="JF387990" begin="5240" fromJunction="J0" toJunction="J7" end="5300" vehsPerHour="110.39928206096914" departLane="free"/>
  <flow id="JF387991" begin="5240" fromJunction="J3" toJunction="J4" end="5300" vehsPerHour="217.17431676762916" departLane="free"/>
  <flow id="JF387992" begin="5240" fromJunction="J3" toJunction="J5" end="5300" vehsPerHour="193.00311380648756" departLane="free"/>
  <flow id="JF387993" begin="5240" fromJunction="J3" toJunction="J6" end="5300" vehsPerHour="299.3025923482112" departLane="free"/>
  <flow id="JF387994" begin="5240" fromJunction="J4" toJunction="J3" end="5300" vehsPerHour="263.4732135875913" departLane="free"/>
  <flow id="JF387995" begin="5240" fromJunction="J4" toJunction="J5" end="5300" vehsPerHour="46.95965954988293" departLane="free"/>
  <flow id="JF387996" begin="5240" fromJunction="J4" toJunction="J6" end="5300" vehsPerHour="179.24118268573417" departLane="free"/>
  <flow id="JF387997" begin="5240" fromJunction="J5" toJunction="J0" end="5300" vehsPerHour="258.9862622410108" departLane="free"/>
  <flow id="JF387998" begin="5240" fromJunction="J5" toJunction="J3" end="5300" vehsPerHour="69.97908630196329" departLane="free"/>
  <flow id="JF387999" begin="5240" fromJunction="J5" toJunction="J4" end="5300" vehsPerHour="260.03419048069185" departLane="free"/>
  <flow id="JF388000" begin="5240" fromJunction="J6" toJunction="J0" end="5300" vehsPerHour="247.72440860561778" departLane="free"/>
  <flow id="JF388001" begin="5240" fromJunction="J6" toJunction="J3" end="5300" vehsPerHour="119.0417648189062" departLane="free"/>
  <flow id="JF388002" begin="5240" fromJunction="J6" toJunction="J4" end="5300" vehsPerHour="6.790768787242953" departLane="free"/>
  <flow id="JF388003" begin="5240" fromJunction="J6" toJunction="J5" end="5300" vehsPerHour="121.06056508587393" departLane="free"/>
  <flow id="JF388004" begin="5240" fromJunction="J6" toJunction="J7" end="5300" vehsPerHour="81.84660210815012" departLane="free"/>
  <flow id="JF388005" begin="5240" fromJunction="J7" toJunction="J0" end="5300" vehsPerHour="103.21890807999556" departLane="free"/>
  <flow id="JF388006" begin="5240" fromJunction="J7" toJunction="J4" end="5300" vehsPerHour="75.55801482225408" departLane="free"/>
  <flow id="JF388007" begin="5240" fromJunction="J7" toJunction="J5" end="5300" vehsPerHour="101.45005830537966" departLane="free"/>
  <flow id="JF388008" begin="5240" fromJunction="J7" toJunction="J6" end="5300" vehsPerHour="221.6042579113356" departLane="free"/>
  <flow id="JF388009" begin="5300" fromJunction="J0" toJunction="J3" end="5360" vehsPerHour="380.9083742422337" departLane="free"/>
  <flow id="JF388010" begin="5300" fromJunction="J0" toJunction="J4" end="5360" vehsPerHour="35.060603276200624" departLane="free"/>
  <flow id="JF388011" begin="5300" fromJunction="J0" toJunction="J7" end="5360" vehsPerHour="315.0321537684718" departLane="free"/>
  <flow id="JF388012" begin="5300" fromJunction="J3" toJunction="J0" end="5360" vehsPerHour="56.23348124105964" departLane="free"/>
  <flow id="JF388013" begin="5300" fromJunction="J3" toJunction="J4" end="5360" vehsPerHour="224.1524849350805" departLane="free"/>
  <flow id="JF388014" begin="5300" fromJunction="J3" toJunction="J5" end="5360" vehsPerHour="446.1313780053493" departLane="free"/>
  <flow id="JF388015" begin="5300" fromJunction="J3" toJunction="J7" end="5360" vehsPerHour="433.6106025370019" departLane="free"/>
  <flow id="JF388016" begin="5300" fromJunction="J4" toJunction="J3" end="5360" vehsPerHour="229.74502669629663" departLane="free"/>
  <flow id="JF388017" begin="5300" fromJunction="J4" toJunction="J5" end="5360" vehsPerHour="220.4089567875948" departLane="free"/>
  <flow id="JF388018" begin="5300" fromJunction="J4" toJunction="J6" end="5360" vehsPerHour="28.71165130018993" departLane="free"/>
  <flow id="JF388019" begin="5300" fromJunction="J4" toJunction="J7" end="5360" vehsPerHour="197.63614110051813" departLane="free"/>
  <flow id="JF388020" begin="5300" fromJunction="J5" toJunction="J0" end="5360" vehsPerHour="111.88197501138696" departLane="free"/>
  <flow id="JF388021" begin="5300" fromJunction="J5" toJunction="J6" end="5360" vehsPerHour="46.10582151980115" departLane="free"/>
  <flow id="JF388022" begin="5300" fromJunction="J6" toJunction="J0" end="5360" vehsPerHour="114.57224828414832" departLane="free"/>
  <flow id="JF388023" begin="5300" fromJunction="J6" toJunction="J3" end="5360" vehsPerHour="154.28571867472175" departLane="free"/>
  <flow id="JF388024" begin="5300" fromJunction="J6" toJunction="J4" end="5360" vehsPerHour="233.73271285794593" departLane="free"/>
  <flow id="JF388025" begin="5300" fromJunction="J6" toJunction="J5" end="5360" vehsPerHour="39.76725406000891" departLane="free"/>
  <flow id="JF388026" begin="5300" fromJunction="J6" toJunction="J7" end="5360" vehsPerHour="206.38379139344718" departLane="free"/>
  <flow id="JF388027" begin="5300" fromJunction="J7" toJunction="J0" end="5360" vehsPerHour="162.75460198142775" departLane="free"/>
  <flow id="JF388028" begin="5300" fromJunction="J7" toJunction="J3" end="5360" vehsPerHour="12.912043490729623" departLane="free"/>
  <flow id="JF388029" begin="5300" fromJunction="J7" toJunction="J4" end="5360" vehsPerHour="136.64525674389105" departLane="free"/>
  <flow id="JF388030" begin="5300" fromJunction="J7" toJunction="J5" end="5360" vehsPerHour="174.84760957923172" departLane="free"/>
  <flow id="JF388031" begin="5300" fromJunction="J7" toJunction="J6" end="5360" vehsPerHour="259.1010294816747" departLane="free"/>
  <flow id="JF388032" begin="5360" fromJunction="J0" toJunction="J3" end="5420" vehsPerHour="484.9631264563586" departLane="free"/>
  <flow id="JF388033" begin="5360" fromJunction="J0" toJunction="J5" end="5420" vehsPerHour="470.41283537934504" departLane="free"/>
  <flow id="JF388034" begin="5360" fromJunction="J0" toJunction="J6" end="5420" vehsPerHour="326.862716764313" departLane="free"/>
  <flow id="JF388035" begin="5360" fromJunction="J0" toJunction="J7" end="5420" vehsPerHour="185.50200211873073" departLane="free"/>
  <flow id="JF388036" begin="5360" fromJunction="J3" toJunction="J0" end="5420" vehsPerHour="297.0461492932981" departLane="free"/>
  <flow id="JF388037" begin="5360" fromJunction="J3" toJunction="J5" end="5420" vehsPerHour="18.700407537504528" departLane="free"/>
  <flow id="JF388038" begin="5360" fromJunction="J3" toJunction="J6" end="5420" vehsPerHour="339.5456496010278" departLane="free"/>
  <flow id="JF388039" begin="5360" fromJunction="J3" toJunction="J7" end="5420" vehsPerHour="186.67188535002063" departLane="free"/>
  <flow id="JF388040" begin="5360" fromJunction="J4" toJunction="J0" end="5420" vehsPerHour="76.71987767311286" departLane="free"/>
  <flow id="JF388041" begin="5360" fromJunction="J4" toJunction="J3" end="5420" vehsPerHour="229.79361159703768" departLane="free"/>
  <flow id="JF388042" begin="5360" fromJunction="J5" toJunction="J0" end="5420" vehsPerHour="92.9970690455074" departLane="free"/>
  <flow id="JF388043" begin="5360" fromJunction="J5" toJunction="J3" end="5420" vehsPerHour="25.717583203890925" departLane="free"/>
  <flow id="JF388044" begin="5360" fromJunction="J5" toJunction="J4" end="5420" vehsPerHour="16.937562316931658" departLane="free"/>
  <flow id="JF388045" begin="5360" fromJunction="J5" toJunction="J7" end="5420" vehsPerHour="237.39300921655217" departLane="free"/>
  <flow id="JF388046" begin="5360" fromJunction="J6" toJunction="J0" end="5420" vehsPerHour="86.44542157203378" departLane="free"/>
  <flow id="JF388047" begin="5360" fromJunction="J6" toJunction="J3" end="5420" vehsPerHour="81.6548684289871" departLane="free"/>
  <flow id="JF388048" begin="5360" fromJunction="J6" toJunction="J4" end="5420" vehsPerHour="122.22405323290158" departLane="free"/>
  <flow id="JF388049" begin="5360" fromJunction="J6" toJunction="J5" end="5420" vehsPerHour="84.04990719049904" departLane="free"/>
  <flow id="JF388050" begin="5360" fromJunction="J6" toJunction="J7" end="5420" vehsPerHour="265.14833477920996" departLane="free"/>
  <flow id="JF388051" begin="5360" fromJunction="J7" toJunction="J0" end="5420" vehsPerHour="267.76764297448557" departLane="free"/>
  <flow id="JF388052" begin="5360" fromJunction="J7" toJunction="J3" end="5420" vehsPerHour="53.46596106674377" departLane="free"/>
  <flow id="JF388053" begin="5360" fromJunction="J7" toJunction="J5" end="5420" vehsPerHour="138.0022051795072" departLane="free"/>
  <flow id="JF388054" begin="5420" fromJunction="J0" toJunction="J4" end="5480" vehsPerHour="376.72706575072294" departLane="free"/>
  <flow id="JF388055" begin="5420" fromJunction="J0" toJunction="J5" end="5480" vehsPerHour="315.18029175778616" departLane="free"/>
  <flow id="JF388056" begin="5420" fromJunction="J0" toJunction="J6" end="5480" vehsPerHour="40.893235251208644" departLane="free"/>
  <flow id="JF388057" begin="5420" fromJunction="J0" toJunction="J7" end="5480" vehsPerHour="423.8104498605176" departLane="free"/>
  <flow id="JF388058" begin="5420" fromJunction="J3" toJunction="J0" end="5480" vehsPerHour="113.5227892531301" departLane="free"/>
  <flow id="JF388059" begin="5420" fromJunction="J3" toJunction="J4" end="5480" vehsPerHour="243.96941552982676" departLane="free"/>
  <flow id="JF388060" begin="5420" fromJunction="J3" toJunction="J5" end="5480" vehsPerHour="134.00118743180076" departLane="free"/>
  <flow id="JF388061" begin="5420" fromJunction="J3" toJunction="J7" end="5480" vehsPerHour="219.88363752109882" departLane="free"/>
  <flow id="JF388062" begin="5420" fromJunction="J4" toJunction="J0" end="5480" vehsPerHour="107.84935463489514" departLane="free"/>
  <flow id="JF388063" begin="5420" fromJunction="J4" toJunction="J5" end="5480" vehsPerHour="190.51848183506928" departLane="free"/>
  <flow id="JF388064" begin="5420" fromJunction="J4" toJunction="J6" end="5480" vehsPerHour="7.325464634080328" departLane="free"/>
  <flow id="JF388065" begin="5420" fromJunction="J4" toJunction="J7" end="5480" vehsPerHour="266.4272754074285" departLane="free"/>
  <flow id="JF388066" begin="5420" fromJunction="J5" toJunction="J3" end="5480" vehsPerHour="74.95853162077005" departLane="free"/>
  <flow id="JF388067" begin="5420" fromJunction="J5" toJunction="J4" end="5480" vehsPerHour="229.9666362697996" departLane="free"/>
  <flow id="JF388068" begin="5420" fromJunction="J6" toJunction="J0" end="5480" vehsPerHour="173.22773500770938" departLane="free"/>
  <flow id="JF388069" begin="5420" fromJunction="J6" toJunction="J3" end="5480" vehsPerHour="198.10721542782514" departLane="free"/>
  <flow id="JF388070" begin="5420" fromJunction="J6" toJunction="J4" end="5480" vehsPerHour="19.39803185161515" departLane="free"/>
  <flow id="JF388071" begin="5420" fromJunction="J6" toJunction="J5" end="5480" vehsPerHour="181.58456788827507" departLane="free"/>
  <flow id="JF388072" begin="5420" fromJunction="J7" toJunction="J5" end="5480" vehsPerHour="70.24403625613037" departLane="free"/>
  <flow id="JF388073" begin="5420" fromJunction="J7" toJunction="J6" end="5480" vehsPerHour="119.9616781894586" departLane="free"/>
  <flow id="JF388074" begin="5480" fromJunction="J0" toJunction="J3" end="5540" vehsPerHour="163.90477212926774" departLane="free"/>
  <flow id="JF388075" begin="5480" fromJunction="J0" toJunction="J4" end="5540" vehsPerHour="408.023562575536" departLane="free"/>
  <flow id="JF388076" begin="5480" fromJunction="J0" toJunction="J5" end="5540" vehsPerHour="386.90082916655723" departLane="free"/>
  <flow id="JF388077" begin="5480" fromJunction="J0" toJunction="J7" end="5540" vehsPerHour="171.70840710571778" departLane="free"/>
  <flow id="JF388078" begin="5480" fromJunction="J3" toJunction="J0" end="5540" vehsPerHour="101.23943262679687" departLane="free"/>
  <flow id="JF388079" begin="5480" fromJunction="J3" toJunction="J5" end="5540" vehsPerHour="522.9682381435612" departLane="free"/>
  <flow id="JF388080" begin="5480" fromJunction="J3" toJunction="J6" end="5540" vehsPerHour="25.53345630154064" departLane="free"/>
  <flow id="JF388081" begin="5480" fromJunction="J3" toJunction="J7" end="5540" vehsPerHour="45.59906919524547" departLane="free"/>
  <flow id="JF388082" begin="5480" fromJunction="J4" toJunction="J0" end="5540" vehsPerHour="41.11712495165015" departLane="free"/>
  <flow id="JF388083" begin="5480" fromJunction="J4" toJunction="J5" end="5540" vehsPerHour="208.0520949378869" departLane="free"/>
  <flow id="JF388084" begin="5480" fromJunction="J4" toJunction="J6" end="5540" vehsPerHour="48.29218410921714" departLane="free"/>
  <flow id="JF388085" begin="5480" fromJunction="J5" toJunction="J3" end="5540" vehsPerHour="34.96439241025097" departLane="free"/>
  <flow id="JF388086" begin="5480" fromJunction="J5" toJunction="J6" end="5540" vehsPerHour="45.425856019023726" departLane="free"/>
  <flow id="JF388087" begin="5480" fromJunction="J5" toJunction="J7" end="5540" vehsPerHour="30.35884583431912" departLane="free"/>
  <flow id="JF388088" begin="5480" fromJunction="J6" toJunction="J0" end="5540" vehsPerHour="175.352447738542" departLane="free"/>
  <flow id="JF388089" begin="5480" fromJunction="J6" toJunction="J3" end="5540" vehsPerHour="29.910935973743726" departLane="free"/>
  <flow id="JF388090" begin="5480" fromJunction="J6" toJunction="J4" end="5540" vehsPerHour="4.35328890293147" departLane="free"/>
  <flow id="JF388091" begin="5480" fromJunction="J6" toJunction="J5" end="5540" vehsPerHour="68.32858103554595" departLane="free"/>
  <flow id="JF388092" begin="5480" fromJunction="J6" toJunction="J7" end="5540" vehsPerHour="271.5657781696605" departLane="free"/>
  <flow id="JF388093" begin="5480" fromJunction="J7" toJunction="J0" end="5540" vehsPerHour="59.713567242916405" departLane="free"/>
  <flow id="JF388094" begin="5480" fromJunction="J7" toJunction="J4" end="5540" vehsPerHour="197.4478002320273" departLane="free"/>
  <flow id="JF388095" begin="5480" fromJunction="J7" toJunction="J5" end="5540" vehsPerHour="261.9375287919689" departLane="free"/>
  <flow id="JF388096" begin="5480" fromJunction="J7" toJunction="J6" end="5540" vehsPerHour="263.2929564240477" departLane="free"/>
  <flow id="JF388097" begin="5540" fromJunction="J0" toJunction="J3" end="5600" vehsPerHour="150.8771152092612" departLane="free"/>
  <flow id="JF388098" begin="5540" fromJunction="J0" toJunction="J6" end="5600" vehsPerHour="415.6754261938004" departLane="free"/>
  <flow id="JF388099" begin="5540" fromJunction="J0" toJunction="J7" end="5600" vehsPerHour="549.5596762482284" departLane="free"/>
  <flow id="JF388100" begin="5540" fromJunction="J3" toJunction="J0" end="5600" vehsPerHour="86.96868736525157" departLane="free"/>
  <flow id="JF388101" begin="5540" fromJunction="J3" toJunction="J4" end="5600" vehsPerHour="503.22734355301014" departLane="free"/>
  <flow id="JF388102" begin="5540" fromJunction="J3" toJunction="J5" end="5600" vehsPerHour="450.4104544038812" departLane="free"/>
  <flow id="JF388103" begin="5540" fromJunction="J3" toJunction="J7" end="5600" vehsPerHour="55.612537975062935" departLane="free"/>