<?xml version="1.0" encoding="UTF-8"?>
<routes xmlns:xsi="http://www.w3.org/2001/XMLSchema-instance" xsi:noNamespaceSchemaLocation="http://sumo.dlr.de/xsd/routes_file.xsd">
  <flow id="JF382547" begin="0" fromJunction="J3" toJunction="J0" end="5000" vehsPerHour="1273.6400202237573" departLane="free"/>
  <flow id="JF382548" begin="0" fromJunction="J0" toJunction="J3" end="5000" vehsPerHour="1206.1249682063371" departLane="free"/>
  <flow id="JF382549" begin="0" fromJunction="J3" toJunction="J7" end="5000" vehsPerHour="23.754549620871042" departLane="free"/>
  <flow id="JF382550" begin="0" fromJunction="J3" toJunction="J6" end="5000" vehsPerHour="136.53476831934532" departLane="free"/>
  <flow id="JF382551" begin="0" fromJunction="J3" toJunction="J4" end="5000" vehsPerHour="127.83804277621861" departLane="free"/>
  <flow id="JF382552" begin="0" fromJunction="J3" toJunction="J5" end="5000" vehsPerHour="87.90362833322084" departLane="free"/>
  <flow id="JF382553" begin="0" fromJunction="J0" toJunction="J7" end="5000" vehsPerHour="67.12622413183436" departLane="free"/>
  <flow id="JF382554" begin="0" fromJunction="J0" toJunction="J6" end="5000" vehsPerHour="89.1763163238733" departLane="free"/>
  <flow id="JF382555" begin="0" fromJunction="J0" toJunction="J4" end="5000" vehsPerHour="27.630591782490054" departLane="free"/>
  <flow id="JF382556" begin="0" fromJunction="J0" toJunction="J5" end="5000" vehsPerHour="112.48770564652669" departLane="free"/>
  <flow id="JF382557" begin="0" fromJunction="J7" toJunction="J6" end="5000" vehsPerHour="35.477767653564804" departLane="free"/>
  <flow id="JF382558" begin="0" fromJunction="J7" toJunction="J4" end="5000" vehsPerHour="58.05020535863797" departLane="free"/>
  <flow id="JF382559" begin="0" fromJunction="J7" toJunction="J5" end="5000" vehsPerHour="62.55039344648361" departLane="free"/>
  <flow id="JF382560" begin="0" fromJunction="J6" toJunction="J7" end="5000" vehsPerHour="66.41374285948409" departLane="free"/>
  <flow id="JF382561" begin="0" fromJunction="J6" toJunction="J4" end="5000" vehsPerHour="37.282807561239814" departLane="free"/>
  <flow id="JF382562" begin="0" fromJunction="J6" toJunction="J5" end="5000" vehsPerHour="24.06725852776025" departLane="free"/>
  <flow id="JF382563" begin="0" fromJunction="J4" toJunction="J7" end="5000" vehsPerHour="60.45078971113301" departLane="free"/>
  <flow id="JF382564" begin="0" fromJunction="J4" toJunction="J6" end="5000" vehsPerHour="33.91979818884734" departLane="free"/>
  <flow id="JF382565" begin="0" fromJunction="J4" toJunction="J5" end="5000" vehsPerHour="54.67563579976679" departLane="free"/>
  <flow id="JF382566" begin="0" fromJunction="J5" toJunction="J7" end="5000" vehsPerHour="57.92946320499082" departLane="free"/>
  <flow id="JF382567" begin="0" fromJunction="J5" toJunction="J6" end="5000" vehsPerHour="22.892177906117727" departLane="free"/>
  <flow id="JF382568" begin="0" fromJunction="J5" toJunction="J4" end="5000" vehsPerHour="38.7538039857851" departLane="free"/>
  <flow id="JF382569" begin="0" fromJunction="J7" toJunction="J3" end="5000" vehsPerHour="48.17641521480788" departLane="free"/>
  <flow id="JF382570" begin="0" fromJunction="J7" toJunction="J0" end="5000" vehsPerHour="7.04289304070551" departLane="free"/>
  <flow id="JF382571" begin="0" fromJunction="J6" toJunction="J3" end="5000" vehsPerHour="59.05629164522587" departLane="free"/>
  <flow id="JF382572" begin="0" fromJunction="J6" toJunction="J0" end="5000" vehsPerHour="10.378112113730742" departLane="free"/>
  <flow id="JF382573" begin="0" fromJunction="J4" toJunction="J3" end="5000" vehsPerHour="65.03819884377747" departLane="free"/>
  <flow id="JF382574" begin="0" fromJunction="J4" toJunction="J0" end="5000" vehsPerHour="68.50722473367257" departLane="free"/>
  <flow id="JF382575" begin="0" fromJunction="J5" toJunction="J3" end="5000" vehsPerHour="56.8211713826229" departLane="free"/>
  <flow id="JF382576" begin="0" fromJunction="J5" toJunction="J0" end="5000" vehsPerHour="55.02891708378525" departLane="free"/>
  <flow id="JF382577" begin="5000" fromJunction="J0" toJunction="J3" end="5060" vehsPerHour="426.9865508976508" departLane="free"/>
  <flow id="JF382578" begin="5000" fromJunction="J0" toJunction="J4" end="5060" vehsPerHour="533.5569458698398" departLane="free"/>
  <flow id="JF382579" begin="5000" fromJunction="J0" toJunction="J5" end="5060" vehsPerHour="498.6043215222029" departLane="free"/>
  <flow id="JF382580" begin="5000" fromJunction="J0" toJunction="J6" end="5060" vehsPerHour="510.4647609502066" departLane="free"/>
  <flow id="JF382581" begin="5000" fromJunction="J0" toJunction="J7" end="5060" vehsPerHour="32.58478448633763" departLane="free"/>
  <flow id="JF382582" begin="5000" fromJunction="J3" toJunction="J0" end="5060" vehsPerHour="117.87591365277005" departLane="free"/>
  <flow id="JF382583" begin="5000" fromJunction="J3" toJunction="J4" end="5060" vehsPerHour="105.70334715810876" departLane="free"/>
  <flow id="JF382584" begin="5000" fromJunction="J3" toJunction="J6" end="5060" vehsPerHour="200.3869595862204" departLane="free"/>
  <flow id="JF382585" begin="5000" fromJunction="J3" toJunction="J7" end="5060" vehsPerHour="131.97731318336008" departLane="free"/>
  <flow id="JF382586" begin="5000" fromJunction="J4" toJunction="J0" end="5060" vehsPerHour="42.41979545394688" departLane="free"/>
  <flow id="JF382587" begin="5000" fromJunction="J4" toJunction="J3" end="5060" vehsPerHour="99.28802315275242" departLane="free"/>
  <flow id="JF382588" begin="5000" fromJunction="J4" toJunction="J5" end="5060" vehsPerHour="29.13691930659361" departLane="free"/>
  <flow id="JF382589" begin="5000" fromJunction="J4" toJunction="J6" end="5060" vehsPerHour="74.3401533257562" departLane="free"/>
  <flow id="JF382590" begin="5000" fromJunction="J4" toJunction="J7" end="5060" vehsPerHour="228.46453937608365" departLane="free"/>
  <flow id="JF382591" begin="5000" fromJunction="J5" toJunction="J0" end="5060" vehsPerHour="19.401344401908027" departLane="free"/>
  <flow id="JF382592" begin="5000" fromJunction="J5" toJunction="J3" end="5060" vehsPerHour="66.20729783507946" departLane="free"/>
  <flow id="JF382593" begin="5000" fromJunction="J5" toJunction="J4" end="5060" vehsPerHour="127.75224716909219" departLane="free"/>
  <flow id="JF382594" begin="5000" fromJunction="J5" toJunction="J6" end="5060" vehsPerHour="76.11793268512052" departLane="free"/>
  <flow id="JF382595" begin="5000" fromJunction="J6" toJunction="J0" end="5060" vehsPerHour="32.28320627716208" departLane="free"/>
  <flow id="JF382596" begin="5000" fromJunction="J6" toJunction="J3" end="5060" vehsPerHour="264.5659552713084" departLane="free"/>
  <flow id="JF382597" begin="5000" fromJunction="J6" toJunction="J7" end="5060" vehsPerHour="231.0273895933585" departLane="free"/>
  <flow id="JF382598" begin="5000" fromJunction="J7" toJunction="J0" end="5060" vehsPerHour="58.52555940125216" departLane="free"/>
  <flow id="JF382599" begin="5000" fromJunction="J7" toJunction="J5" end="5060" vehsPerHour="136.74775735686552" departLane="free"/>
  <flow id="JF382600" begin="5000" fromJunction="J7" toJunction="J6" end="5060" vehsPerHour="85.83528921187984" departLane="free"/>
  <flow id="JF382601" begin="5060" fromJunction="J0" toJunction="J3" end="5120" vehsPerHour="77.2517495575748" departLane="free"/>
  <flow id="JF382602" begin="5060" fromJunction="J0" toJunction="J4" end="5120" vehsPerHour="541.0910459546211" departLane="free"/>
  <flow id="JF382603" begin="5060" fromJunction="J0" toJunction="J5" end="5120" vehsPerHour="66.60891250823397" departLane="free"/>
  <flow id="JF382604" begin="5060" fromJunction="J0" toJunction="J6" end="5120" vehsPerHour="540.3567250740695" departLane="free"/>
  <flow id="JF382605" begin="5060" fromJunction="J3" toJunction="J0" end="5120" vehsPerHour="342.5189828320242" departLane="free"/>
  <flow id="JF382606" begin="5060" fromJunction="J3" toJunction="J5" end="5120" vehsPerHour="240.70542943421964" departLane="free"/>
  <flow id="JF382607" begin="5060" fromJunction="J3" toJunction="J6" end="5120" vehsPerHour="55.7299854150535" departLane="free"/>
  <flow id="JF382608" begin="5060" fromJunction="J4" toJunction="J3" end="5120" vehsPerHour="86.00028895979004" departLane="free"/>
  <flow id="JF382609" begin="5060" fromJunction="J4" toJunction="J5" end="5120" vehsPerHour="114.40958566124685" departLane="free"/>
  <flow id="JF382610" begin="5060" fromJunction="J4" toJunction="J6" end="5120" vehsPerHour="123.51054969317977" departLane="free"/>
  <flow id="JF382611" begin="5060" fromJunction="J4" toJunction="J7" end="5120" vehsPerHour="188.65388328847882" departLane="free"/>
  <flow id="JF382612" begin="5060" fromJunction="J5" toJunction="J0" end="5120" vehsPerHour="200.973786411533" departLane="free"/>
  <flow id="JF382613" begin="5060" fromJunction="J5" toJunction="J3" end="5120" vehsPerHour="211.20608523077127" departLane="free"/>
  <flow id="JF382614" begin="5060" fromJunction="J5" toJunction="J7" end="5120" vehsPerHour="222.31895440727033" departLane="free"/>
  <flow id="JF382615" begin="5060" fromJunction="J6" toJunction="J0" end="5120" vehsPerHour="81.20860086847114" departLane="free"/>
  <flow id="JF382616" begin="5060" fromJunction="J6" toJunction="J4" end="5120" vehsPerHour="104.89349468939555" departLane="free"/>
  <flow id="JF382617" begin="5060" fromJunction="J6" toJunction="J5" end="5120" vehsPerHour="106.48644406087173" departLane="free"/>
  <flow id="JF382618" begin="5060" fromJunction="J6" toJunction="J7" end="5120" vehsPerHour="73.4597438871918" departLane="free"/>
  <flow id="JF382619" begin="5060" fromJunction="J7" toJunction="J4" end="5120" vehsPerHour="254.34955683761962" departLane="free"/>
  <flow id="JF382620" begin="5060" fromJunction="J7" toJunction="J5" end="5120" vehsPerHour="255.97076896866534" departLane="free"/>
  <flow id="JF382621" begin="5060" fromJunction="J7" toJunction="J6" end="5120" vehsPerHour="104.2902322076781" departLane="free"/>
  <flow id="JF382622" begin="5120" fromJunction="J0" toJunction="J5" end="5180" vehsPerHour="514.387686602318" departLane="free"/>
  <flow id="JF382623" begin="5120" fromJunction="J0" toJunction="J6" end="5180" vehsPerHour="374.6138978109295" departLane="free"/>
  <flow id="JF382624" begin="5120" fromJunction="J3" toJunction="J0" end="5180" vehsPerHour="263.86173855746614" departLane="free"/>
  <flow id="JF382625" begin="5120" fromJunction="J3" toJunction="J4" end="5180" vehsPerHour="298.26464676634953" departLane="free"/>
  <flow id="JF382626" begin="5120" fromJunction="J3" toJunction="J5" end="5180" vehsPerHour="52.9502077194186" departLane="free"/>
  <flow id="JF382627" begin="5120" fromJunction="J3" toJunction="J7" end="5180" vehsPerHour="130.60536805588893" departLane="free"/>
  <flow id="JF382628" begin="5120" fromJunction="J4" toJunction="J0" end="5180" vehsPerHour="187.5876635683714" departLane="free"/>
  <flow id="JF382629" begin="5120" fromJunction="J4" toJunction="J5" end="5180" vehsPerHour="240.9443685920545" departLane="free"/>
  <flow id="JF382630" begin="5120" fromJunction="J4" toJunction="J7" end="5180" vehsPerHour="50.01289633435169" departLane="free"/>
  <flow id="JF382631" begin="5120" fromJunction="J5" toJunction="J0" end="5180" vehsPerHour="74.27298557167583" departLane="free"/>
  <flow id="JF382632" begin="5120" fromJunction="J5" toJunction="J6" end="5180" vehsPerHour="49.81014536638227" departLane="free"/>
  <flow id="JF382633" begin="5120" fromJunction="J5" toJunction="J7" end="5180" vehsPerHour="237.91257584465416" departLane="free"/>
  <flow id="JF382634" begin="5120" fromJunction="J6" toJunction="J0" end="5180" vehsPerHour="153.02668773713216" departLane="free"/>
  <flow id="JF382635" begin="5120" fromJunction="J6" toJunction="J3" end="5180" vehsPerHour="253.7159708203408" departLane="free"/>
  <flow id="JF382636" begin="5120" fromJunction="J6" toJunction="J4" end="5180" vehsPerHour="134.12948067534458" departLane="free"/>
  <flow id="JF382637" begin="5120" fromJunction="J6" toJunction="J7" end="5180" vehsPerHour="271.82032492217394" departLane="free"/>
  <flow id="JF382638" begin="5120" fromJunction="J7" toJunction="J0" end="5180" vehsPerHour="175.48120938486525" departLane="free"/>
  <flow id="JF382639" begin="5120" fromJunction="J7" toJunction="J4" end="5180" vehsPerHour="120.16815066208994" departLane="free"/>
  <flow id="JF382640" begin="5180" fromJunction="J0" toJunction="J5" end="5240" vehsPerHour="547.783971354786" departLane="free"/>
  <flow id="JF382641" begin="5180" fromJunction="J0" toJunction="J6" end="5240" vehsPerHour="173.2098923452303" departLane="free"/>
  <flow id="JF382642" begin="5180" fromJunction="J0" toJunction="J7" end="5240" vehsPerHour="137.58353404267507" departLane="free"/>
  <flow id="JF382643" begin="5180" fromJunction="J3" toJunction="J0" end="5240" vehsPerHour="421.4223489609906" departLane="free"/>
  <flow id="JF382644" begin="5180" fromJunction="J3" toJunction="J4" end="5240" vehsPerHour="503.7745951412845" departLane="free"/>
  <flow id="JF382645" begin="5180" fromJunction="J3" toJunction="J5" end="5240" vehsPerHour="323.8338073403786" departLane="free"/>
  <flow id="JF382646" begin="5180" fromJunction="J3" toJunction="J7" end="5240" vehsPerHour="260.034988749065" departLane="free"/>
  <flow id="JF382647" begin="5180" fromJunction="J4" toJunction="J3" end="5240" vehsPerHour="140.42284714613163" departLane="free"/>
  <flow id="JF382648" begin="5180" fromJunction="J4" toJunction="J6" end="5240" vehsPerHour="3.0243200441744937" departLane="free"/>
  <flow id="JF382649" begin="5180" fromJunction="J5" toJunction="J3" end="5240" vehsPerHour="253.42102050367652" departLane="free"/>
  <flow id="JF382650" begin="5180" fromJunction="J5" toJunction="J4" end="5240" vehsPerHour="15.21099668577954" departLane="free"/>
  <flow id="JF382651" begin="5180" fromJunction="J5" toJunction="J6" end="5240" vehsPerHour="264.7460730450277" departLane="free"/>
  <flow id="JF382652" begin="5180" fromJunction="J6" toJunction="J3" end="5240" vehsPerHour="267.15161921473833" departLane="free"/>
  <flow id="JF382653" begin="5180" fromJunction="J6" toJunction="J4" end="5240" vehsPerHour="81.94541006586304" departLane="free"/>
  <flow id="JF382654" begin="5180" fromJunction="J6" toJunction="J5" end="5240" vehsPerHour="244.9371753122984" departLane="free"/>
  <flow id="JF382655" begin="5180" fromJunction="J6" toJunction="J7" end="5240" vehsPerHour="20.22285750539677" departLane="free"/>
  <flow id="JF382656" begin="5180" fromJunction="J7" toJunction="J0" end="5240" vehsPerHour="111.77568438628593" departLane="free"/>
  <flow id="JF382657" begin="5180" fromJunction="J7" toJunction="J3" end="5240" vehsPerHour="83.97106640710096" departLane="free"/>
  <flow id="JF382658" begin="5180" fromJunction="J7" toJunction="J4" end="5240" vehsPerHour="60.47581981474177" departLane="free"/>
  <flow id="JF382659" begin="5180" fromJunction="J7" toJunction="J5" end="5240" vehsPerHour="147.44795150878394" departLane="free"/>
  <flow id="JF382660" begin="5240" fromJunction="J0" toJunction="J3" end="5300" vehsPerHour="466.36908100705386" departLane="free"/>
  <flow id="JF382661" begin="5240" fromJunction="J0" toJunction="J4" end="5300" vehsPerHour="509.84251105298887" departLane="free"/>
  <flow id="JF382662" begin="5240" fromJunction="J0" toJunction="J5" end="5300" vehsPerHour="458.354168372833" departLane="free"/>
  <flow id="JF382663" begin="5240" fromJunction="J0" toJunction="J6" end="5300" vehsPerHour="202.33328378379954" departLane="free"/>
  <flow id="JF382664" begin="5240" fromJunction="J0" toJunction="J7" end="5300" vehsPerHour="528.1837725589205" departLane="free"/>
  <flow id="JF382665" begin="5240" fromJunction="J3" toJunction="J0" end="5300" vehsPerHour="483.42022801665246" departLane="free"/>
  <flow id="JF382666" begin="5240" fromJunction="J3" toJunction="J4" end="5300" vehsPerHour="440.436066046135" departLane="free"/>
  <flow id="JF382667" begin="5240" fromJunction="J3" toJunction="J5" end="5300" vehsPerHour="459.40269220106" departLane="free"/>
  <flow id="JF382668" begin="5240" fromJunction="J3" toJunction="J6" end="5300" vehsPerHour="379.8926726815999" departLane="free"/>
  <flow id="JF382669" begin="5240" fromJunction="J3" toJunction="J7" end="5300" vehsPerHour="328.025094743793" departLane="free"/>
  <flow id="JF382670" begin="5240" fromJunction="J4" toJunction="J3" end="5300" vehsPerHour="188.57523323861494" departLane="free"/>
  <flow id="JF382671" begin="5240" fromJunction="J4" toJunction="J5" end="5300" vehsPerHour="30.127041408548827" departLane="free"/>
  <flow id="JF382672" begin="5240" fromJunction="J4" toJunction="J6" end="5300" vehsPerHour="122.86050540513436" departLane="free"/>
  <flow id="JF382673" begin="5240" fromJunction="J5" toJunction="J3" end="5300" vehsPerHour="220.49101823499421" departLane="free"/>
  <flow id="JF382674" begin="5240" fromJunction="J5" toJunction="J4" end="5300" vehsPerHour="163.87802833932395" departLane="free"/>
  <flow id="JF382675" begin="5240" fromJunction="J5" toJunction="J6" end="5300" vehsPerHour="173.11803357645377" departLane="free"/>
  <flow id="JF382676" begin="5240" fromJunction="J5" toJunction="J7" end="5300" vehsPerHour="23.739969721330848" departLane="free"/>
  <flow id="JF382677" begin="5240" fromJunction="J6" toJunction="J0" end="5300" vehsPerHour="123.77443562562276" departLane="free"/>
  <flow id="JF382678" begin="5240" fromJunction="J6" toJunction="J3" end="5300" vehsPerHour="259.52606190525756" departLane="free"/>
  <flow id="JF382679" begin="5240" fromJunction="J6" toJunction="J4" end="5300" vehsPerHour="207.41991742099341" departLane="free"/>
  <flow id="JF382680" begin="5240" fromJunction="J7" toJunction="J0" end="5300" vehsPerHour="110.84492083416065" departLane="free"/>
  <flow id="JF382681" begin="5240" fromJunction="J7" toJunction="J5" end="5300" vehsPerHour="169.32308379923742" departLane="free"/>
  <flow id="JF382682" begin="5300" fromJunction="J0" toJunction="J3" end="5360" vehsPerHour="290.5819195323073" departLane="free"/>
  <flow id="JF382683" begin="5300" fromJunction="J0" toJunction="J4" end="5360" vehsPerHour="148.46489207329452" departLane="free"/>
  <flow id="JF382684" begin="5300" fromJunction="J0" toJunction="J6" end="5360" vehsPerHour="316.1506854590905" departLane="free"/>
  <flow id="JF382685" begin="5300" fromJunction="J0" toJunction="J7" end="5360" vehsPerHour="53.7917769251238" departLane="free"/>
  <flow id="JF382686" begin="5300" fromJunction="J3" toJunction="J0" end="5360" vehsPerHour="4.148053940828228" departLane="free"/>
  <flow id="JF382687" begin="5300" fromJunction="J3" toJunction="J4" end="5360" vehsPerHour="286.4998246229902" departLane="free"/>
  <flow id="JF382688" begin="5300" fromJunction="J3" toJunction="J5" end="5360" vehsPerHour="519.5035969278051" departLane="free"/>
  <flow id="JF382689" begin="5300" fromJunction="J4" toJunction="J0" end="5360" vehsPerHour="80.39221575636445" departLane="free"/>
  <flow id="JF382690" begin="5300" fromJunction="J4" toJunction="J3" end="5360" vehsPerHour="21.952431991788355" departLane="free"/>
  <flow id="JF382691" begin="5300" fromJunction="J4" toJunction="J5" end="5360" vehsPerHour="55.6081036535502" departLane="free"/>
  <flow id="JF382692" begin="5300" fromJunction="J4" toJunction="J6" end="5360" vehsPerHour="67.90949106075112" departLane="free"/>
  <flow id="JF382693" begin="5300" fromJunction="J4" toJunction="J7" end="5360" vehsPerHour="12.805698955300953" departLane="free"/>
  <flow id="JF382694" begin="5300" fromJunction="J5" toJunction="J0" end="5360" vehsPerHour="209.60989990713648" departLane="free"/>
  <flow id="JF382695" begin="5300" fromJunction="J5" toJunction="J3" end="5360" vehsPerHour="111.89789558034244" departLane="free"/>
  <flow id="JF382696" begin="5300" fromJunction="J5" toJunction="J4" end="5360" vehsPerHour="77.8237728987596" departLane="free"/>
  <flow id="JF382697" begin="5300" fromJunction="J5" toJunction="J6" end="5360" vehsPerHour="109.570329539393" departLane="free"/>
  <flow id="JF382698" begin="5300" fromJunction="J6" toJunction="J0" end="5360" vehsPerHour="98.25291431607786" departLane="free"/>
  <flow id="JF382699" begin="5300" fromJunction="J6" toJunction="J3" end="5360" vehsPerHour="215.66455270233484" departLane="free"/>
  <flow id="JF382700" begin="5300" fromJunction="J6" toJunction="J5" end="5360" vehsPerHour="70.43775894544514" departLane="free"/>
  <flow id="JF382701" begin="5300" fromJunction="J7" toJunction="J0" end="5360" vehsPerHour="130.15534692847982" departLane="free"/>
  <flow id="JF382702" begin="5300" fromJunction="J7" toJunction="J3" end="5360" vehsPerHour="8.942679730799934" departLane="free"/>
  <flow id="JF382703" begin="5300" fromJunction="J7" toJunction="J5" end="5360" vehsPerHour="263.74487008549215" departLane="free"/>
  <flow id="JF382704" begin="5300" fromJunction="J7" toJunction="J6" end="5360" vehsPerHour="29.94735766587005" departLane="free"/>
  <flow id="JF382705" begin="5360" fromJunction="J0" toJunction="J3" end="5420" vehsPerHour="306.4924507228697" departLane="free"/>
  <flow id="JF382706" begin="5360" fromJunction="J0" toJunction="J4" end="5420" vehsPerHour="477.2389506812825" departLane="free"/>
  <flow id="JF382707" begin="5360" fromJunction="J0" toJunction="J5" end="5420" vehsPerHour="494.67819650174465" departLane="free"/>
  <flow id="JF382708" begin="5360" fromJunction="J0" toJunction="J6" end="5420" vehsPerHour="60.678262862645006" departLane="free"/>
  <flow id="JF382709" begin="5360" fromJunction="J0" toJunction="J7" end="5420" vehsPerHour="186.54227279074598" departLane="free"/>
  <flow id="JF382710" begin="5360" fromJunction="J3" toJunction="J0" end="5420" vehsPerHour="179.87710470843513" departLane="free"/>
  <flow id="JF382711" begin="5360" fromJunction="J3" toJunction="J5" end="5420" vehsPerHour="527.0502147574825" departLane="free"/>
  <flow id="JF382712" begin="5360" fromJunction="J3" toJunction="J6" end="5420" vehsPerHour="187.2352980139646" departLane="free"/>
  <flow id="JF382713" begin="5360" fromJunction="J3" toJunction="J7" end="5420" vehsPerHour="390.3383239856403" departLane="free"/>
  <flow id="JF382714" begin="5360" fromJunction="J4" toJunction="J0" end="5420" vehsPerHour="144.784259773668" departLane="free"/>
  <flow id="JF382715" begin="5360" fromJunction="J4" toJunction="J3" end="5420" vehsPerHour="137.90889717338572" departLane="free"/>
  <flow id="JF382716" begin="5360" fromJunction="J4" toJunction="J5" end="5420" vehsPerHour="141.76244577800566" departLane="free"/>
  <flow id="JF382717" begin="5360" fromJunction="J5" toJunction="J0" end="5420" vehsPerHour="224.77215408387588" departLane="free"/>
  <flow id="JF382718" begin="5360" fromJunction="J5" toJunction="J4" end="5420" vehsPerHour="81.93005419635443" departLane="free"/>
  <flow id="JF382719" begin="5360" fromJunction="J5" toJunction="J6" end="5420" vehsPerHour="255.9547409776546" departLane="free"/>
  <flow id="JF382720" begin="5360" fromJunction="J5" toJunction="J7" end="5420" vehsPerHour="14.141498517024926" departLane="free"/>
  <flow id="JF382721" begin="5360" fromJunction="J6" toJunction="J0" end="5420" vehsPerHour="141.16838713171785" departLane="free"/>
  <flow id="JF382722" begin="5360" fromJunction="J6" toJunction="J5" end="5420" vehsPerHour="124.20459927854947" departLane="free"/>
  <flow id="JF382723" begin="5360" fromJunction="J6" toJunction="J7" end="5420" vehsPerHour="135.6164371698676" departLane="free"/>
  <flow id="JF382724" begin="5360" fromJunction="J7" toJunction="J0" end="5420" vehsPerHour="90.29322020620364" departLane="free"/>
  <flow id="JF382725" begin="5360" fromJunction="J7" toJunction="J3" end="5420" vehsPerHour="29.89626835921227" departLane="free"/>
  <flow id="JF382726" begin="5360" fromJunction="J7" toJunction="J4" end="5420" vehsPerHour="129.42327785082205" departLane="free"/>
  <flow id="JF382727" begin="5360" fromJunction="J7" toJunction="J5" end="5420" vehsPerHour="58.23396322839188" departLane="free"/>
  <flow id="JF382728" begin="5360" fromJunction="J7" toJunction="J6" end="5420" vehsPerHour="10.929542497435968" departLane="free"/>
  <flow id="JF382729" begin="5420" fromJunction="J0" toJunction="J3" end="5480" vehsPerHour="274.8606909664597" departLane="free"/>
  <flow id="JF382730" begin="5420" fromJunction="J0" toJunction="J4" end="5480" vehsPerHour="467.8351481124381" departLane="free"/>
  <flow id="JF382731" begin="5420" fromJunction="J0" toJunction="J5" end="5480" vehsPerHour="548.3509466474469" departLane="free"/>
  <flow id="JF382732" begin="5420" fromJunction="J0" toJunction="J6" end="5480" vehsPerHour="373.10527472251755" departLane="free"/>
  <flow id="JF382733" begin="5420" fromJunction="J0" toJunction="J7" end="5480" vehsPerHour="433.7221468354356" departLane="free"/>
  <flow id="JF382734" begin="5420" fromJunction="J3" toJunction="J0" end="5480" vehsPerHour="433.0566514083548" departLane="free"/>
  <flow id="JF382735" begin="5420" fromJunction="J3" toJunction="J5" end="5480" vehsPerHour="110.4557746831352" departLane="free"/>
  <flow id="JF382736" begin="5420" fromJunction="J3" toJunction="J6" end="5480" vehsPerHour="319.41845029658396" departLane="free"/>
  <flow id="JF382737" begin="5420" fromJunction="J3" toJunction="J7" end="5480" vehsPerHour="482.4558827615338" departLane="free"/>
  <flow id="JF382738" begin="5420" fromJunction="J4" toJunction="J0" end="5480" vehsPerHour="7.156307900007216" departLane="free"/>
  <flow id="JF382739" begin="5420" fromJunction="J4" toJunction="J5" end="5480" vehsPerHour="233.72356477535104" departLane="free"/>
  <flow id="JF382740" begin="5420" fromJunction="J5" toJunction="J3" end="5480" vehsPerHour="113.75033010569696" departLane="free"/>
  <flow id="JF382741" begin="5420" fromJunction="J5" toJunction="J4" end="5480" vehsPerHour="145.61272713457086" departLane="free"/>
  <flow id="JF382742" begin="5420" fromJunction="J5" toJunction="J6" end="5480" vehsPerHour="180.26584379655594" departLane="free"/>
  <flow id="JF382743" begin="5420" fromJunction="J5" toJunction="J7" end="5480" vehsPerHour="244.48051020453966" departLane="free"/>
  <flow id="JF382744" begin="5420" fromJunction="J6" toJunction="J0" end="5480" vehsPerHour="224.7567768483694" departLane="free"/>
  <flow id="JF382745" begin="5420" fromJunction="J6" toJunction="J3" end="5480" vehsPerHour="248.58804650423812" departLane="free"/>
  <flow id="JF382746" begin="5420" fromJunction="J6" toJunction="J4" end="5480" vehsPerHour="66.22503451696713" departLane="free"/>
  <flow id="JF382747" begin="5420" fromJunction="J6" toJunction="J5" end="5480" vehsPerHour="209.4966026092928" departLane="free"/>
  <flow id="JF382748" begin="5420" fromJunction="J6" toJunction="J7" end="5480" vehsPerHour="188.4271839480577" departLane="free"/>
  <flow id="JF382749" begin="5420" fromJunction="J7" toJunction="J0" end="5480" vehsPerHour="239.9140539778001" departLane="free"/>
  <flow id="JF382750" begin="5420" fromJunction="J7" toJunction="J4" end="5480" vehsPerHour="193.15043070520673" departLane="free"/>
  <flow id="JF382751" begin="5420" fromJunction="J7" toJunction="J5" end="5480" vehsPerHour="145.21501883226236" departLane="free"/>
  <flow id="JF382752" begin="5480" fromJunction="J0" toJunction="J3" end="5540" vehsPerHour="543.1428186526102" departLane="free"/>
  <flow id="JF382753" begin="5480" fromJunction="J0" toJunction="J4" end="5540" vehsPerHour="100.65361920537912" departLane="free"/>
  <flow id="JF382754" begin="5480" fromJunction="J3" toJunction="J0" end="5540" vehsPerHour="154.8119506687909" departLane="free"/>
  <flow id="JF382755" begin="5480" fromJunction="J3" toJunction="J4" end="5540" vehsPerHour="319.9909992643766" departLane="free"/>
  <flow id="JF382756" begin="5480" fromJunction="J3" toJunction="J6" end="5540" vehsPerHour="338.63177090716226" departLane="free"/>
  <flow id="JF382757" begin="5480" fromJunction="J3" toJunction="J7" end="5540" vehsPerHour="417.5779312224443" departLane="free"/>
  <flow id="JF382758" begin="5480" fromJunction="J4" toJunction="J5" end="5540" vehsPerHour="39.53358516521272" departLane="free"/>
  <flow id="JF382759" begin="5480" fromJunction="J4" toJunction="J6" end="5540" vehsPerHour="271.51708033144274" departLane="free"/>
  <flow id="JF382760" begin="5480" fromJunction="J4" toJunction="J7" end="5540" vehsPerHour="266.47486116458555" departLane="free"/>
  <flow id="JF382761" begin="5480" fromJunction="J5" toJunction="J0" end="5540" vehsPerHour="130.949916570515" departLane="free"/>
  <flow id="JF382762" begin="5480" fromJunction="J5" toJunction="J3" end="5540" vehsPerHour="235.42131150397026" departLane="free"/>
  <flow id="JF382763" begin="5480" fromJunction="J5" toJunction="J6" end="5540" vehsPerHour="238.9331412696867" departLane="free"/>
  <flow id="JF382764" begin="5480" fromJunction="J5" toJunction="J7" end="5540" vehsPerHour="140.58791274755168" departLane="free"/>
  <flow id="JF382765" begin="5480" fromJunction="J6" toJunction="J0" end="5540" vehsPerHour="163.12980801880806" departLane="free"/>
  <flow id="JF382766" begin="5480" fromJunction="J6" toJunction="J3" end="5540" vehsPerHour="61.81449497963436" departLane="free"/>
  <flow id="JF382767" begin="5480" fromJunction="J6" toJunction="J4" end="5540" vehsPerHour="207.0395785474375" departLane="free"/>
  <flow id="JF382768" begin="5480" fromJunction="J7" toJunction="J3" end="5540" vehsPerHour="262.10439780823185" departLane="free"/>
  <flow id="JF382769" begin="5480" fromJunction="J7" toJunction="J4" end="5540" vehsPerHour="108.43937857749438" departLane="free"/>
  <flow id="JF382770" begin="5480" fromJunction="J7" toJunction="J6" end="5540" vehsPerHour="242.0622870251098" departLane="free"/>
  <flow id="JF382771" begin="5540" fromJunction="J0" toJunction="J4" end="5600" vehsPerHour="289.5021844221728" departLane="free"/>
  <flow id="JF382772" begin="5540" fromJunction="J0" toJunction="J7" end="5600" vehsPerHour="91.88774287280685" departLane="free"/>