<?xml version="1.0" encoding="UTF-8"?>
<routes xmlns:xsi="http://www.w3.org/2001/XMLSchema-instance" xsi:noNamespaceSchemaLocation="http://sumo.dlr.de/xsd/routes_file.xsd">
  <flow id="JF389666" begin="0" fromJunction="J3" toJunction="J0" end="5000" vehsPerHour="322.3372882424639" departLane="free"/>
  <flow id="JF389667" begin="0" fromJunction="J0" toJunction="J3" end="5000" vehsPerHour="400.4073427691099" departLane="free"/>
  <flow id="JF389668" begin="0" fromJunction="J3" toJunction="J7" end="5000" vehsPerHour="77.69065102842373" departLane="free"/>
  <flow id="JF389669" begin="0" fromJunction="J3" toJunction="J6" end="5000" vehsPerHour="38.66335200853332" departLane="free"/>
  <flow id="JF389670" begin="0" fromJunction="J3" toJunction="J4" end="5000" vehsPerHour="12.250798661526142" departLane="free"/>
  <flow id="JF389671" begin="0" fromJunction="J3" toJunction="J5" end="5000" vehsPerHour="113.64561694527508" departLane="free"/>
  <flow id="JF389672" begin="0" fromJunction="J0" toJunction="J7" end="5000" vehsPerHour="93.76862631607911" departLane="free"/>
  <flow id="JF389673" begin="0" fromJunction="J0" toJunction="J6" end="5000" vehsPerHour="129.38992883072072" departLane="free"/>
  <flow id="JF389674" begin="0" fromJunction="J0" toJunction="J4" end="5000" vehsPerHour="31.523450820818464" departLane="free"/>
  <flow id="JF389675" begin="0" fromJunction="J0" toJunction="J5" end="5000" vehsPerHour="64.45861245774205" departLane="free"/>
  <flow id="JF389676" begin="0" fromJunction="J7" toJunction="J6" end="5000" vehsPerHour="63.99025962267033" departLane="free"/>
  <flow id="JF389677" begin="0" fromJunction="J7" toJunction="J4" end="5000" vehsPerHour="59.06156560561174" departLane="free"/>
  <flow id="JF389678" begin="0" fromJunction="J7" toJunction="J5" end="5000" vehsPerHour="60.27219611326478" departLane="free"/>
  <flow id="JF389679" begin="0" fromJunction="J6" toJunction="J7" end="5000" vehsPerHour="15.976678187462385" departLane="free"/>
  <flow id="JF389680" begin="0" fromJunction="J6" toJunction="J4" end="5000" vehsPerHour="67.05078050868585" departLane="free"/>
  <flow id="JF389681" begin="0" fromJunction="J6" toJunction="J5" end="5000" vehsPerHour="28.79363548750059" departLane="free"/>
  <flow id="JF389682" begin="0" fromJunction="J4" toJunction="J7" end="5000" vehsPerHour="26.511552678907957" departLane="free"/>
  <flow id="JF389683" begin="0" fromJunction="J4" toJunction="J6" end="5000" vehsPerHour="52.04772944206286" departLane="free"/>
  <flow id="JF389684" begin="0" fromJunction="J4" toJunction="J5" end="5000" vehsPerHour="62.67486015990237" departLane="free"/>
  <flow id="JF389685" begin="0" fromJunction="J5" toJunction="J7" end="5000" vehsPerHour="43.91855567533865" departLane="free"/>
  <flow id="JF389686" begin="0" fromJunction="J5" toJunction="J6" end="5000" vehsPerHour="0.16122317632519623" departLane="free"/>
  <flow id="JF389687" begin="0" fromJunction="J5" toJunction="J4" end="5000" vehsPerHour="10.649586254856398" departLane="free"/>
  <flow id="JF389688" begin="0" fromJunction="J7" toJunction="J3" end="5000" vehsPerHour="27.962251589303154" departLane="free"/>
  <flow id="JF389689" begin="0" fromJunction="J7" toJunction="J0" end="5000" vehsPerHour="52.896279902801766" departLane="free"/>
  <flow id="JF389690" begin="0" fromJunction="J6" toJunction="J3" end="5000" vehsPerHour="23.22341976694767" departLane="free"/>
  <flow id="JF389691" begin="0" fromJunction="J6" toJunction="J0" end="5000" vehsPerHour="58.5352734695693" departLane="free"/>
  <flow id="JF389692" begin="0" fromJunction="J4" toJunction="J3" end="5000" vehsPerHour="37.081358526358215" departLane="free"/>
  <flow id="JF389693" begin="0" fromJunction="J4" toJunction="J0" end="5000" vehsPerHour="33.56043612401246" departLane="free"/>
  <flow id="JF389694" begin="0" fromJunction="J5" toJunction="J3" end="5000" vehsPerHour="59.707089556994745" departLane="free"/>
  <flow id="JF389695" begin="0" fromJunction="J5" toJunction="J0" end="5000" vehsPerHour="48.12972399004801" departLane="free"/>
  <flow id="JF389696" begin="5000" fromJunction="J0" toJunction="J5" end="5060" vehsPerHour="273.1016272592784" departLane="free"/>
  <flow id="JF389697" begin="5000" fromJunction="J0" toJunction="J6" end="5060" vehsPerHour="377.3667150472783" departLane="free"/>
  <flow id="JF389698" begin="5000" fromJunction="J0" toJunction="J7" end="5060" vehsPerHour="214.90183099841775" departLane="free"/>
  <flow id="JF389699" begin="5000" fromJunction="J3" toJunction="J0" end="5060" vehsPerHour="117.00407998742936" departLane="free"/>
  <flow id="JF389700" begin="5000" fromJunction="J3" toJunction="J4" end="5060" vehsPerHour="291.9855009306683" departLane="free"/>
  <flow id="JF389701" begin="5000" fromJunction="J3" toJunction="J5" end="5060" vehsPerHour="225.69099763707786" departLane="free"/>
  <flow id="JF389702" begin="5000" fromJunction="J3" toJunction="J6" end="5060" vehsPerHour="480.0480180806551" departLane="free"/>
  <flow id="JF389703" begin="5000" fromJunction="J4" toJunction="J0" end="5060" vehsPerHour="98.32836853783175" departLane="free"/>
  <flow id="JF389704" begin="5000" fromJunction="J4" toJunction="J5" end="5060" vehsPerHour="150.3165298889615" departLane="free"/>
  <flow id="JF389705" begin="5000" fromJunction="J4" toJunction="J6" end="5060" vehsPerHour="202.82518499683803" departLane="free"/>
  <flow id="JF389706" begin="5000" fromJunction="J4" toJunction="J7" end="5060" vehsPerHour="11.269739956557785" departLane="free"/>
  <flow id="JF389707" begin="5000" fromJunction="J5" toJunction="J3" end="5060" vehsPerHour="42.64653346609723" departLane="free"/>
  <flow id="JF389708" begin="5000" fromJunction="J5" toJunction="J4" end="5060" vehsPerHour="270.92303005721107" departLane="free"/>
  <flow id="JF389709" begin="5000" fromJunction="J5" toJunction="J6" end="5060" vehsPerHour="219.43524785063985" departLane="free"/>
  <flow id="JF389710" begin="5000" fromJunction="J6" toJunction="J0" end="5060" vehsPerHour="249.15856414370825" departLane="free"/>
  <flow id="JF389711" begin="5000" fromJunction="J6" toJunction="J5" end="5060" vehsPerHour="116.7719523248311" departLane="free"/>
  <flow id="JF389712" begin="5000" fromJunction="J6" toJunction="J7" end="5060" vehsPerHour="14.205339865140314" departLane="free"/>
  <flow id="JF389713" begin="5000" fromJunction="J7" toJunction="J0" end="5060" vehsPerHour="254.35351447353972" departLane="free"/>
  <flow id="JF389714" begin="5000" fromJunction="J7" toJunction="J4" end="5060" vehsPerHour="9.176448899387356" departLane="free"/>
  <flow id="JF389715" begin="5000" fromJunction="J7" toJunction="J5" end="5060" vehsPerHour="114.03023079952503" departLane="free"/>
  <flow id="JF389716" begin="5000" fromJunction="J7" toJunction="J6" end="5060" vehsPerHour="126.94449851049127" departLane="free"/>
  <flow id="JF389717" begin="5060" fromJunction="J0" toJunction="J4" end="5120" vehsPerHour="266.22416726224515" departLane="free"/>
  <flow id="JF389718" begin="5060" fromJunction="J0" toJunction="J5" end="5120" vehsPerHour="228.6605251567055" departLane="free"/>
  <flow id="JF389719" begin="5060" fromJunction="J0" toJunction="J6" end="5120" vehsPerHour="358.6820497093441" departLane="free"/>
  <flow id="JF389720" begin="5060" fromJunction="J3" toJunction="J0" end="5120" vehsPerHour="394.6823742699332" departLane="free"/>
  <flow id="JF389721" begin="5060" fromJunction="J3" toJunction="J4" end="5120" vehsPerHour="232.08152585168472" departLane="free"/>
  <flow id="JF389722" begin="5060" fromJunction="J3" toJunction="J5" end="5120" vehsPerHour="144.31928963276246" departLane="free"/>
  <flow id="JF389723" begin="5060" fromJunction="J3" toJunction="J6" end="5120" vehsPerHour="332.7786203478036" departLane="free"/>
  <flow id="JF389724" begin="5060" fromJunction="J3" toJunction="J7" end="5120" vehsPerHour="111.03111932695654" departLane="free"/>
  <flow id="JF389725" begin="5060" fromJunction="J4" toJunction="J0" end="5120" vehsPerHour="20.04425927118179" departLane="free"/>
  <flow id="JF389726" begin="5060" fromJunction="J4" toJunction="J3" end="5120" vehsPerHour="69.63019582481378" departLane="free"/>
  <flow id="JF389727" begin="5060" fromJunction="J4" toJunction="J6" end="5120" vehsPerHour="136.69205717724319" departLane="free"/>
  <flow id="JF389728" begin="5060" fromJunction="J5" toJunction="J0" end="5120" vehsPerHour="175.5982697901111" departLane="free"/>
  <flow id="JF389729" begin="5060" fromJunction="J5" toJunction="J3" end="5120" vehsPerHour="187.71611849981832" departLane="free"/>
  <flow id="JF389730" begin="5060" fromJunction="J5" toJunction="J4" end="5120" vehsPerHour="218.99543883898312" departLane="free"/>
  <flow id="JF389731" begin="5060" fromJunction="J5" toJunction="J6" end="5120" vehsPerHour="199.81374093074928" departLane="free"/>
  <flow id="JF389732" begin="5060" fromJunction="J5" toJunction="J7" end="5120" vehsPerHour="114.3659599231204" departLane="free"/>
  <flow id="JF389733" begin="5060" fromJunction="J6" toJunction="J3" end="5120" vehsPerHour="195.926241004712" departLane="free"/>
  <flow id="JF389734" begin="5060" fromJunction="J6" toJunction="J5" end="5120" vehsPerHour="258.11339393930155" departLane="free"/>
  <flow id="JF389735" begin="5060" fromJunction="J7" toJunction="J0" end="5120" vehsPerHour="1.3475577676642532" departLane="free"/>
  <flow id="JF389736" begin="5060" fromJunction="J7" toJunction="J3" end="5120" vehsPerHour="104.6838177501089" departLane="free"/>
  <flow id="JF389737" begin="5060" fromJunction="J7" toJunction="J4" end="5120" vehsPerHour="251.4144082036389" departLane="free"/>
  <flow id="JF389738" begin="5060" fromJunction="J7" toJunction="J5" end="5120" vehsPerHour="86.68959690924466" departLane="free"/>
  <flow id="JF389739" begin="5060" fromJunction="J7" toJunction="J6" end="5120" vehsPerHour="92.05475464974404" departLane="free"/>
  <flow id="JF389740" begin="5120" fromJunction="J0" toJunction="J3" end="5180" vehsPerHour="167.4000638583274" departLane="free"/>
  <flow id="JF389741" begin="5120" fromJunction="J0" toJunction="J4" end="5180" vehsPerHour="425.48302526332367" departLane="free"/>
  <flow id="JF389742" begin="5120" fromJunction="J0" toJunction="J5" end="5180" vehsPerHour="487.0919767146494" departLane="free"/>
  <flow id="JF389743" begin="5120" fromJunction="J0" toJunction="J6" end="5180" vehsPerHour="94.64809357954351" departLane="free"/>
  <flow id="JF389744" begin="5120" fromJunction="J0" toJunction="J7" end="5180" vehsPerHour="96.62293859193066" departLane="free"/>
  <flow id="JF389745" begin="5120" fromJunction="J3" toJunction="J4" end="5180" vehsPerHour="282.02797817399346" departLane="free"/>
  <flow id="JF389746" begin="5120" fromJunction="J3" toJunction="J5" end="5180" vehsPerHour="123.04674893651897" departLane="free"/>
  <flow id="JF389747" begin="5120" fromJunction="J3" toJunction="J6" end="5180" vehsPerHour="503.13298944951833" departLane="free"/>
  <flow id="JF389748" begin="5120" fromJunction="J3" toJunction="J7" end="5180" vehsPerHour="323.03526094706467" departLane="free"/>
  <flow id="JF389749" begin="5120" fromJunction="J4" toJunction="J0" end="5180" vehsPerHour="237.63133027581804" departLane="free"/>
  <flow id="JF389750" begin="5120" fromJunction="J4" toJunction="J3" end="5180" vehsPerHour="85.66982318059623" departLane="free"/>
  <flow id="JF389751" begin="5120" fromJunction="J4" toJunction="J5" end="5180" vehsPerHour="42.08733865298434" departLane="free"/>
  <flow id="JF389752" begin="5120" fromJunction="J4" toJunction="J6" end="5180" vehsPerHour="215.44609434716224" departLane="free"/>
  <flow id="JF389753" begin="5120" fromJunction="J4" toJunction="J7" end="5180" vehsPerHour="111.73019629828245" departLane="free"/>
  <flow id="JF389754" begin="5120" fromJunction="J5" toJunction="J4" end="5180" vehsPerHour="106.7151896858061" departLane="free"/>
  <flow id="JF389755" begin="5120" fromJunction="J5" toJunction="J6" end="5180" vehsPerHour="147.88720593031746" departLane="free"/>
  <flow id="JF389756" begin="5120" fromJunction="J5" toJunction="J7" end="5180" vehsPerHour="199.84660838084366" departLane="free"/>
  <flow id="JF389757" begin="5120" fromJunction="J6" toJunction="J3" end="5180" vehsPerHour="100.27341367188444" departLane="free"/>
  <flow id="JF389758" begin="5120" fromJunction="J6" toJunction="J4" end="5180" vehsPerHour="17.060780749521378" departLane="free"/>
  <flow id="JF389759" begin="5120" fromJunction="J6" toJunction="J5" end="5180" vehsPerHour="25.02747479052838" departLane="free"/>
  <flow id="JF389760" begin="5120" fromJunction="J7" toJunction="J0" end="5180" vehsPerHour="206.5436330397786" departLane="free"/>
  <flow id="JF389761" begin="5120" fromJunction="J7" toJunction="J3" end="5180" vehsPerHour="228.15435097895394" departLane="free"/>
  <flow id="JF389762" begin="5120" fromJunction="J7" toJunction="J5" end="5180" vehsPerHour="155.81412651921352" departLane="free"/>
  <flow id="JF389763" begin="5180" fromJunction="J0" toJunction="J3" end="5240" vehsPerHour="530.2691896521403" departLane="free"/>
  <flow id="JF389764" begin="5180" fromJunction="J0" toJunction="J4" end="5240" vehsPerHour="418.960252669198" departLane="free"/>
  <flow id="JF389765" begin="5180" fromJunction="J0" toJunction="J5" end="5240" vehsPerHour="379.2121928126586" departLane="free"/>
  <flow id="JF389766" begin="5180" fromJunction="J0" toJunction="J7" end="5240" vehsPerHour="35.249599387168345" departLane="free"/>
  <flow id="JF389767" begin="5180" fromJunction="J3" toJunction="J0" end="5240" vehsPerHour="425.8673879499314" departLane="free"/>
  <flow id="JF389768" begin="5180" fromJunction="J3" toJunction="J5" end="5240" vehsPerHour="200.83388869031089" departLane="free"/>
  <flow id="JF389769" begin="5180" fromJunction="J3" toJunction="J6" end="5240" vehsPerHour="521.7226764198066" departLane="free"/>
  <flow id="JF389770" begin="5180" fromJunction="J3" toJunction="J7" end="5240" vehsPerHour="58.82458736743664" departLane="free"/>
  <flow id="JF389771" begin="5180" fromJunction="J4" toJunction="J0" end="5240" vehsPerHour="166.0451397110845" departLane="free"/>
  <flow id="JF389772" begin="5180" fromJunction="J4" toJunction="J3" end="5240" vehsPerHour="170.4122000346195" departLane="free"/>
  <flow id="JF389773" begin="5180" fromJunction="J4" toJunction="J5" end="5240" vehsPerHour="2.086141700732654" departLane="free"/>
  <flow id="JF389774" begin="5180" fromJunction="J4" toJunction="J6" end="5240" vehsPerHour="273.8521179538187" departLane="free"/>
  <flow id="JF389775" begin="5180" fromJunction="J4" toJunction="J7" end="5240" vehsPerHour="223.6439004034201" departLane="free"/>
  <flow id="JF389776" begin="5180" fromJunction="J5" toJunction="J0" end="5240" vehsPerHour="246.27166894044495" departLane="free"/>
  <flow id="JF389777" begin="5180" fromJunction="J5" toJunction="J4" end="5240" vehsPerHour="184.08176542627814" departLane="free"/>
  <flow id="JF389778" begin="5180" fromJunction="J5" toJunction="J6" end="5240" vehsPerHour="258.03539623086556" departLane="free"/>
  <flow id="JF389779" begin="5180" fromJunction="J5" toJunction="J7" end="5240" vehsPerHour="274.19955881885153" departLane="free"/>
  <flow id="JF389780" begin="5180" fromJunction="J6" toJunction="J0" end="5240" vehsPerHour="103.4614310043047" departLane="free"/>
  <flow id="JF389781" begin="5180" fromJunction="J6" toJunction="J3" end="5240" vehsPerHour="45.69130305344847" departLane="free"/>
  <flow id="JF389782" begin="5180" fromJunction="J6" toJunction="J4" end="5240" vehsPerHour="117.90482395893876" departLane="free"/>
  <flow id="JF389783" begin="5180" fromJunction="J6" toJunction="J5" end="5240" vehsPerHour="60.48640558803209" departLane="free"/>
  <flow id="JF389784" begin="5180" fromJunction="J6" toJunction="J7" end="5240" vehsPerHour="72.04826936397919" departLane="free"/>
  <flow id="JF389785" begin="5180" fromJunction="J7" toJunction="J0" end="5240" vehsPerHour="2.705235073155461" departLane="free"/>
  <flow id="JF389786" begin="5180" fromJunction="J7" toJunction="J3" end="5240" vehsPerHour="22.652486382036923" departLane="free"/>
  <flow id="JF389787" begin="5180" fromJunction="J7" toJunction="J5" end="5240" vehsPerHour="224.2938068512249" departLane="free"/>
  <flow id="JF389788" begin="5240" fromJunction="J0" toJunction="J3" end="5300" vehsPerHour="174.27175018220842" departLane="free"/>
  <flow id="JF389789" begin="5240" fromJunction="J0" toJunction="J4" end="5300" vehsPerHour="238.07287982251896" departLane="free"/>
  <flow id="JF389790" begin="5240" fromJunction="J3" toJunction="J0" end="5300" vehsPerHour="165.12501587651033" departLane="free"/>
  <flow id="JF389791" begin="5240" fromJunction="J3" toJunction="J4" end="5300" vehsPerHour="80.13540122958669" departLane="free"/>
  <flow id="JF389792" begin="5240" fromJunction="J3" toJunction="J5" end="5300" vehsPerHour="232.68560421656096" departLane="free"/>
  <flow id="JF389793" begin="5240" fromJunction="J3" toJunction="J6" end="5300" vehsPerHour="105.21684336342875" departLane="free"/>
  <flow id="JF389794" begin="5240" fromJunction="J3" toJunction="J7" end="5300" vehsPerHour="507.665217779708" departLane="free"/>
  <flow id="JF389795" begin="5240" fromJunction="J4" toJunction="J3" end="5300" vehsPerHour="174.08165549788487" departLane="free"/>
  <flow id="JF389796" begin="5240" fromJunction="J4" toJunction="J5" end="5300" vehsPerHour="172.03338007601965" departLane="free"/>
  <flow id="JF389797" begin="5240" fromJunction="J4" toJunction="J6" end="5300" vehsPerHour="92.65064548610303" departLane="free"/>
  <flow id="JF389798" begin="5240" fromJunction="J5" toJunction="J0" end="5300" vehsPerHour="246.4196636128955" departLane="free"/>
  <flow id="JF389799" begin="5240" fromJunction="J5" toJunction="J3" end="5300" vehsPerHour="165.96574483038847" departLane="free"/>
  <flow id="JF389800" begin="5240" fromJunction="J5" toJunction="J6" end="5300" vehsPerHour="107.77171507338618" departLane="free"/>
  <flow id="JF389801" begin="5240" fromJunction="J6" toJunction="J0" end="5300" vehsPerHour="225.7291170093356" departLane="free"/>
  <flow id="JF389802" begin="5240" fromJunction="J6" toJunction="J4" end="5300" vehsPerHour="100.61119254221579" departLane="free"/>
  <flow id="JF389803" begin="5240" fromJunction="J6" toJunction="J5" end="5300" vehsPerHour="66.58930865281508" departLane="free"/>
  <flow id="JF389804" begin="5240" fromJunction="J6" toJunction="J7" end="5300" vehsPerHour="151.1682483859585" departLane="free"/>
  <flow id="JF389805" begin="5240" fromJunction="J7" toJunction="J0" end="5300" vehsPerHour="67.29928801794152" departLane="free"/>
  <flow id="JF389806" begin="5240" fromJunction="J7" toJunction="J3" end="5300" vehsPerHour="136.49437485071766" departLane="free"/>
  <flow id="JF389807" begin="5240" fromJunction="J7" toJunction="J4" end="5300" vehsPerHour="123.25589011925184" departLane="free"/>
  <flow id="JF389808" begin="5240" fromJunction="J7" toJunction="J5" end="5300" vehsPerHour="126.78194116695657" departLane="free"/>
  <flow id="JF389809" begin="5240" fromJunction="J7" toJunction="J6" end="5300" vehsPerHour="103.41390020790834" departLane="free"/>
  <flow id="JF389810" begin="5300" fromJunction="J0" toJunction="J5" end="5360" vehsPerHour="172.73877475136572" departLane="free"/>
  <flow id="JF389811" begin="5300" fromJunction="J0" toJunction="J7" end="5360" vehsPerHour="357.63682415573874" departLane="free"/>
  <flow id="JF389812" begin="5300" fromJunction="J3" toJunction="J4" end="5360" vehsPerHour="393.093080750124" departLane="free"/>
  <flow id="JF389813" begin="5300" fromJunction="J3" toJunction="J6" end="5360" vehsPerHour="71.34057151755951" departLane="free"/>
  <flow id="JF389814" begin="5300" fromJunction="J3" toJunction="J7" end="5360" vehsPerHour="516.5765120671128" departLane="free"/>
  <flow id="JF389815" begin="5300" fromJunction="J4" toJunction="J0" end="5360" vehsPerHour="198.04698138487868" departLane="free"/>
  <flow id="JF389816" begin="5300" fromJunction="J4" toJunction="J7" end="5360" vehsPerHour="37.87758421082502" departLane="free"/>
  <flow id="JF389817" begin="5300" fromJunction="J5" toJunction="J4" end="5360" vehsPerHour="34.80870053276727" departLane="free"/>
  <flow id="JF389818" begin="5300" fromJunction="J5" toJunction="J7" end="5360" vehsPerHour="178.31763440795945" departLane="free"/>
  <flow id="JF389819" begin="5300" fromJunction="J6" toJunction="J3" end="5360" vehsPerHour="104.69352078765357" departLane="free"/>
  <flow id="JF389820" begin="5300" fromJunction="J6" toJunction="J4" end="5360" vehsPerHour="60.876318928784414" departLane="free"/>
  <flow id="JF389821" begin="5300" fromJunction="J6" toJunction="J5" end="5360" vehsPerHour="239.0612785595639" departLane="free"/>
  <flow id="JF389822" begin="5300" fromJunction="J7" toJunction="J4" end="5360" vehsPerHour="260.47016717148415" departLane="free"/>
  <flow id="JF389823" begin="5300" fromJunction="J7" toJunction="J5" end="5360" vehsPerHour="46.38871982776108" departLane="free"/>
  <flow id="JF389824" begin="5300" fromJunction="J7" toJunction="J6" end="5360" vehsPerHour="250.42932340800874" departLane="free"/>
  <flow id="JF389825" begin="5360" fromJunction="J0" toJunction="J3" end="5420" vehsPerHour="377.44951351197125" departLane="free"/>
  <flow id="JF389826" begin="5360" fromJunction="J0" toJunction="J4" end="5420" vehsPerHour="459.4072096640848" departLane="free"/>
  <flow id="JF389827" begin="5360" fromJunction="J0" toJunction="J5" end="5420" vehsPerHour="222.39342240303841" departLane="free"/>
  <flow id="JF389828" begin="5360" fromJunction="J0" toJunction="J7" end="5420" vehsPerHour="407.75378313256056" departLane="free"/>
  <flow id="JF389829" begin="5360" fromJunction="J3" toJunction="J0" end="5420" vehsPerHour="318.0205607196913" departLane="free"/>
  <flow id="JF389830" begin="5360" fromJunction="J3" toJunction="J4" end="5420" vehsPerHour="538.1091212164154" departLane="free"/>
  <flow id="JF389831" begin="5360" fromJunction="J4" toJunction="J3" end="5420" vehsPerHour="3.3562391648196583" departLane="free"/>
  <flow id="JF389832" begin="5360" fromJunction="J4" toJunction="J5" end="5420" vehsPerHour="237.08026140265213" departLane="free"/>
  <flow id="JF389833" begin="5360" fromJunction="J4" toJunction="J6" end="5420" vehsPerHour="0.058174270739698476" departLane="free"/>
  <flow id="JF389834" begin="5360" fromJunction="J5" toJunction="J0" end="5420" vehsPerHour="208.90036314525565" departLane="free"/>
  <flow id="JF389835" begin="5360" fromJunction="J5" toJunction="J4" end="5420" vehsPerHour="235.4800637882396" departLane="free"/>
  <flow id="JF389836" begin="5360" fromJunction="J5" toJunction="J6" end="5420" vehsPerHour="251.48232311183384" departLane="free"/>
  <flow id="JF389837" begin="5360" fromJunction="J5" toJunction="J7" end="5420" vehsPerHour="213.44097770308343" departLane="free"/>
  <flow id="JF389838" begin="5360" fromJunction="J6" toJunction="J0" end="5420" vehsPerHour="8.547383037994774" departLane="free"/>
  <flow id="JF389839" begin="5360" fromJunction="J6" toJunction="J3" end="5420" vehsPerHour="50.199534993343" departLane="free"/>
  <flow id="JF389840" begin="5360" fromJunction="J6" toJunction="J4" end="5420" vehsPerHour="54.252352066756266" departLane="free"/>
  <flow id="JF389841" begin="5360" fromJunction="J6" toJunction="J5" end="5420" vehsPerHour="51.66408257427288" departLane="free"/>
  <flow id="JF389842" begin="5360" fromJunction="J6" toJunction="J7" end="5420" vehsPerHour="19.540921932722526" departLane="free"/>
  <flow id="JF389843" begin="5360" fromJunction="J7" toJunction="J0" end="5420" vehsPerHour="109.74696895666014" departLane="free"/>
  <flow id="JF389844" begin="5360" fromJunction="J7" toJunction="J3" end="5420" vehsPerHour="112.85307605635539" departLane="free"/>
  <flow id="JF389845" begin="5360" fromJunction="J7" toJunction="J4" end="5420" vehsPerHour="181.23971828202" departLane="free"/>
  <flow id="JF389846" begin="5360" fromJunction="J7" toJunction="J5" end="5420" vehsPerHour="115.03846882346379" departLane="free"/>
  <flow id="JF389847" begin="5360" fromJunction="J7" toJunction="J6" end="5420" vehsPerHour="68.49383805770839" departLane="free"/>
  <flow id="JF389848" begin="5420" fromJunction="J0" toJunction="J3" end="5480" vehsPerHour="365.8627546332177" departLane="free"/>
  <flow id="JF389849" begin="5420" fromJunction="J0" toJunction="J4" end="5480" vehsPerHour="432.54691911756646" departLane="free"/>
  <flow id="JF389850" begin="5420" fromJunction="J0" toJunction="J5" end="5480" vehsPerHour="181.6467846165607" departLane="free"/>
  <flow id="JF389851" begin="5420" fromJunction="J0" toJunction="J6" end="5480" vehsPerHour="247.553326361031" departLane="free"/>
  <flow id="JF389852" begin="5420" fromJunction="J3" toJunction="J0" end="5480" vehsPerHour="258.2609572309153" departLane="free"/>
  <flow id="JF389853" begin="5420" fromJunction="J3" toJunction="J4" end="5480" vehsPerHour="303.75012810597286" departLane="free"/>
  <flow id="JF389854" begin="5420" fromJunction="J3" toJunction="J5" end="5480" vehsPerHour="376.84034617289046" departLane="free"/>
  <flow id="JF389855" begin="5420" fromJunction="J3" toJunction="J6" end="5480" vehsPerHour="67.6284797194143" departLane="free"/>
  <flow id="JF389856" begin="5420" fromJunction="J3" toJunction="J7" end="5480" vehsPerHour="464.56262391931466" departLane="free"/>
  <flow id="JF389857" begin="5420" fromJunction="J4" toJunction="J0" end="5480" vehsPerHour="204.52346542725198" departLane="free"/>
  <flow id="JF389858" begin="5420" fromJunction="J4" toJunction="J3" end="5480" vehsPerHour="24.808211865735178" departLane="free"/>
  <flow id="JF389859" begin="5420" fromJunction="J4" toJunction="J5" end="5480" vehsPerHour="33.114492339368525" departLane="free"/>
  <flow id="JF389860" begin="5420" fromJunction="J4" toJunction="J6" end="5480" vehsPerHour="265.59598934272015" departLane="free"/>
  <flow id="JF389861" begin="5420" fromJunction="J4" toJunction="J7" end="5480" vehsPerHour="111.18798643519051" departLane="free"/>
  <flow id="JF389862" begin="5420" fromJunction="J5" toJunction="J0" end="5480" vehsPerHour="71.54379750109707" departLane="free"/>
  <flow id="JF389863" begin="5420" fromJunction="J5" toJunction="J4" end="5480" vehsPerHour="215.22435157571653" departLane="free"/>
  <flow id="JF389864" begin="5420" fromJunction="J5" toJunction="J6" end="5480" vehsPerHour="26.628427569183224" departLane="free"/>
  <flow id="JF389865" begin="5420" fromJunction="J5" toJunction="J7" end="5480" vehsPerHour="268.0122452230797" departLane="free"/>
  <flow id="JF389866" begin="5420" fromJunction="J6" toJunction="J0" end="5480" vehsPerHour="50.99715865443529" departLane="free"/>
  <flow id="JF389867" begin="5420" fromJunction="J6" toJunction="J4" end="5480" vehsPerHour="176.66529573719714" departLane="free"/>
  <flow id="JF389868" begin="5420" fromJunction="J6" toJunction="J5" end="5480" vehsPerHour="136.517336944272" departLane="free"/>
  <flow id="JF389869" begin="5420" fromJunction="J6" toJunction="J7" end="5480" vehsPerHour="239.4822808377931" departLane="free"/>
  <flow id="JF389870" begin="5420" fromJunction="J7" toJunction="J0" end="5480" vehsPerHour="133.3132067747569" departLane="free"/>
  <flow id="JF389871" begin="5420" fromJunction="J7" toJunction="J3" end="5480" vehsPerHour="154.25683624762434" departLane="free"/>
  <flow id="JF389872" begin="5420" fromJunction="J7" toJunction="J5" end="5480" vehsPerHour="234.07429021075606" departLane="free"/>
  <flow id="JF389873" begin="5420" fromJunction="J7" toJunction="J6" end="5480" vehsPerHour="256.9898357818527" departLane="free"/>
  <flow id="JF389874" begin="5480" fromJunction="J0" toJunction="J3" end="5540" vehsPerHour="74.29838833435774" departLane="free"/>
  <flow id="JF389875" begin="5480" fromJunction="J0" toJunction="J4" end="5540" vehsPerHour="36.982642020383174" departLane="free"/>
  <flow id="JF389876" begin="5480" fromJunction="J0" toJunction="J5" end="5540" vehsPerHour="116.07396750548232" departLane="free"/>
  <flow id="JF389877" begin="5480" fromJunction="J0" toJunction="J7" end="5540" vehsPerHour="294.55824243876566" departLane="free"/>
  <flow id="JF389878" begin="5480" fromJunction="J3" toJunction="J0" end="5540" vehsPerHour="385.32818682471867" departLane="free"/>
  <flow id="JF389879" begin="5480" fromJunction="J3" toJunction="J5" end="5540" vehsPerHour="437.7607874850448" departLane="free"/>
  <flow id="JF389880" begin="5480" fromJunction="J4" toJunction="J0" end="5540" vehsPerHour="250.05075669370098" departLane="free"/>
  <flow id="JF389881" begin="5480" fromJunction="J4" toJunction="J3" end="5540" vehsPerHour="97.45727317126477" departLane="free"/>
  <flow id="JF389882" begin="5480" fromJunction="J4" toJunction="J5" end="5540" vehsPerHour="84.51960155065575" departLane="free"/>
  <flow id="JF389883" begin="5480" fromJunction="J5" toJunction="J0" end="5540" vehsPerHour="92.54882979414229" departLane="free"/>
  <flow id="JF389884" begin="5480" fromJunction="J5" toJunction="J4" end="5540" vehsPerHour="180.07759983596299" departLane="free"/>
  <flow id="JF389885" begin="5480" fromJunction="J5" toJunction="J7" end="5540" vehsPerHour="194.77770739672297" departLane="free"/>
  <flow id="JF389886" begin="5480" fromJunction="J6" toJunction="J0" end="5540" vehsPerHour="43.28651921372036" departLane="free"/>
  <flow id="JF389887" begin="5480" fromJunction="J6" toJunction="J5" end="5540" vehsPerHour="82.85168829236855" departLane="free"/>
  <flow id="JF389888" begin="5480" fromJunction="J7" toJunction="J0" end="5540" vehsPerHour="33.071404322377276" departLane="free"/>
  <flow id="JF389889" begin="5480" fromJunction="J7" toJunction="J5" end="5540" vehsPerHour="165.71156798733" departLane="free"/>
  <flow id="JF389890" begin="5540" fromJunction="J0" toJunction="J3" end="5600" vehsPerHour="116.87065729293661" departLane="free"/>