<?xml version="1.0" encoding="UTF-8"?>
<routes xmlns:xsi="http://www.w3.org/2001/XMLSchema-instance" xsi:noNamespaceSchemaLocation="http://sumo.dlr.de/xsd/routes_file.xsd">
  <flow id="JF386104" begin="0" fromJunction="J3" toJunction="J0" end="5000" vehsPerHour="1023.283310872366" departLane="free"/>
  <flow id="JF386105" begin="0" fromJunction="J0" toJunction="J3" end="5000" vehsPerHour="135.5650200487666" departLane="free"/>
  <flow id="JF386106" begin="0" fromJunction="J3" toJunction="J7" end="5000" vehsPerHour="23.949831220910855" departLane="free"/>
  <flow id="JF386107" begin="0" fromJunction="J3" toJunction="J6" end="5000" vehsPerHour="113.08411425962557" departLane="free"/>
  <flow id="JF386108" begin="0" fromJunction="J3" toJunction="J4" end="5000" vehsPerHour="44.012412238596816" departLane="free"/>
  <flow id="JF386109" begin="0" fromJunction="J3" toJunction="J5" end="5000" vehsPerHour="6.3518612432343975" departLane="free"/>
  <flow id="JF386110" begin="0" fromJunction="J0" toJunction="J7" end="5000" vehsPerHour="75.538010514427" departLane="free"/>
  <flow id="JF386111" begin="0" fromJunction="J0" toJunction="J6" end="5000" vehsPerHour="47.78131073688688" departLane="free"/>
  <flow id="JF386112" begin="0" fromJunction="J0" toJunction="J4" end="5000" vehsPerHour="39.28289683287292" departLane="free"/>
  <flow id="JF386113" begin="0" fromJunction="J0" toJunction="J5" end="5000" vehsPerHour="76.86555895559553" departLane="free"/>
  <flow id="JF386114" begin="0" fromJunction="J7" toJunction="J6" end="5000" vehsPerHour="28.978598490470176" departLane="free"/>
  <flow id="JF386115" begin="0" fromJunction="J7" toJunction="J4" end="5000" vehsPerHour="57.08696663339168" departLane="free"/>
  <flow id="JF386116" begin="0" fromJunction="J7" toJunction="J5" end="5000" vehsPerHour="47.75947555454273" departLane="free"/>
  <flow id="JF386117" begin="0" fromJunction="J6" toJunction="J7" end="5000" vehsPerHour="19.525058296901197" departLane="free"/>
  <flow id="JF386118" begin="0" fromJunction="J6" toJunction="J4" end="5000" vehsPerHour="14.058762126524618" departLane="free"/>
  <flow id="JF386119" begin="0" fromJunction="J6" toJunction="J5" end="5000" vehsPerHour="65.30931532445018" departLane="free"/>
  <flow id="JF386120" begin="0" fromJunction="J4" toJunction="J7" end="5000" vehsPerHour="14.628709557727626" departLane="free"/>
  <flow id="JF386121" begin="0" fromJunction="J4" toJunction="J6" end="5000" vehsPerHour="59.593044228269314" departLane="free"/>
  <flow id="JF386122" begin="0" fromJunction="J4" toJunction="J5" end="5000" vehsPerHour="30.097716550027094" departLane="free"/>
  <flow id="JF386123" begin="0" fromJunction="J5" toJunction="J7" end="5000" vehsPerHour="29.667826644995852" departLane="free"/>
  <flow id="JF386124" begin="0" fromJunction="J5" toJunction="J6" end="5000" vehsPerHour="57.57754094473546" departLane="free"/>
  <flow id="JF386125" begin="0" fromJunction="J5" toJunction="J4" end="5000" vehsPerHour="50.46377769900587" departLane="free"/>
  <flow id="JF386126" begin="0" fromJunction="J7" toJunction="J3" end="5000" vehsPerHour="56.96780826776167" departLane="free"/>
  <flow id="JF386127" begin="0" fromJunction="J7" toJunction="J0" end="5000" vehsPerHour="6.140386426495597" departLane="free"/>
  <flow id="JF386128" begin="0" fromJunction="J6" toJunction="J3" end="5000" vehsPerHour="29.307169292094528" departLane="free"/>
  <flow id="JF386129" begin="0" fromJunction="J6" toJunction="J0" end="5000" vehsPerHour="28.11670497159168" departLane="free"/>
  <flow id="JF386130" begin="0" fromJunction="J4" toJunction="J3" end="5000" vehsPerHour="33.78592663691741" departLane="free"/>
  <flow id="JF386131" begin="0" fromJunction="J4" toJunction="J0" end="5000" vehsPerHour="14.005376203663479" departLane="free"/>
  <flow id="JF386132" begin="0" fromJunction="J5" toJunction="J3" end="5000" vehsPerHour="43.67806800321618" departLane="free"/>
  <flow id="JF386133" begin="0" fromJunction="J5" toJunction="J0" end="5000" vehsPerHour="68.61413332335877" departLane="free"/>
  <flow id="JF386134" begin="5000" fromJunction="J0" toJunction="J3" end="5060" vehsPerHour="306.7211146106567" departLane="free"/>
  <flow id="JF386135" begin="5000" fromJunction="J0" toJunction="J4" end="5060" vehsPerHour="398.519440976651" departLane="free"/>
  <flow id="JF386136" begin="5000" fromJunction="J0" toJunction="J5" end="5060" vehsPerHour="514.1099404667275" departLane="free"/>
  <flow id="JF386137" begin="5000" fromJunction="J0" toJunction="J6" end="5060" vehsPerHour="135.65936612294107" departLane="free"/>
  <flow id="JF386138" begin="5000" fromJunction="J0" toJunction="J7" end="5060" vehsPerHour="125.64735329738569" departLane="free"/>
  <flow id="JF386139" begin="5000" fromJunction="J3" toJunction="J0" end="5060" vehsPerHour="63.11628493236027" departLane="free"/>
  <flow id="JF386140" begin="5000" fromJunction="J3" toJunction="J4" end="5060" vehsPerHour="397.50264663685556" departLane="free"/>
  <flow id="JF386141" begin="5000" fromJunction="J3" toJunction="J5" end="5060" vehsPerHour="178.15835725392995" departLane="free"/>
  <flow id="JF386142" begin="5000" fromJunction="J3" toJunction="J6" end="5060" vehsPerHour="397.2934664640863" departLane="free"/>
  <flow id="JF386143" begin="5000" fromJunction="J3" toJunction="J7" end="5060" vehsPerHour="400.44221084653645" departLane="free"/>
  <flow id="JF386144" begin="5000" fromJunction="J4" toJunction="J0" end="5060" vehsPerHour="124.03585068704194" departLane="free"/>
  <flow id="JF386145" begin="5000" fromJunction="J4" toJunction="J3" end="5060" vehsPerHour="168.09157076884895" departLane="free"/>
  <flow id="JF386146" begin="5000" fromJunction="J5" toJunction="J0" end="5060" vehsPerHour="181.49306490320043" departLane="free"/>
  <flow id="JF386147" begin="5000" fromJunction="J5" toJunction="J3" end="5060" vehsPerHour="2.5536150283588186" departLane="free"/>
  <flow id="JF386148" begin="5000" fromJunction="J5" toJunction="J4" end="5060" vehsPerHour="191.553111975177" departLane="free"/>
  <flow id="JF386149" begin="5000" fromJunction="J5" toJunction="J7" end="5060" vehsPerHour="170.3558234911778" departLane="free"/>
  <flow id="JF386150" begin="5000" fromJunction="J6" toJunction="J0" end="5060" vehsPerHour="228.33383032625875" departLane="free"/>
  <flow id="JF386151" begin="5000" fromJunction="J6" toJunction="J3" end="5060" vehsPerHour="87.66995678146979" departLane="free"/>
  <flow id="JF386152" begin="5000" fromJunction="J6" toJunction="J4" end="5060" vehsPerHour="52.48971398051135" departLane="free"/>
  <flow id="JF386153" begin="5000" fromJunction="J6" toJunction="J5" end="5060" vehsPerHour="52.12173429220835" departLane="free"/>
  <flow id="JF386154" begin="5000" fromJunction="J6" toJunction="J7" end="5060" vehsPerHour="228.80394214519123" departLane="free"/>
  <flow id="JF386155" begin="5000" fromJunction="J7" toJunction="J0" end="5060" vehsPerHour="137.60687206622708" departLane="free"/>
  <flow id="JF386156" begin="5000" fromJunction="J7" toJunction="J4" end="5060" vehsPerHour="267.1839192860282" departLane="free"/>
  <flow id="JF386157" begin="5000" fromJunction="J7" toJunction="J5" end="5060" vehsPerHour="16.214961152844037" departLane="free"/>
  <flow id="JF386158" begin="5000" fromJunction="J7" toJunction="J6" end="5060" vehsPerHour="118.11728016169256" departLane="free"/>
  <flow id="JF386159" begin="5060" fromJunction="J0" toJunction="J3" end="5120" vehsPerHour="300.6493276960792" departLane="free"/>
  <flow id="JF386160" begin="5060" fromJunction="J0" toJunction="J4" end="5120" vehsPerHour="125.1364460598106" departLane="free"/>
  <flow id="JF386161" begin="5060" fromJunction="J0" toJunction="J5" end="5120" vehsPerHour="472.9670843687496" departLane="free"/>
  <flow id="JF386162" begin="5060" fromJunction="J0" toJunction="J7" end="5120" vehsPerHour="475.07812961524326" departLane="free"/>
  <flow id="JF386163" begin="5060" fromJunction="J3" toJunction="J0" end="5120" vehsPerHour="517.2768303509554" departLane="free"/>
  <flow id="JF386164" begin="5060" fromJunction="J3" toJunction="J4" end="5120" vehsPerHour="518.7730702954065" departLane="free"/>
  <flow id="JF386165" begin="5060" fromJunction="J3" toJunction="J5" end="5120" vehsPerHour="475.055150272778" departLane="free"/>
  <flow id="JF386166" begin="5060" fromJunction="J3" toJunction="J6" end="5120" vehsPerHour="341.5809641823109" departLane="free"/>
  <flow id="JF386167" begin="5060" fromJunction="J3" toJunction="J7" end="5120" vehsPerHour="116.63968840658274" departLane="free"/>
  <flow id="JF386168" begin="5060" fromJunction="J4" toJunction="J0" end="5120" vehsPerHour="160.35453418374607" departLane="free"/>
  <flow id="JF386169" begin="5060" fromJunction="J4" toJunction="J5" end="5120" vehsPerHour="209.47775762984344" departLane="free"/>
  <flow id="JF386170" begin="5060" fromJunction="J4" toJunction="J6" end="5120" vehsPerHour="195.64204397025463" departLane="free"/>
  <flow id="JF386171" begin="5060" fromJunction="J4" toJunction="J7" end="5120" vehsPerHour="104.86308828228897" departLane="free"/>
  <flow id="JF386172" begin="5060" fromJunction="J5" toJunction="J0" end="5120" vehsPerHour="249.8547460349016" departLane="free"/>
  <flow id="JF386173" begin="5060" fromJunction="J5" toJunction="J3" end="5120" vehsPerHour="97.03124664897143" departLane="free"/>
  <flow id="JF386174" begin="5060" fromJunction="J5" toJunction="J4" end="5120" vehsPerHour="67.7627763528402" departLane="free"/>
  <flow id="JF386175" begin="5060" fromJunction="J5" toJunction="J6" end="5120" vehsPerHour="24.205048833563225" departLane="free"/>
  <flow id="JF386176" begin="5060" fromJunction="J5" toJunction="J7" end="5120" vehsPerHour="178.45893643413476" departLane="free"/>
  <flow id="JF386177" begin="5060" fromJunction="J6" toJunction="J0" end="5120" vehsPerHour="204.97837639988174" departLane="free"/>
  <flow id="JF386178" begin="5060" fromJunction="J6" toJunction="J3" end="5120" vehsPerHour="100.37666624220284" departLane="free"/>
  <flow id="JF386179" begin="5060" fromJunction="J7" toJunction="J0" end="5120" vehsPerHour="61.951968884292754" departLane="free"/>
  <flow id="JF386180" begin="5060" fromJunction="J7" toJunction="J3" end="5120" vehsPerHour="121.23683147479615" departLane="free"/>
  <flow id="JF386181" begin="5060" fromJunction="J7" toJunction="J5" end="5120" vehsPerHour="133.4886007093073" departLane="free"/>
  <flow id="JF386182" begin="5120" fromJunction="J0" toJunction="J3" end="5180" vehsPerHour="12.963982185392426" departLane="free"/>
  <flow id="JF386183" begin="5120" fromJunction="J0" toJunction="J4" end="5180" vehsPerHour="378.4346342465987" departLane="free"/>
  <flow id="JF386184" begin="5120" fromJunction="J0" toJunction="J5" end="5180" vehsPerHour="532.5279509597107" departLane="free"/>
  <flow id="JF386185" begin="5120" fromJunction="J0" toJunction="J6" end="5180" vehsPerHour="471.1041821664056" departLane="free"/>
  <flow id="JF386186" begin="5120" fromJunction="J0" toJunction="J7" end="5180" vehsPerHour="433.9554512413818" departLane="free"/>
  <flow id="JF386187" begin="5120" fromJunction="J3" toJunction="J0" end="5180" vehsPerHour="273.4967052731294" departLane="free"/>
  <flow id="JF386188" begin="5120" fromJunction="J3" toJunction="J4" end="5180" vehsPerHour="294.6604007929252" departLane="free"/>
  <flow id="JF386189" begin="5120" fromJunction="J3" toJunction="J6" end="5180" vehsPerHour="349.0973294024771" departLane="free"/>
  <flow id="JF386190" begin="5120" fromJunction="J3" toJunction="J7" end="5180" vehsPerHour="157.81418351576687" departLane="free"/>
  <flow id="JF386191" begin="5120" fromJunction="J4" toJunction="J0" end="5180" vehsPerHour="165.64510494513308" departLane="free"/>
  <flow id="JF386192" begin="5120" fromJunction="J4" toJunction="J3" end="5180" vehsPerHour="181.80842430909982" departLane="free"/>
  <flow id="JF386193" begin="5120" fromJunction="J4" toJunction="J5" end="5180" vehsPerHour="249.61799804911703" departLane="free"/>
  <flow id="JF386194" begin="5120" fromJunction="J4" toJunction="J6" end="5180" vehsPerHour="106.8121870551274" departLane="free"/>
  <flow id="JF386195" begin="5120" fromJunction="J4" toJunction="J7" end="5180" vehsPerHour="26.979856193358554" departLane="free"/>
  <flow id="JF386196" begin="5120" fromJunction="J5" toJunction="J3" end="5180" vehsPerHour="141.84595566939052" departLane="free"/>
  <flow id="JF386197" begin="5120" fromJunction="J5" toJunction="J4" end="5180" vehsPerHour="78.21309473222328" departLane="free"/>
  <flow id="JF386198" begin="5120" fromJunction="J5" toJunction="J7" end="5180" vehsPerHour="207.73673414302908" departLane="free"/>
  <flow id="JF386199" begin="5120" fromJunction="J6" toJunction="J0" end="5180" vehsPerHour="227.4078107301325" departLane="free"/>
  <flow id="JF386200" begin="5120" fromJunction="J6" toJunction="J3" end="5180" vehsPerHour="60.47840285848041" departLane="free"/>
  <flow id="JF386201" begin="5120" fromJunction="J6" toJunction="J5" end="5180" vehsPerHour="175.06636048452157" departLane="free"/>
  <flow id="JF386202" begin="5120" fromJunction="J7" toJunction="J0" end="5180" vehsPerHour="102.39191832558181" departLane="free"/>
  <flow id="JF386203" begin="5120" fromJunction="J7" toJunction="J3" end="5180" vehsPerHour="100.51275532990313" departLane="free"/>
  <flow id="JF386204" begin="5120" fromJunction="J7" toJunction="J5" end="5180" vehsPerHour="246.96447627580505" departLane="free"/>
  <flow id="JF386205" begin="5180" fromJunction="J0" toJunction="J3" end="5240" vehsPerHour="154.00813069000216" departLane="free"/>
  <flow id="JF386206" begin="5180" fromJunction="J0" toJunction="J4" end="5240" vehsPerHour="176.10337894935844" departLane="free"/>
  <flow id="JF386207" begin="5180" fromJunction="J0" toJunction="J5" end="5240" vehsPerHour="54.471697513292" departLane="free"/>
  <flow id="JF386208" begin="5180" fromJunction="J0" toJunction="J6" end="5240" vehsPerHour="239.5314113270628" departLane="free"/>
  <flow id="JF386209" begin="5180" fromJunction="J0" toJunction="J7" end="5240" vehsPerHour="124.23295357564223" departLane="free"/>
  <flow id="JF386210" begin="5180" fromJunction="J3" toJunction="J0" end="5240" vehsPerHour="201.56843435947718" departLane="free"/>
  <flow id="JF386211" begin="5180" fromJunction="J3" toJunction="J4" end="5240" vehsPerHour="377.9408726719234" departLane="free"/>
  <flow id="JF386212" begin="5180" fromJunction="J3" toJunction="J5" end="5240" vehsPerHour="198.77930932853295" departLane="free"/>
  <flow id="JF386213" begin="5180" fromJunction="J3" toJunction="J6" end="5240" vehsPerHour="303.4133471041047" departLane="free"/>
  <flow id="JF386214" begin="5180" fromJunction="J4" toJunction="J3" end="5240" vehsPerHour="64.98389792850068" departLane="free"/>
  <flow id="JF386215" begin="5180" fromJunction="J4" toJunction="J5" end="5240" vehsPerHour="266.9667884429942" departLane="free"/>
  <flow id="JF386216" begin="5180" fromJunction="J4" toJunction="J6" end="5240" vehsPerHour="9.230488085831567" departLane="free"/>
  <flow id="JF386217" begin="5180" fromJunction="J5" toJunction="J0" end="5240" vehsPerHour="32.837055647210676" departLane="free"/>
  <flow id="JF386218" begin="5180" fromJunction="J5" toJunction="J3" end="5240" vehsPerHour="261.4691562546938" departLane="free"/>
  <flow id="JF386219" begin="5180" fromJunction="J5" toJunction="J4" end="5240" vehsPerHour="46.63200152714439" departLane="free"/>
  <flow id="JF386220" begin="5180" fromJunction="J5" toJunction="J6" end="5240" vehsPerHour="139.6548419802647" departLane="free"/>
  <flow id="JF386221" begin="5180" fromJunction="J5" toJunction="J7" end="5240" vehsPerHour="176.28341955006323" departLane="free"/>
  <flow id="JF386222" begin="5180" fromJunction="J6" toJunction="J0" end="5240" vehsPerHour="102.57091764123533" departLane="free"/>
  <flow id="JF386223" begin="5180" fromJunction="J6" toJunction="J4" end="5240" vehsPerHour="28.30336526660665" departLane="free"/>
  <flow id="JF386224" begin="5180" fromJunction="J6" toJunction="J5" end="5240" vehsPerHour="114.26781406912114" departLane="free"/>
  <flow id="JF386225" begin="5180" fromJunction="J6" toJunction="J7" end="5240" vehsPerHour="89.10718216223191" departLane="free"/>
  <flow id="JF386226" begin="5180" fromJunction="J7" toJunction="J4" end="5240" vehsPerHour="66.639382856174" departLane="free"/>
  <flow id="JF386227" begin="5180" fromJunction="J7" toJunction="J5" end="5240" vehsPerHour="238.47607960584085" departLane="free"/>
  <flow id="JF386228" begin="5180" fromJunction="J7" toJunction="J6" end="5240" vehsPerHour="52.49765883102773" departLane="free"/>
  <flow id="JF386229" begin="5240" fromJunction="J0" toJunction="J4" end="5300" vehsPerHour="347.38371227748326" departLane="free"/>
  <flow id="JF386230" begin="5240" fromJunction="J0" toJunction="J5" end="5300" vehsPerHour="66.72436519710341" departLane="free"/>
  <flow id="JF386231" begin="5240" fromJunction="J0" toJunction="J6" end="5300" vehsPerHour="507.6141036938907" departLane="free"/>
  <flow id="JF386232" begin="5240" fromJunction="J0" toJunction="J7" end="5300" vehsPerHour="128.62305691363193" departLane="free"/>
  <flow id="JF386233" begin="5240" fromJunction="J3" toJunction="J4" end="5300" vehsPerHour="109.61746778008396" departLane="free"/>
  <flow id="JF386234" begin="5240" fromJunction="J3" toJunction="J5" end="5300" vehsPerHour="254.22058671114584" departLane="free"/>
  <flow id="JF386235" begin="5240" fromJunction="J3" toJunction="J6" end="5300" vehsPerHour="240.2623927328367" departLane="free"/>
  <flow id="JF386236" begin="5240" fromJunction="J3" toJunction="J7" end="5300" vehsPerHour="520.1932027488066" departLane="free"/>
  <flow id="JF386237" begin="5240" fromJunction="J4" toJunction="J0" end="5300" vehsPerHour="58.72849198773477" departLane="free"/>
  <flow id="JF386238" begin="5240" fromJunction="J4" toJunction="J3" end="5300" vehsPerHour="182.0100487254752" departLane="free"/>
  <flow id="JF386239" begin="5240" fromJunction="J4" toJunction="J5" end="5300" vehsPerHour="234.57793433625608" departLane="free"/>
  <flow id="JF386240" begin="5240" fromJunction="J4" toJunction="J6" end="5300" vehsPerHour="83.55846477421265" departLane="free"/>
  <flow id="JF386241" begin="5240" fromJunction="J4" toJunction="J7" end="5300" vehsPerHour="81.74329801111264" departLane="free"/>
  <flow id="JF386242" begin="5240" fromJunction="J5" toJunction="J0" end="5300" vehsPerHour="60.028348371487674" departLane="free"/>
  <flow id="JF386243" begin="5240" fromJunction="J5" toJunction="J3" end="5300" vehsPerHour="47.08885648187475" departLane="free"/>
  <flow id="JF386244" begin="5240" fromJunction="J5" toJunction="J4" end="5300" vehsPerHour="185.27604351412847" departLane="free"/>
  <flow id="JF386245" begin="5240" fromJunction="J5" toJunction="J6" end="5300" vehsPerHour="63.3918465353976" departLane="free"/>
  <flow id="JF386246" begin="5240" fromJunction="J5" toJunction="J7" end="5300" vehsPerHour="30.66339812405595" departLane="free"/>
  <flow id="JF386247" begin="5240" fromJunction="J6" toJunction="J0" end="5300" vehsPerHour="47.355574462189175" departLane="free"/>
  <flow id="JF386248" begin="5240" fromJunction="J6" toJunction="J4" end="5300" vehsPerHour="232.85941864059112" departLane="free"/>
  <flow id="JF386249" begin="5240" fromJunction="J6" toJunction="J5" end="5300" vehsPerHour="255.8430316684485" departLane="free"/>
  <flow id="JF386250" begin="5240" fromJunction="J7" toJunction="J0" end="5300" vehsPerHour="248.522687590512" departLane="free"/>
  <flow id="JF386251" begin="5240" fromJunction="J7" toJunction="J3" end="5300" vehsPerHour="58.65780579177354" departLane="free"/>
  <flow id="JF386252" begin="5240" fromJunction="J7" toJunction="J5" end="5300" vehsPerHour="162.2659203705195" departLane="free"/>
  <flow id="JF386253" begin="5240" fromJunction="J7" toJunction="J6" end="5300" vehsPerHour="171.43817189828454" departLane="free"/>
  <flow id="JF386254" begin="5300" fromJunction="J0" toJunction="J4" end="5360" vehsPerHour="72.60849743135401" departLane="free"/>
  <flow id="JF386255" begin="5300" fromJunction="J0" toJunction="J5" end="5360" vehsPerHour="107.88355641902153" departLane="free"/>
  <flow id="JF386256" begin="5300" fromJunction="J0" toJunction="J7" end="5360" vehsPerHour="386.8878491772753" departLane="free"/>
  <flow id="JF386257" begin="5300" fromJunction="J3" toJunction="J0" end="5360" vehsPerHour="279.3837328235705" departLane="free"/>
  <flow id="JF386258" begin="5300" fromJunction="J3" toJunction="J4" end="5360" vehsPerHour="447.36269844391904" departLane="free"/>
  <flow id="JF386259" begin="5300" fromJunction="J3" toJunction="J6" end="5360" vehsPerHour="86.68684154407617" departLane="free"/>
  <flow id="JF386260" begin="5300" fromJunction="J4" toJunction="J0" end="5360" vehsPerHour="32.75128230582066" departLane="free"/>
  <flow id="JF386261" begin="5300" fromJunction="J4" toJunction="J3" end="5360" vehsPerHour="240.949082513697" departLane="free"/>
  <flow id="JF386262" begin="5300" fromJunction="J4" toJunction="J5" end="5360" vehsPerHour="198.69046494592746" departLane="free"/>
  <flow id="JF386263" begin="5300" fromJunction="J5" toJunction="J0" end="5360" vehsPerHour="253.66753377309155" departLane="free"/>
  <flow id="JF386264" begin="5300" fromJunction="J5" toJunction="J3" end="5360" vehsPerHour="257.7022538945884" departLane="free"/>
  <flow id="JF386265" begin="5300" fromJunction="J5" toJunction="J4" end="5360" vehsPerHour="218.06013225482775" departLane="free"/>
  <flow id="JF386266" begin="5300" fromJunction="J5" toJunction="J6" end="5360" vehsPerHour="205.56118289551003" departLane="free"/>
  <flow id="JF386267" begin="5300" fromJunction="J6" toJunction="J0" end="5360" vehsPerHour="208.685346219763" departLane="free"/>
  <flow id="JF386268" begin="5300" fromJunction="J6" toJunction="J3" end="5360" vehsPerHour="169.12488821979576" departLane="free"/>
  <flow id="JF386269" begin="5300" fromJunction="J6" toJunction="J4" end="5360" vehsPerHour="79.18664519271174" departLane="free"/>
  <flow id="JF386270" begin="5300" fromJunction="J6" toJunction="J5" end="5360" vehsPerHour="226.8861157962504" departLane="free"/>
  <flow id="JF386271" begin="5300" fromJunction="J6" toJunction="J7" end="5360" vehsPerHour="57.009238085821266" departLane="free"/>
  <flow id="JF386272" begin="5300" fromJunction="J7" toJunction="J3" end="5360" vehsPerHour="48.020127969883745" departLane="free"/>
  <flow id="JF386273" begin="5300" fromJunction="J7" toJunction="J4" end="5360" vehsPerHour="226.92027179401103" departLane="free"/>
  <flow id="JF386274" begin="5300" fromJunction="J7" toJunction="J5" end="5360" vehsPerHour="77.9522557487738" departLane="free"/>
  <flow id="JF386275" begin="5300" fromJunction="J7" toJunction="J6" end="5360" vehsPerHour="261.2980850863411" departLane="free"/>
  <flow id="JF386276" begin="5360" fromJunction="J0" toJunction="J3" end="5420" vehsPerHour="101.7160572926807" departLane="free"/>
  <flow id="JF386277" begin="5360" fromJunction="J0" toJunction="J6" end="5420" vehsPerHour="289.99663578662444" departLane="free"/>
  <flow id="JF386278" begin="5360" fromJunction="J0" toJunction="J7" end="5420" vehsPerHour="432.9818867740866" departLane="free"/>
  <flow id="JF386279" begin="5360" fromJunction="J3" toJunction="J4" end="5420" vehsPerHour="139.18090455576484" departLane="free"/>
  <flow id="JF386280" begin="5360" fromJunction="J3" toJunction="J5" end="5420" vehsPerHour="78.33517089712443" departLane="free"/>
  <flow id="JF386281" begin="5360" fromJunction="J3" toJunction="J7" end="5420" vehsPerHour="251.31413525368563" departLane="free"/>
  <flow id="JF386282" begin="5360" fromJunction="J4" toJunction="J0" end="5420" vehsPerHour="91.4699344305838" departLane="free"/>
  <flow id="JF386283" begin="5360" fromJunction="J4" toJunction="J3" end="5420" vehsPerHour="250.71913254953236" departLane="free"/>
  <flow id="JF386284" begin="5360" fromJunction="J4" toJunction="J5" end="5420" vehsPerHour="268.03498001731856" departLane="free"/>
  <flow id="JF386285" begin="5360" fromJunction="J4" toJunction="J6" end="5420" vehsPerHour="102.39675644895154" departLane="free"/>
  <flow id="JF386286" begin="5360" fromJunction="J4" toJunction="J7" end="5420" vehsPerHour="170.5957612276341" departLane="free"/>
  <flow id="JF386287" begin="5360" fromJunction="J5" toJunction="J0" end="5420" vehsPerHour="9.069272335639571" departLane="free"/>
  <flow id="JF386288" begin="5360" fromJunction="J5" toJunction="J6" end="5420" vehsPerHour="83.26988082681227" departLane="free"/>
  <flow id="JF386289" begin="5360" fromJunction="J5" toJunction="J7" end="5420" vehsPerHour="143.2884232199192" departLane="free"/>
  <flow id="JF386290" begin="5360" fromJunction="J6" toJunction="J0" end="5420" vehsPerHour="167.41567982789147" departLane="free"/>
  <flow id="JF386291" begin="5360" fromJunction="J6" toJunction="J3" end="5420" vehsPerHour="228.5326584158414" departLane="free"/>
  <flow id="JF386292" begin="5360" fromJunction="J6" toJunction="J7" end="5420" vehsPerHour="196.36201587537047" departLane="free"/>
  <flow id="JF386293" begin="5360" fromJunction="J7" toJunction="J0" end="5420" vehsPerHour="179.16943434857478" departLane="free"/>
  <flow id="JF386294" begin="5360" fromJunction="J7" toJunction="J3" end="5420" vehsPerHour="106.51722768655931" departLane="free"/>
  <flow id="JF386295" begin="5360" fromJunction="J7" toJunction="J4" end="5420" vehsPerHour="265.4475474029311" departLane="free"/>
  <flow id="JF386296" begin="5360" fromJunction="J7" toJunction="J5" end="5420" vehsPerHour="97.09585587112421" departLane="free"/>
  <flow id="JF386297" begin="5360" fromJunction="J7" toJunction="J6" end="5420" vehsPerHour="262.9454630543703" departLane="free"/>
  <flow id="JF386298" begin="5420" fromJunction="J0" toJunction="J3" end="5480" vehsPerHour="322.14654487254876" departLane="free"/>
  <flow id="JF386299" begin="5420" fromJunction="J0" toJunction="J5" end="5480" vehsPerHour="69.57538624563416" departLane="free"/>
  <flow id="JF386300" begin="5420" fromJunction="J0" toJunction="J6" end="5480" vehsPerHour="210.0435201708118" departLane="free"/>
  <flow id="JF386301" begin="5420" fromJunction="J0" toJunction="J7" end="5480" vehsPerHour="168.98637551685266" departLane="free"/>
  <flow id="JF386302" begin="5420" fromJunction="J3" toJunction="J0" end="5480" vehsPerHour="252.73966283340775" departLane="free"/>
  <flow id="JF386303" begin="5420" fromJunction="J3" toJunction="J4" end="5480" vehsPerHour="473.6729022017081" departLane="free"/>
  <flow id="JF386304" begin="5420" fromJunction="J3" toJunction="J7" end="5480" vehsPerHour="41.83737041048592" departLane="free"/>
  <flow id="JF386305" begin="5420" fromJunction="J4" toJunction="J0" end="5480" vehsPerHour="210.5415517474606" departLane="free"/>
  <flow id="JF386306" begin="5420" fromJunction="J4" toJunction="J5" end="5480" vehsPerHour="248.34502606193004" departLane="free"/>
  <flow id="JF386307" begin="5420" fromJunction="J4" toJunction="J6" end="5480" vehsPerHour="15.558364815781204" departLane="free"/>
  <flow id="JF386308" begin="5420" fromJunction="J5" toJunction="J0" end="5480" vehsPerHour="110.32318871039122" departLane="free"/>
  <flow id="JF386309" begin="5420" fromJunction="J5" toJunction="J7" end="5480" vehsPerHour="138.92414953853418" departLane="free"/>
  <flow id="JF386310" begin="5420" fromJunction="J6" toJunction="J0" end="5480" vehsPerHour="43.88545804240966" departLane="free"/>
  <flow id="JF386311" begin="5420" fromJunction="J6" toJunction="J3" end="5480" vehsPerHour="195.46980443856052" departLane="free"/>
  <flow id="JF386312" begin="5420" fromJunction="J7" toJunction="J0" end="5480" vehsPerHour="209.83179531538173" departLane="free"/>
  <flow id="JF386313" begin="5420" fromJunction="J7" toJunction="J3" end="5480" vehsPerHour="154.5179273161553" departLane="free"/>
  <flow id="JF386314" begin="5420" fromJunction="J7" toJunction="J5" end="5480" vehsPerHour="211.7341769423835" departLane="free"/>
  <flow id="JF386315" begin="5420" fromJunction="J7" toJunction="J6" end="5480" vehsPerHour="101.51343905385022" departLane="free"/>
  <flow id="JF386316" begin="5480" fromJunction="J0" toJunction="J3" end="5540" vehsPerHour="35.858811107726645" departLane="free"/>
  <flow id="JF386317" begin="5480" fromJunction="J0" toJunction="J4" end="5540" vehsPerHour="5.743121033558793" departLane="free"/>
  <flow id="JF386318" begin="5480" fromJunction="J0" toJunction="J5" end="5540" vehsPerHour="156.2480129685709" departLane="free"/>
  <flow id="JF386319" begin="5480" fromJunction="J0" toJunction="J7" end="5540" vehsPerHour="533.835441532547" departLane="free"/>
  <flow id="JF386320" begin="5480" fromJunction="J3" toJunction="J0" end="5540" vehsPerHour="419.14382132775467" departLane="free"/>
  <flow id="JF386321" begin="5480" fromJunction="J3" toJunction="J6" end="5540" vehsPerHour="246.36923285480194" departLane="free"/>
  <flow id="JF386322" begin="5480" fromJunction="J3" toJunction="J7" end="5540" vehsPerHour="170.14578083875398" departLane="free"/>
  <flow id="JF386323" begin="5480" fromJunction="J4" toJunction="J3" end="5540" vehsPerHour="75.03223955282031" departLane="free"/>
  <flow id="JF386324" begin="5480" fromJunction="J4" toJunction="J6" end="5540" vehsPerHour="8.428022525164744" departLane="free"/>
  <flow id="JF386325" begin="5480" fromJunction="J5" toJunction="J3" end="5540" vehsPerHour="220.09432185706203" departLane="free"/>
  <flow id="JF386326" begin="5480" fromJunction="J5" toJunction="J4" end="5540" vehsPerHour="147.06297110466167" departLane="free"/>
  <flow id="JF386327" begin="5480" fromJunction="J5" toJunction="J6" end="5540" vehsPerHour="261.64827982442876" departLane="free"/>
  <flow id="JF386328" begin="5480" fromJunction="J6" toJunction="J3" end="5540" vehsPerHour="272.5537575347901" departLane="free"/>