<?xml version="1.0" encoding="UTF-8"?>
<routes xmlns:xsi="http://www.w3.org/2001/XMLSchema-instance" xsi:noNamespaceSchemaLocation="http://sumo.dlr.de/xsd/routes_file.xsd">
  <flow id="JF384302" begin="0" fromJunction="J3" toJunction="J0" end="5000" vehsPerHour="1003.7638094282877" departLane="free"/>
  <flow id="JF384303" begin="0" fromJunction="J0" toJunction="J3" end="5000" vehsPerHour="1161.4507632560758" departLane="free"/>
  <flow id="JF384304" begin="0" fromJunction="J3" toJunction="J7" end="5000" vehsPerHour="26.63649269938069" departLane="free"/>
  <flow id="JF384305" begin="0" fromJunction="J3" toJunction="J6" end="5000" vehsPerHour="85.59334418840915" departLane="free"/>
  <flow id="JF384306" begin="0" fromJunction="J3" toJunction="J4" end="5000" vehsPerHour="1.2307864155554133" departLane="free"/>
  <flow id="JF384307" begin="0" fromJunction="J3" toJunction="J5" end="5000" vehsPerHour="61.35834634618654" departLane="free"/>
  <flow id="JF384308" begin="0" fromJunction="J0" toJunction="J7" end="5000" vehsPerHour="112.8518935729259" departLane="free"/>
  <flow id="JF384309" begin="0" fromJunction="J0" toJunction="J6" end="5000" vehsPerHour="27.999214799674547" departLane="free"/>
  <flow id="JF384310" begin="0" fromJunction="J0" toJunction="J4" end="5000" vehsPerHour="126.33454754771593" departLane="free"/>
  <flow id="JF384311" begin="0" fromJunction="J0" toJunction="J5" end="5000" vehsPerHour="97.12698921627224" departLane="free"/>
  <flow id="JF384312" begin="0" fromJunction="J7" toJunction="J6" end="5000" vehsPerHour="13.828536713541174" departLane="free"/>
  <flow id="JF384313" begin="0" fromJunction="J7" toJunction="J4" end="5000" vehsPerHour="49.16205307577325" departLane="free"/>
  <flow id="JF384314" begin="0" fromJunction="J7" toJunction="J5" end="5000" vehsPerHour="39.0214508958771" departLane="free"/>
  <flow id="JF384315" begin="0" fromJunction="J6" toJunction="J7" end="5000" vehsPerHour="28.172869025327007" departLane="free"/>
  <flow id="JF384316" begin="0" fromJunction="J6" toJunction="J4" end="5000" vehsPerHour="35.63552659411213" departLane="free"/>
  <flow id="JF384317" begin="0" fromJunction="J6" toJunction="J5" end="5000" vehsPerHour="68.13196470972139" departLane="free"/>
  <flow id="JF384318" begin="0" fromJunction="J4" toJunction="J7" end="5000" vehsPerHour="8.042457605040227" departLane="free"/>
  <flow id="JF384319" begin="0" fromJunction="J4" toJunction="J6" end="5000" vehsPerHour="46.25448557418454" departLane="free"/>
  <flow id="JF384320" begin="0" fromJunction="J4" toJunction="J5" end="5000" vehsPerHour="50.257738677423305" departLane="free"/>
  <flow id="JF384321" begin="0" fromJunction="J5" toJunction="J7" end="5000" vehsPerHour="20.63370712912293" departLane="free"/>
  <flow id="JF384322" begin="0" fromJunction="J5" toJunction="J6" end="5000" vehsPerHour="40.92374186249679" departLane="free"/>
  <flow id="JF384323" begin="0" fromJunction="J5" toJunction="J4" end="5000" vehsPerHour="33.62519756951684" departLane="free"/>
  <flow id="JF384324" begin="0" fromJunction="J7" toJunction="J3" end="5000" vehsPerHour="65.58068742259455" departLane="free"/>
  <flow id="JF384325" begin="0" fromJunction="J7" toJunction="J0" end="5000" vehsPerHour="22.640682500398608" departLane="free"/>
  <flow id="JF384326" begin="0" fromJunction="J6" toJunction="J3" end="5000" vehsPerHour="59.68781553081073" departLane="free"/>
  <flow id="JF384327" begin="0" fromJunction="J6" toJunction="J0" end="5000" vehsPerHour="4.532008887291332" departLane="free"/>
  <flow id="JF384328" begin="0" fromJunction="J4" toJunction="J3" end="5000" vehsPerHour="47.79771672078216" departLane="free"/>
  <flow id="JF384329" begin="0" fromJunction="J4" toJunction="J0" end="5000" vehsPerHour="21.28922102440071" departLane="free"/>
  <flow id="JF384330" begin="0" fromJunction="J5" toJunction="J3" end="5000" vehsPerHour="56.79297499209042" departLane="free"/>
  <flow id="JF384331" begin="0" fromJunction="J5" toJunction="J0" end="5000" vehsPerHour="19.416659320743598" departLane="free"/>
  <flow id="JF384332" begin="5000" fromJunction="J0" toJunction="J3" end="5060" vehsPerHour="248.73935132194174" departLane="free"/>
  <flow id="JF384333" begin="5000" fromJunction="J0" toJunction="J4" end="5060" vehsPerHour="415.8905704549078" departLane="free"/>
  <flow id="JF384334" begin="5000" fromJunction="J0" toJunction="J5" end="5060" vehsPerHour="369.213988518503" departLane="free"/>
  <flow id="JF384335" begin="5000" fromJunction="J0" toJunction="J7" end="5060" vehsPerHour="67.17995734744446" departLane="free"/>
  <flow id="JF384336" begin="5000" fromJunction="J3" toJunction="J4" end="5060" vehsPerHour="1.9253070952784845" departLane="free"/>
  <flow id="JF384337" begin="5000" fromJunction="J3" toJunction="J5" end="5060" vehsPerHour="465.59226348738775" departLane="free"/>
  <flow id="JF384338" begin="5000" fromJunction="J3" toJunction="J6" end="5060" vehsPerHour="537.2602763223287" departLane="free"/>
  <flow id="JF384339" begin="5000" fromJunction="J4" toJunction="J0" end="5060" vehsPerHour="52.68472792203626" departLane="free"/>
  <flow id="JF384340" begin="5000" fromJunction="J4" toJunction="J3" end="5060" vehsPerHour="182.62766702587462" departLane="free"/>
  <flow id="JF384341" begin="5000" fromJunction="J4" toJunction="J5" end="5060" vehsPerHour="267.61063218569865" departLane="free"/>
  <flow id="JF384342" begin="5000" fromJunction="J4" toJunction="J6" end="5060" vehsPerHour="236.60801565372967" departLane="free"/>
  <flow id="JF384343" begin="5000" fromJunction="J4" toJunction="J7" end="5060" vehsPerHour="107.27950983802093" departLane="free"/>
  <flow id="JF384344" begin="5000" fromJunction="J5" toJunction="J0" end="5060" vehsPerHour="35.055943158624856" departLane="free"/>
  <flow id="JF384345" begin="5000" fromJunction="J6" toJunction="J0" end="5060" vehsPerHour="25.179684404357392" departLane="free"/>
  <flow id="JF384346" begin="5000" fromJunction="J6" toJunction="J3" end="5060" vehsPerHour="39.503823406464775" departLane="free"/>
  <flow id="JF384347" begin="5000" fromJunction="J6" toJunction="J4" end="5060" vehsPerHour="148.66774650724855" departLane="free"/>
  <flow id="JF384348" begin="5000" fromJunction="J6" toJunction="J5" end="5060" vehsPerHour="247.67121528503063" departLane="free"/>
  <flow id="JF384349" begin="5000" fromJunction="J6" toJunction="J7" end="5060" vehsPerHour="271.49881649719964" departLane="free"/>
  <flow id="JF384350" begin="5000" fromJunction="J7" toJunction="J3" end="5060" vehsPerHour="178.95863696784798" departLane="free"/>
  <flow id="JF384351" begin="5000" fromJunction="J7" toJunction="J5" end="5060" vehsPerHour="241.3950900118357" departLane="free"/>
  <flow id="JF384352" begin="5000" fromJunction="J7" toJunction="J6" end="5060" vehsPerHour="123.00733909908745" departLane="free"/>
  <flow id="JF384353" begin="5060" fromJunction="J0" toJunction="J3" end="5120" vehsPerHour="509.7766854160622" departLane="free"/>
  <flow id="JF384354" begin="5060" fromJunction="J0" toJunction="J4" end="5120" vehsPerHour="409.03941327212516" departLane="free"/>
  <flow id="JF384355" begin="5060" fromJunction="J0" toJunction="J6" end="5120" vehsPerHour="457.8490638674432" departLane="free"/>
  <flow id="JF384356" begin="5060" fromJunction="J0" toJunction="J7" end="5120" vehsPerHour="317.65143425444677" departLane="free"/>
  <flow id="JF384357" begin="5060" fromJunction="J3" toJunction="J0" end="5120" vehsPerHour="39.80235428877178" departLane="free"/>
  <flow id="JF384358" begin="5060" fromJunction="J3" toJunction="J4" end="5120" vehsPerHour="242.37430733090525" departLane="free"/>
  <flow id="JF384359" begin="5060" fromJunction="J3" toJunction="J5" end="5120" vehsPerHour="160.33269766098445" departLane="free"/>
  <flow id="JF384360" begin="5060" fromJunction="J4" toJunction="J0" end="5120" vehsPerHour="28.82104679332031" departLane="free"/>
  <flow id="JF384361" begin="5060" fromJunction="J4" toJunction="J3" end="5120" vehsPerHour="118.57006267349774" departLane="free"/>
  <flow id="JF384362" begin="5060" fromJunction="J4" toJunction="J7" end="5120" vehsPerHour="98.89707088401934" departLane="free"/>
  <flow id="JF384363" begin="5060" fromJunction="J5" toJunction="J0" end="5120" vehsPerHour="166.99816092935248" departLane="free"/>
  <flow id="JF384364" begin="5060" fromJunction="J5" toJunction="J3" end="5120" vehsPerHour="207.77743449775411" departLane="free"/>
  <flow id="JF384365" begin="5060" fromJunction="J5" toJunction="J4" end="5120" vehsPerHour="91.3256501700722" departLane="free"/>
  <flow id="JF384366" begin="5060" fromJunction="J5" toJunction="J6" end="5120" vehsPerHour="253.20166728112156" departLane="free"/>
  <flow id="JF384367" begin="5060" fromJunction="J5" toJunction="J7" end="5120" vehsPerHour="267.80059836310267" departLane="free"/>
  <flow id="JF384368" begin="5060" fromJunction="J6" toJunction="J3" end="5120" vehsPerHour="168.5721019276342" departLane="free"/>
  <flow id="JF384369" begin="5060" fromJunction="J6" toJunction="J4" end="5120" vehsPerHour="90.63047741527407" departLane="free"/>
  <flow id="JF384370" begin="5060" fromJunction="J6" toJunction="J5" end="5120" vehsPerHour="246.5504889504737" departLane="free"/>
  <flow id="JF384371" begin="5060" fromJunction="J6" toJunction="J7" end="5120" vehsPerHour="126.38056726825386" departLane="free"/>
  <flow id="JF384372" begin="5060" fromJunction="J7" toJunction="J0" end="5120" vehsPerHour="179.6762394830981" departLane="free"/>
  <flow id="JF384373" begin="5060" fromJunction="J7" toJunction="J3" end="5120" vehsPerHour="102.79144597633922" departLane="free"/>
  <flow id="JF384374" begin="5060" fromJunction="J7" toJunction="J4" end="5120" vehsPerHour="103.51738008604293" departLane="free"/>
  <flow id="JF384375" begin="5060" fromJunction="J7" toJunction="J5" end="5120" vehsPerHour="43.6264069554991" departLane="free"/>
  <flow id="JF384376" begin="5120" fromJunction="J0" toJunction="J5" end="5180" vehsPerHour="469.79958429988" departLane="free"/>
  <flow id="JF384377" begin="5120" fromJunction="J0" toJunction="J7" end="5180" vehsPerHour="166.95468926319495" departLane="free"/>
  <flow id="JF384378" begin="5120" fromJunction="J3" toJunction="J0" end="5180" vehsPerHour="313.3554360358006" departLane="free"/>
  <flow id="JF384379" begin="5120" fromJunction="J3" toJunction="J4" end="5180" vehsPerHour="452.6659494095135" departLane="free"/>
  <flow id="JF384380" begin="5120" fromJunction="J3" toJunction="J5" end="5180" vehsPerHour="215.52380821596265" departLane="free"/>
  <flow id="JF384381" begin="5120" fromJunction="J3" toJunction="J6" end="5180" vehsPerHour="323.37684346168174" departLane="free"/>
  <flow id="JF384382" begin="5120" fromJunction="J3" toJunction="J7" end="5180" vehsPerHour="224.38758884234974" departLane="free"/>
  <flow id="JF384383" begin="5120" fromJunction="J4" toJunction="J0" end="5180" vehsPerHour="116.13432861118918" departLane="free"/>
  <flow id="JF384384" begin="5120" fromJunction="J4" toJunction="J3" end="5180" vehsPerHour="104.84387614315361" departLane="free"/>
  <flow id="JF384385" begin="5120" fromJunction="J4" toJunction="J5" end="5180" vehsPerHour="70.18471902398096" departLane="free"/>
  <flow id="JF384386" begin="5120" fromJunction="J4" toJunction="J6" end="5180" vehsPerHour="251.50604321827814" departLane="free"/>
  <flow id="JF384387" begin="5120" fromJunction="J4" toJunction="J7" end="5180" vehsPerHour="173.26525364462745" departLane="free"/>
  <flow id="JF384388" begin="5120" fromJunction="J5" toJunction="J4" end="5180" vehsPerHour="101.59151921411977" departLane="free"/>
  <flow id="JF384389" begin="5120" fromJunction="J5" toJunction="J6" end="5180" vehsPerHour="16.512162516863494" departLane="free"/>
  <flow id="JF384390" begin="5120" fromJunction="J5" toJunction="J7" end="5180" vehsPerHour="245.16417034693285" departLane="free"/>
  <flow id="JF384391" begin="5120" fromJunction="J6" toJunction="J0" end="5180" vehsPerHour="146.71162477839698" departLane="free"/>
  <flow id="JF384392" begin="5120" fromJunction="J6" toJunction="J3" end="5180" vehsPerHour="65.99034812788008" departLane="free"/>
  <flow id="JF384393" begin="5120" fromJunction="J6" toJunction="J4" end="5180" vehsPerHour="79.49641097676353" departLane="free"/>
  <flow id="JF384394" begin="5120" fromJunction="J6" toJunction="J7" end="5180" vehsPerHour="56.1546021960565" departLane="free"/>
  <flow id="JF384395" begin="5120" fromJunction="J7" toJunction="J0" end="5180" vehsPerHour="150.48207235453413" departLane="free"/>
  <flow id="JF384396" begin="5120" fromJunction="J7" toJunction="J4" end="5180" vehsPerHour="19.792826561375588" departLane="free"/>
  <flow id="JF384397" begin="5120" fromJunction="J7" toJunction="J5" end="5180" vehsPerHour="117.2621861703169" departLane="free"/>
  <flow id="JF384398" begin="5180" fromJunction="J0" toJunction="J3" end="5240" vehsPerHour="294.21672014192086" departLane="free"/>
  <flow id="JF384399" begin="5180" fromJunction="J0" toJunction="J4" end="5240" vehsPerHour="294.0172201506456" departLane="free"/>
  <flow id="JF384400" begin="5180" fromJunction="J0" toJunction="J5" end="5240" vehsPerHour="169.17237576600795" departLane="free"/>
  <flow id="JF384401" begin="5180" fromJunction="J0" toJunction="J6" end="5240" vehsPerHour="434.3811986603001" departLane="free"/>
  <flow id="JF384402" begin="5180" fromJunction="J0" toJunction="J7" end="5240" vehsPerHour="86.1250895690531" departLane="free"/>
  <flow id="JF384403" begin="5180" fromJunction="J3" toJunction="J0" end="5240" vehsPerHour="545.7299735682299" departLane="free"/>
  <flow id="JF384404" begin="5180" fromJunction="J3" toJunction="J4" end="5240" vehsPerHour="100.99581490263563" departLane="free"/>
  <flow id="JF384405" begin="5180" fromJunction="J3" toJunction="J6" end="5240" vehsPerHour="537.2711934933913" departLane="free"/>
  <flow id="JF384406" begin="5180" fromJunction="J3" toJunction="J7" end="5240" vehsPerHour="144.52670886540147" departLane="free"/>
  <flow id="JF384407" begin="5180" fromJunction="J4" toJunction="J0" end="5240" vehsPerHour="50.91133748528341" departLane="free"/>
  <flow id="JF384408" begin="5180" fromJunction="J4" toJunction="J3" end="5240" vehsPerHour="267.9241632829663" departLane="free"/>
  <flow id="JF384409" begin="5180" fromJunction="J4" toJunction="J5" end="5240" vehsPerHour="68.02743965229003" departLane="free"/>
  <flow id="JF384410" begin="5180" fromJunction="J4" toJunction="J7" end="5240" vehsPerHour="163.03942081095505" departLane="free"/>
  <flow id="JF384411" begin="5180" fromJunction="J5" toJunction="J3" end="5240" vehsPerHour="30.4516697378201" departLane="free"/>
  <flow id="JF384412" begin="5180" fromJunction="J5" toJunction="J4" end="5240" vehsPerHour="182.62024498187762" departLane="free"/>
  <flow id="JF384413" begin="5180" fromJunction="J5" toJunction="J6" end="5240" vehsPerHour="37.35770304030071" departLane="free"/>
  <flow id="JF384414" begin="5180" fromJunction="J5" toJunction="J7" end="5240" vehsPerHour="251.27573858309552" departLane="free"/>
  <flow id="JF384415" begin="5180" fromJunction="J6" toJunction="J0" end="5240" vehsPerHour="229.87461738292288" departLane="free"/>
  <flow id="JF384416" begin="5180" fromJunction="J6" toJunction="J3" end="5240" vehsPerHour="154.75059754931235" departLane="free"/>
  <flow id="JF384417" begin="5180" fromJunction="J6" toJunction="J5" end="5240" vehsPerHour="109.9434142210622" departLane="free"/>
  <flow id="JF384418" begin="5180" fromJunction="J6" toJunction="J7" end="5240" vehsPerHour="161.9968403798899" departLane="free"/>
  <flow id="JF384419" begin="5180" fromJunction="J7" toJunction="J0" end="5240" vehsPerHour="202.03282542861325" departLane="free"/>
  <flow id="JF384420" begin="5180" fromJunction="J7" toJunction="J3" end="5240" vehsPerHour="107.59881816367457" departLane="free"/>
  <flow id="JF384421" begin="5180" fromJunction="J7" toJunction="J4" end="5240" vehsPerHour="72.49571321919068" departLane="free"/>
  <flow id="JF384422" begin="5180" fromJunction="J7" toJunction="J5" end="5240" vehsPerHour="53.48546941507514" departLane="free"/>
  <flow id="JF384423" begin="5180" fromJunction="J7" toJunction="J6" end="5240" vehsPerHour="89.67653566047994" departLane="free"/>
  <flow id="JF384424" begin="5240" fromJunction="J0" toJunction="J3" end="5300" vehsPerHour="491.3802958353092" departLane="free"/>
  <flow id="JF384425" begin="5240" fromJunction="J0" toJunction="J4" end="5300" vehsPerHour="421.58482256418125" departLane="free"/>
  <flow id="JF384426" begin="5240" fromJunction="J0" toJunction="J5" end="5300" vehsPerHour="157.9025048487234" departLane="free"/>
  <flow id="JF384427" begin="5240" fromJunction="J0" toJunction="J6" end="5300" vehsPerHour="378.9752029746841" departLane="free"/>
  <flow id="JF384428" begin="5240" fromJunction="J3" toJunction="J4" end="5300" vehsPerHour="517.8903013928137" departLane="free"/>
  <flow id="JF384429" begin="5240" fromJunction="J3" toJunction="J6" end="5300" vehsPerHour="247.62190349169114" departLane="free"/>
  <flow id="JF384430" begin="5240" fromJunction="J3" toJunction="J7" end="5300" vehsPerHour="359.5926795492778" departLane="free"/>
  <flow id="JF384431" begin="5240" fromJunction="J4" toJunction="J0" end="5300" vehsPerHour="222.381199432256" departLane="free"/>
  <flow id="JF384432" begin="5240" fromJunction="J4" toJunction="J3" end="5300" vehsPerHour="30.193241195713348" departLane="free"/>
  <flow id="JF384433" begin="5240" fromJunction="J4" toJunction="J5" end="5300" vehsPerHour="159.077989767887" departLane="free"/>
  <flow id="JF384434" begin="5240" fromJunction="J4" toJunction="J7" end="5300" vehsPerHour="159.5986853638723" departLane="free"/>
  <flow id="JF384435" begin="5240" fromJunction="J5" toJunction="J3" end="5300" vehsPerHour="164.73791688988288" departLane="free"/>
  <flow id="JF384436" begin="5240" fromJunction="J5" toJunction="J4" end="5300" vehsPerHour="207.299757218485" departLane="free"/>
  <flow id="JF384437" begin="5240" fromJunction="J5" toJunction="J6" end="5300" vehsPerHour="165.77475747329885" departLane="free"/>
  <flow id="JF384438" begin="5240" fromJunction="J5" toJunction="J7" end="5300" vehsPerHour="257.14001884491415" departLane="free"/>
  <flow id="JF384439" begin="5240" fromJunction="J6" toJunction="J0" end="5300" vehsPerHour="118.37574908179442" departLane="free"/>
  <flow id="JF384440" begin="5240" fromJunction="J6" toJunction="J3" end="5300" vehsPerHour="209.70736215662484" departLane="free"/>
  <flow id="JF384441" begin="5240" fromJunction="J6" toJunction="J4" end="5300" vehsPerHour="45.334048267464794" departLane="free"/>
  <flow id="JF384442" begin="5240" fromJunction="J7" toJunction="J3" end="5300" vehsPerHour="64.94701303145004" departLane="free"/>
  <flow id="JF384443" begin="5240" fromJunction="J7" toJunction="J4" end="5300" vehsPerHour="12.978065777667155" departLane="free"/>
  <flow id="JF384444" begin="5240" fromJunction="J7" toJunction="J5" end="5300" vehsPerHour="30.325630860105345" departLane="free"/>
  <flow id="JF384445" begin="5240" fromJunction="J7" toJunction="J6" end="5300" vehsPerHour="83.38425578839319" departLane="free"/>
  <flow id="JF384446" begin="5300" fromJunction="J0" toJunction="J3" end="5360" vehsPerHour="160.05780400805" departLane="free"/>
  <flow id="JF384447" begin="5300" fromJunction="J0" toJunction="J4" end="5360" vehsPerHour="424.4000563902076" departLane="free"/>
  <flow id="JF384448" begin="5300" fromJunction="J0" toJunction="J5" end="5360" vehsPerHour="113.8302727592855" departLane="free"/>
  <flow id="JF384449" begin="5300" fromJunction="J0" toJunction="J7" end="5360" vehsPerHour="212.26411834886747" departLane="free"/>
  <flow id="JF384450" begin="5300" fromJunction="J3" toJunction="J5" end="5360" vehsPerHour="218.0261232691872" departLane="free"/>
  <flow id="JF384451" begin="5300" fromJunction="J3" toJunction="J6" end="5360" vehsPerHour="446.88524818543885" departLane="free"/>
  <flow id="JF384452" begin="5300" fromJunction="J4" toJunction="J0" end="5360" vehsPerHour="221.07844272971627" departLane="free"/>
  <flow id="JF384453" begin="5300" fromJunction="J4" toJunction="J3" end="5360" vehsPerHour="130.56962269655125" departLane="free"/>
  <flow id="JF384454" begin="5300" fromJunction="J4" toJunction="J6" end="5360" vehsPerHour="102.40838436350876" departLane="free"/>
  <flow id="JF384455" begin="5300" fromJunction="J4" toJunction="J7" end="5360" vehsPerHour="1.8047637411608628" departLane="free"/>
  <flow id="JF384456" begin="5300" fromJunction="J5" toJunction="J0" end="5360" vehsPerHour="52.833202968557316" departLane="free"/>
  <flow id="JF384457" begin="5300" fromJunction="J5" toJunction="J3" end="5360" vehsPerHour="174.93908319387805" departLane="free"/>
  <flow id="JF384458" begin="5300" fromJunction="J5" toJunction="J6" end="5360" vehsPerHour="258.2108646802383" departLane="free"/>
  <flow id="JF384459" begin="5300" fromJunction="J5" toJunction="J7" end="5360" vehsPerHour="111.33188264051982" departLane="free"/>
  <flow id="JF384460" begin="5300" fromJunction="J6" toJunction="J4" end="5360" vehsPerHour="267.18097861459324" departLane="free"/>
  <flow id="JF384461" begin="5300" fromJunction="J6" toJunction="J7" end="5360" vehsPerHour="149.72204086328054" departLane="free"/>
  <flow id="JF384462" begin="5300" fromJunction="J7" toJunction="J3" end="5360" vehsPerHour="49.50179369884489" departLane="free"/>
  <flow id="JF384463" begin="5300" fromJunction="J7" toJunction="J4" end="5360" vehsPerHour="55.7716183480406" departLane="free"/>
  <flow id="JF384464" begin="5300" fromJunction="J7" toJunction="J5" end="5360" vehsPerHour="109.92315126212675" departLane="free"/>
  <flow id="JF384465" begin="5300" fromJunction="J7" toJunction="J6" end="5360" vehsPerHour="203.9571768909787" departLane="free"/>
  <flow id="JF384466" begin="5360" fromJunction="J0" toJunction="J3" end="5420" vehsPerHour="418.3665531689915" departLane="free"/>
  <flow id="JF384467" begin="5360" fromJunction="J0" toJunction="J4" end="5420" vehsPerHour="190.33746245635385" departLane="free"/>
  <flow id="JF384468" begin="5360" fromJunction="J0" toJunction="J5" end="5420" vehsPerHour="422.4403041122114" departLane="free"/>
  <flow id="JF384469" begin="5360" fromJunction="J0" toJunction="J7" end="5420" vehsPerHour="421.2633663428563" departLane="free"/>
  <flow id="JF384470" begin="5360" fromJunction="J3" toJunction="J0" end="5420" vehsPerHour="162.99906221854968" departLane="free"/>
  <flow id="JF384471" begin="5360" fromJunction="J3" toJunction="J4" end="5420" vehsPerHour="365.7531735442268" departLane="free"/>
  <flow id="JF384472" begin="5360" fromJunction="J3" toJunction="J5" end="5420" vehsPerHour="17.14476129956589" departLane="free"/>
  <flow id="JF384473" begin="5360" fromJunction="J3" toJunction="J7" end="5420" vehsPerHour="347.5280239576937" departLane="free"/>
  <flow id="JF384474" begin="5360" fromJunction="J4" toJunction="J0" end="5420" vehsPerHour="183.4174391102504" departLane="free"/>
  <flow id="JF384475" begin="5360" fromJunction="J4" toJunction="J3" end="5420" vehsPerHour="240.70060279560056" departLane="free"/>
  <flow id="JF384476" begin="5360" fromJunction="J4" toJunction="J5" end="5420" vehsPerHour="118.21254486929683" departLane="free"/>
  <flow id="JF384477" begin="5360" fromJunction="J4" toJunction="J6" end="5420" vehsPerHour="33.79153624035731" departLane="free"/>
  <flow id="JF384478" begin="5360" fromJunction="J4" toJunction="J7" end="5420" vehsPerHour="144.33185151114276" departLane="free"/>
  <flow id="JF384479" begin="5360" fromJunction="J5" toJunction="J3" end="5420" vehsPerHour="44.06954865226661" departLane="free"/>
  <flow id="JF384480" begin="5360" fromJunction="J5" toJunction="J6" end="5420" vehsPerHour="102.88169273778165" departLane="free"/>
  <flow id="JF384481" begin="5360" fromJunction="J6" toJunction="J0" end="5420" vehsPerHour="263.01497056532145" departLane="free"/>
  <flow id="JF384482" begin="5360" fromJunction="J7" toJunction="J0" end="5420" vehsPerHour="150.246599957258" departLane="free"/>
  <flow id="JF384483" begin="5360" fromJunction="J7" toJunction="J3" end="5420" vehsPerHour="191.83319689498634" departLane="free"/>
  <flow id="JF384484" begin="5360" fromJunction="J7" toJunction="J5" end="5420" vehsPerHour="254.32561849831916" departLane="free"/>
  <flow id="JF384485" begin="5420" fromJunction="J0" toJunction="J3" end="5480" vehsPerHour="525.384835657155" departLane="free"/>
  <flow id="JF384486" begin="5420" fromJunction="J0" toJunction="J4" end="5480" vehsPerHour="169.125834192482" departLane="free"/>
  <flow id="JF384487" begin="5420" fromJunction="J0" toJunction="J5" end="5480" vehsPerHour="417.3419301825177" departLane="free"/>
  <flow id="JF384488" begin="5420" fromJunction="J0" toJunction="J6" end="5480" vehsPerHour="0.5106527710768438" departLane="free"/>
  <flow id="JF384489" begin="5420" fromJunction="J0" toJunction="J7" end="5480" vehsPerHour="327.7481018402249" departLane="free"/>
  <flow id="JF384490" begin="5420" fromJunction="J3" toJunction="J0" end="5480" vehsPerHour="251.8736300407249" departLane="free"/>
  <flow id="JF384491" begin="5420" fromJunction="J3" toJunction="J4" end="5480" vehsPerHour="439.24635294119173" departLane="free"/>
  <flow id="JF384492" begin="5420" fromJunction="J3" toJunction="J5" end="5480" vehsPerHour="50.1847234421851" departLane="free"/>
  <flow id="JF384493" begin="5420" fromJunction="J3" toJunction="J7" end="5480" vehsPerHour="8.336914896893129" departLane="free"/>
  <flow id="JF384494" begin="5420" fromJunction="J4" toJunction="J0" end="5480" vehsPerHour="229.85456882519577" departLane="free"/>
  <flow id="JF384495" begin="5420" fromJunction="J4" toJunction="J3" end="5480" vehsPerHour="266.6523341001421" departLane="free"/>
  <flow id="JF384496" begin="5420" fromJunction="J4" toJunction="J5" end="5480" vehsPerHour="16.66626909570905" departLane="free"/>
  <flow id="JF384497" begin="5420" fromJunction="J4" toJunction="J6" end="5480" vehsPerHour="176.87977267117145" departLane="free"/>
  <flow id="JF384498" begin="5420" fromJunction="J4" toJunction="J7" end="5480" vehsPerHour="257.16989971066846" departLane="free"/>
  <flow id="JF384499" begin="5420" fromJunction="J5" toJunction="J3" end="5480" vehsPerHour="94.41314523381462" departLane="free"/>
  <flow id="JF384500" begin="5420" fromJunction="J5" toJunction="J4" end="5480" vehsPerHour="89.3146339792848" departLane="free"/>
  <flow id="JF384501" begin="5420" fromJunction="J5" toJunction="J6" end="5480" vehsPerHour="94.8305902376374" departLane="free"/>
  <flow id="JF384502" begin="5420" fromJunction="J6" toJunction="J0" end="5480" vehsPerHour="215.10928811521106" departLane="free"/>
  <flow id="JF384503" begin="5420" fromJunction="J6" toJunction="J3" end="5480" vehsPerHour="249.19554994685467" departLane="free"/>
  <flow id="JF384504" begin="5420" fromJunction="J6" toJunction="J5" end="5480" vehsPerHour="6.041713803120706" departLane="free"/>
  <flow id="JF384505" begin="5420" fromJunction="J7" toJunction="J0" end="5480" vehsPerHour="113.66497697351033" departLane="free"/>
  <flow id="JF384506" begin="5420" fromJunction="J7" toJunction="J3" end="5480" vehsPerHour="140.3780580854975" departLane="free"/>
  <flow id="JF384507" begin="5420" fromJunction="J7" toJunction="J4" end="5480" vehsPerHour="174.37823866262173" departLane="free"/>
  <flow id="JF384508" begin="5420" fromJunction="J7" toJunction="J5" end="5480" vehsPerHour="55.86185529069708" departLane="free"/>
  <flow id="JF384509" begin="5420" fromJunction="J7" toJunction="J6" end="5480" vehsPerHour="90.80592537477574" departLane="free"/>
  <flow id="JF384510" begin="5480" fromJunction="J0" toJunction="J3" end="5540" vehsPerHour="263.6855167884595" departLane="free"/>
  <flow id="JF384511" begin="5480" fromJunction="J0" toJunction="J4" end="5540" vehsPerHour="275.0191591328679" departLane="free"/>
  <flow id="JF384512" begin="5480" fromJunction="J0" toJunction="J5" end="5540" vehsPerHour="303.89196137395675" departLane="free"/>
  <flow id="JF384513" begin="5480" fromJunction="J0" toJunction="J6" end="5540" vehsPerHour="461.6590143491142" departLane="free"/>
  <flow id="JF384514" begin="5480" fromJunction="J3" toJunction="J0" end="5540" vehsPerHour="390.6185777077388" departLane="free"/>
  <flow id="JF384515" begin="5480" fromJunction="J3" toJunction="J4" end="5540" vehsPerHour="268.35495006923134" departLane="free"/>
  <flow id="JF384516" begin="5480" fromJunction="J3" toJunction="J5" end="5540" vehsPerHour="34.97219731361437" departLane="free"/>
  <flow id="JF384517" begin="5480" fromJunction="J3" toJunction="J6" end="5540" vehsPerHour="428.8282364856848" departLane="free"/>
  <flow id="JF384518" begin="5480" fromJunction="J3" toJunction="J7" end="5540" vehsPerHour="448.346005961561" departLane="free"/>
  <flow id="JF384519" begin="5480" fromJunction="J4" toJunction="J0" end="5540" vehsPerHour="257.1361031679716" departLane="free"/>
  <flow id="JF384520" begin="5480" fromJunction="J4" toJunction="J6" end="5540" vehsPerHour="223.41601411616497" departLane="free"/>
  <flow id="JF384521" begin="5480" fromJunction="J5" toJunction="J0" end="5540" vehsPerHour="94.45770428364438" departLane="free"/>
  <flow id="JF384522" begin="5480" fromJunction="J5" toJunction="J3" end="5540" vehsPerHour="64.74867845549161" departLane="free"/>
  <flow id="JF384523" begin="5480" fromJunction="J5" toJunction="J6" end="5540" vehsPerHour="259.7023397333" departLane="free"/>
  <flow id="JF384524" begin="5480" fromJunction="J5" toJunction="J7" end="5540" vehsPerHour="155.62458167183019" departLane="free"/>
  <flow id="JF384525" begin="5480" fromJunction="J6" toJunction="J0" end="5540" vehsPerHour="189.26128765626424" departLane="free"/>
  <flow id="JF384526" begin="5480" fromJunction="J6" toJunction="J4" end="5540" vehsPerHour="74.165811690791" departLane="free"/>
  <flow id="JF384527" begin="5480" fromJunction="J6" toJunction="J5" end="5540" vehsPerHour="266.65816196026856" departLane="free"/>