<?xml version="1.0" encoding="UTF-8"?>
<routes xmlns:xsi="http://www.w3.org/2001/XMLSchema-instance" xsi:noNamespaceSchemaLocation="http://sumo.dlr.de/xsd/routes_file.xsd">
  <flow id="JF52567" begin="0" fromJunction="J0" toJunction="J3" end="5000" vehsPerHour="231.38066581198" departLane="free"/>
  <flow id="JF52568" begin="0" fromJunction="J3" toJunction="J0" end="5000" vehsPerHour="408.96303632798714" departLane="free"/>
  <flow id="JF52569" begin="0" fromJunction="J0" toJunction="J6" end="5000" vehsPerHour="133.5276043366818" departLane="free"/>
  <flow id="JF52570" begin="0" fromJunction="J0" toJunction="J5" end="5000" vehsPerHour="27.09489139108003" departLane="free"/>
  <flow id="JF52571" begin="0" fromJunction="J0" toJunction="J7" end="5000" vehsPerHour="42.351491059701196" departLane="free"/>
  <flow id="JF52572" begin="0" fromJunction="J0" toJunction="J4" end="5000" vehsPerHour="99.83974653385887" departLane="free"/>
  <flow id="JF52573" begin="0" fromJunction="J3" toJunction="J6" end="5000" vehsPerHour="136.60697648470403" departLane="free"/>
  <flow id="JF52574" begin="0" fromJunction="J3" toJunction="J5" end="5000" vehsPerHour="106.99615748512886" departLane="free"/>
  <flow id="JF52575" begin="0" fromJunction="J3" toJunction="J7" end="5000" vehsPerHour="64.59175130968703" departLane="free"/>
  <flow id="JF52576" begin="0" fromJunction="J3" toJunction="J4" end="5000" vehsPerHour="56.1309159382849" departLane="free"/>
  <flow id="JF52577" begin="0" fromJunction="J6" toJunction="J5" end="5000" vehsPerHour="32.19444395370728" departLane="free"/>
  <flow id="JF52578" begin="0" fromJunction="J6" toJunction="J7" end="5000" vehsPerHour="58.390341336407104" departLane="free"/>
  <flow id="JF52579" begin="0" fromJunction="J6" toJunction="J4" end="5000" vehsPerHour="59.11266788353063" departLane="free"/>
  <flow id="JF52580" begin="0" fromJunction="J5" toJunction="J6" end="5000" vehsPerHour="1.1242146459520348" departLane="free"/>
  <flow id="JF52581" begin="0" fromJunction="J5" toJunction="J7" end="5000" vehsPerHour="10.427112297481251" departLane="free"/>
  <flow id="JF52582" begin="0" fromJunction="J5" toJunction="J4" end="5000" vehsPerHour="14.878688273998103" departLane="free"/>
  <flow id="JF52583" begin="0" fromJunction="J7" toJunction="J6" end="5000" vehsPerHour="32.23213211940462" departLane="free"/>
  <flow id="JF52584" begin="0" fromJunction="J7" toJunction="J5" end="5000" vehsPerHour="59.203149828336315" departLane="free"/>
  <flow id="JF52585" begin="0" fromJunction="J7" toJunction="J4" end="5000" vehsPerHour="54.55398619864508" departLane="free"/>
  <flow id="JF52586" begin="0" fromJunction="J4" toJunction="J6" end="5000" vehsPerHour="40.11175732546555" departLane="free"/>
  <flow id="JF52587" begin="0" fromJunction="J4" toJunction="J5" end="5000" vehsPerHour="46.998532186754666" departLane="free"/>
  <flow id="JF52588" begin="0" fromJunction="J4" toJunction="J7" end="5000" vehsPerHour="48.08577063759345" departLane="free"/>
  <flow id="JF52589" begin="0" fromJunction="J6" toJunction="J0" end="5000" vehsPerHour="63.4263064981425" departLane="free"/>
  <flow id="JF52590" begin="0" fromJunction="J6" toJunction="J3" end="5000" vehsPerHour="43.676324075615724" departLane="free"/>
  <flow id="JF52591" begin="0" fromJunction="J5" toJunction="J0" end="5000" vehsPerHour="2.793314220272079" departLane="free"/>
  <flow id="JF52592" begin="0" fromJunction="J5" toJunction="J3" end="5000" vehsPerHour="29.902193225716704" departLane="free"/>
  <flow id="JF52593" begin="0" fromJunction="J7" toJunction="J0" end="5000" vehsPerHour="26.911274841239475" departLane="free"/>
  <flow id="JF52594" begin="0" fromJunction="J7" toJunction="J3" end="5000" vehsPerHour="9.326350688627256" departLane="free"/>
  <flow id="JF52595" begin="0" fromJunction="J4" toJunction="J0" end="5000" vehsPerHour="21.712514722520382" departLane="free"/>
  <flow id="JF52596" begin="0" fromJunction="J4" toJunction="J3" end="5000" vehsPerHour="50.796176230610946" departLane="free"/>
  <flow id="JF52597" begin="5000" fromJunction="J0" toJunction="J3" end="5060" vehsPerHour="95.19491407855638" departLane="free"/>
  <flow id="JF52598" begin="5000" fromJunction="J0" toJunction="J4" end="5060" vehsPerHour="62.0008745153976" departLane="free"/>
  <flow id="JF52599" begin="5000" fromJunction="J0" toJunction="J6" end="5060" vehsPerHour="8.317119605676575" departLane="free"/>
  <flow id="JF52600" begin="5000" fromJunction="J0" toJunction="J7" end="5060" vehsPerHour="57.08877302093606" departLane="free"/>
  <flow id="JF52601" begin="5000" fromJunction="J3" toJunction="J4" end="5060" vehsPerHour="135.05520400862477" departLane="free"/>
  <flow id="JF52602" begin="5000" fromJunction="J3" toJunction="J6" end="5060" vehsPerHour="136.21911539270923" departLane="free"/>
  <flow id="JF52603" begin="5000" fromJunction="J3" toJunction="J7" end="5060" vehsPerHour="101.07858148208372" departLane="free"/>
  <flow id="JF52604" begin="5000" fromJunction="J4" toJunction="J0" end="5060" vehsPerHour="38.16583538552276" departLane="free"/>
  <flow id="JF52605" begin="5000" fromJunction="J4" toJunction="J3" end="5060" vehsPerHour="50.632963342394696" departLane="free"/>
  <flow id="JF52606" begin="5000" fromJunction="J4" toJunction="J6" end="5060" vehsPerHour="20.62525646749375" departLane="free"/>
  <flow id="JF52607" begin="5000" fromJunction="J4" toJunction="J7" end="5060" vehsPerHour="66.29285692364851" departLane="free"/>
  <flow id="JF52608" begin="5000" fromJunction="J5" toJunction="J0" end="5060" vehsPerHour="27.01855346048234" departLane="free"/>
  <flow id="JF52609" begin="5000" fromJunction="J6" toJunction="J0" end="5060" vehsPerHour="7.8378473577998795" departLane="free"/>
  <flow id="JF52610" begin="5000" fromJunction="J6" toJunction="J4" end="5060" vehsPerHour="29.64106489952317" departLane="free"/>
  <flow id="JF52611" begin="5000" fromJunction="J6" toJunction="J5" end="5060" vehsPerHour="27.14403840418518" departLane="free"/>
  <flow id="JF52612" begin="5000" fromJunction="J6" toJunction="J7" end="5060" vehsPerHour="15.074345456867167" departLane="free"/>
  <flow id="JF52613" begin="5000" fromJunction="J7" toJunction="J0" end="5060" vehsPerHour="22.41331951386329" departLane="free"/>
  <flow id="JF52614" begin="5000" fromJunction="J7" toJunction="J4" end="5060" vehsPerHour="38.42663993789384" departLane="free"/>
  <flow id="JF52615" begin="5000" fromJunction="J7" toJunction="J5" end="5060" vehsPerHour="65.71847353044613" departLane="free"/>
  <flow id="JF52616" begin="5000" fromJunction="J7" toJunction="J6" end="5060" vehsPerHour="35.004689282872285" departLane="free"/>
  <flow id="JF52617" begin="5060" fromJunction="J0" toJunction="J4" end="5120" vehsPerHour="104.28785339249002" departLane="free"/>
  <flow id="JF52618" begin="5060" fromJunction="J0" toJunction="J6" end="5120" vehsPerHour="77.0405165036445" departLane="free"/>
  <flow id="JF52619" begin="5060" fromJunction="J3" toJunction="J0" end="5120" vehsPerHour="80.99179798685715" departLane="free"/>
  <flow id="JF52620" begin="5060" fromJunction="J3" toJunction="J4" end="5120" vehsPerHour="48.43114602017861" departLane="free"/>
  <flow id="JF52621" begin="5060" fromJunction="J3" toJunction="J5" end="5120" vehsPerHour="117.46206620399063" departLane="free"/>
  <flow id="JF52622" begin="5060" fromJunction="J3" toJunction="J6" end="5120" vehsPerHour="101.56637934380355" departLane="free"/>
  <flow id="JF52623" begin="5060" fromJunction="J3" toJunction="J7" end="5120" vehsPerHour="91.60069263345743" departLane="free"/>
  <flow id="JF52624" begin="5060" fromJunction="J4" toJunction="J0" end="5120" vehsPerHour="21.495828213437846" departLane="free"/>
  <flow id="JF52625" begin="5060" fromJunction="J4" toJunction="J3" end="5120" vehsPerHour="8.365208393619909" departLane="free"/>
  <flow id="JF52626" begin="5060" fromJunction="J4" toJunction="J6" end="5120" vehsPerHour="56.245930217923835" departLane="free"/>
  <flow id="JF52627" begin="5060" fromJunction="J4" toJunction="J7" end="5120" vehsPerHour="65.04887725686471" departLane="free"/>
  <flow id="JF52628" begin="5060" fromJunction="J5" toJunction="J0" end="5120" vehsPerHour="37.02755825675088" departLane="free"/>
  <flow id="JF52629" begin="5060" fromJunction="J5" toJunction="J3" end="5120" vehsPerHour="37.775192439944966" departLane="free"/>
  <flow id="JF52630" begin="5060" fromJunction="J5" toJunction="J6" end="5120" vehsPerHour="57.62138752029477" departLane="free"/>
  <flow id="JF52631" begin="5060" fromJunction="J5" toJunction="J7" end="5120" vehsPerHour="51.675542884138316" departLane="free"/>
  <flow id="JF52632" begin="5060" fromJunction="J6" toJunction="J3" end="5120" vehsPerHour="31.804757609647467" departLane="free"/>
  <flow id="JF52633" begin="5060" fromJunction="J6" toJunction="J5" end="5120" vehsPerHour="35.25583292859253" departLane="free"/>
  <flow id="JF52634" begin="5060" fromJunction="J6" toJunction="J7" end="5120" vehsPerHour="50.036919863400456" departLane="free"/>
  <flow id="JF52635" begin="5060" fromJunction="J7" toJunction="J0" end="5120" vehsPerHour="45.667721238746644" departLane="free"/>
  <flow id="JF52636" begin="5060" fromJunction="J7" toJunction="J3" end="5120" vehsPerHour="16.81763905747323" departLane="free"/>
  <flow id="JF52637" begin="5060" fromJunction="J7" toJunction="J5" end="5120" vehsPerHour="49.81471180101905" departLane="free"/>
  <flow id="JF52638" begin="5060" fromJunction="J7" toJunction="J6" end="5120" vehsPerHour="31.616936576863658" departLane="free"/>
  <flow id="JF52639" begin="5120" fromJunction="J0" toJunction="J3" end="5180" vehsPerHour="131.1332838720202" departLane="free"/>
  <flow id="JF52640" begin="5120" fromJunction="J0" toJunction="J4" end="5180" vehsPerHour="101.90083902688086" departLane="free"/>
  <flow id="JF52641" begin="5120" fromJunction="J0" toJunction="J7" end="5180" vehsPerHour="95.86843906320047" departLane="free"/>
  <flow id="JF52642" begin="5120" fromJunction="J3" toJunction="J0" end="5180" vehsPerHour="132.09985801259558" departLane="free"/>
  <flow id="JF52643" begin="5120" fromJunction="J3" toJunction="J4" end="5180" vehsPerHour="57.48860087694909" departLane="free"/>
  <flow id="JF52644" begin="5120" fromJunction="J3" toJunction="J6" end="5180" vehsPerHour="12.49088240120642" departLane="free"/>
  <flow id="JF52645" begin="5120" fromJunction="J3" toJunction="J7" end="5180" vehsPerHour="32.486217638084" departLane="free"/>
  <flow id="JF52646" begin="5120" fromJunction="J4" toJunction="J0" end="5180" vehsPerHour="27.765499072555052" departLane="free"/>
  <flow id="JF52647" begin="5120" fromJunction="J4" toJunction="J3" end="5180" vehsPerHour="22.83206621312038" departLane="free"/>
  <flow id="JF52648" begin="5120" fromJunction="J4" toJunction="J5" end="5180" vehsPerHour="6.966509404289739" departLane="free"/>
  <flow id="JF52649" begin="5120" fromJunction="J4" toJunction="J6" end="5180" vehsPerHour="6.479358543123653" departLane="free"/>
  <flow id="JF52650" begin="5120" fromJunction="J5" toJunction="J0" end="5180" vehsPerHour="3.5916665411026854" departLane="free"/>
  <flow id="JF52651" begin="5120" fromJunction="J5" toJunction="J3" end="5180" vehsPerHour="27.94469570092553" departLane="free"/>
  <flow id="JF52652" begin="5120" fromJunction="J5" toJunction="J4" end="5180" vehsPerHour="51.39649716273758" departLane="free"/>
  <flow id="JF52653" begin="5120" fromJunction="J5" toJunction="J6" end="5180" vehsPerHour="50.00333524105083" departLane="free"/>
  <flow id="JF52654" begin="5120" fromJunction="J5" toJunction="J7" end="5180" vehsPerHour="42.046925660142385" departLane="free"/>
  <flow id="JF52655" begin="5120" fromJunction="J6" toJunction="J0" end="5180" vehsPerHour="26.169916722560277" departLane="free"/>
  <flow id="JF52656" begin="5120" fromJunction="J6" toJunction="J4" end="5180" vehsPerHour="65.93163956392941" departLane="free"/>
  <flow id="JF52657" begin="5120" fromJunction="J6" toJunction="J5" end="5180" vehsPerHour="0.18431631976651963" departLane="free"/>
  <flow id="JF52658" begin="5120" fromJunction="J7" toJunction="J0" end="5180" vehsPerHour="46.514075193905015" departLane="free"/>
  <flow id="JF52659" begin="5120" fromJunction="J7" toJunction="J3" end="5180" vehsPerHour="62.93903905892453" departLane="free"/>
  <flow id="JF52660" begin="5120" fromJunction="J7" toJunction="J6" end="5180" vehsPerHour="33.620542807780346" departLane="free"/>
  <flow id="JF52661" begin="5180" fromJunction="J0" toJunction="J3" end="5240" vehsPerHour="14.39455683433161" departLane="free"/>
  <flow id="JF52662" begin="5180" fromJunction="J0" toJunction="J4" end="5240" vehsPerHour="19.623598192043026" departLane="free"/>
  <flow id="JF52663" begin="5180" fromJunction="J0" toJunction="J6" end="5240" vehsPerHour="26.08854669071573" departLane="free"/>
  <flow id="JF52664" begin="5180" fromJunction="J0" toJunction="J7" end="5240" vehsPerHour="87.14579555826819" departLane="free"/>
  <flow id="JF52665" begin="5180" fromJunction="J3" toJunction="J0" end="5240" vehsPerHour="15.325247743171238" departLane="free"/>
  <flow id="JF52666" begin="5180" fromJunction="J3" toJunction="J4" end="5240" vehsPerHour="75.84480936354575" departLane="free"/>
  <flow id="JF52667" begin="5180" fromJunction="J3" toJunction="J5" end="5240" vehsPerHour="78.79045590552795" departLane="free"/>
  <flow id="JF52668" begin="5180" fromJunction="J4" toJunction="J0" end="5240" vehsPerHour="2.9450381494171247" departLane="free"/>
  <flow id="JF52669" begin="5180" fromJunction="J4" toJunction="J3" end="5240" vehsPerHour="12.208749722951163" departLane="free"/>
  <flow id="JF52670" begin="5180" fromJunction="J4" toJunction="J5" end="5240" vehsPerHour="13.889738221894879" departLane="free"/>
  <flow id="JF52671" begin="5180" fromJunction="J5" toJunction="J0" end="5240" vehsPerHour="63.449033925179904" departLane="free"/>
  <flow id="JF52672" begin="5180" fromJunction="J5" toJunction="J3" end="5240" vehsPerHour="53.355146755878145" departLane="free"/>
  <flow id="JF52673" begin="5180" fromJunction="J5" toJunction="J7" end="5240" vehsPerHour="12.000844965377789" departLane="free"/>
  <flow id="JF52674" begin="5180" fromJunction="J6" toJunction="J3" end="5240" vehsPerHour="42.18563410465335" departLane="free"/>
  <flow id="JF52675" begin="5180" fromJunction="J6" toJunction="J5" end="5240" vehsPerHour="45.25251473995546" departLane="free"/>
  <flow id="JF52676" begin="5180" fromJunction="J6" toJunction="J7" end="5240" vehsPerHour="35.60787593424656" departLane="free"/>
  <flow id="JF52677" begin="5180" fromJunction="J7" toJunction="J3" end="5240" vehsPerHour="10.65096223488332" departLane="free"/>
  <flow id="JF52678" begin="5180" fromJunction="J7" toJunction="J6" end="5240" vehsPerHour="51.70890011894398" departLane="free"/>
  <flow id="JF52679" begin="5240" fromJunction="J3" toJunction="J0" end="5300" vehsPerHour="125.78912050226482" departLane="free"/>
  <flow id="JF52680" begin="5240" fromJunction="J3" toJunction="J5" end="5300" vehsPerHour="26.13157678395095" departLane="free"/>
  <flow id="JF52681" begin="5240" fromJunction="J3" toJunction="J6" end="5300" vehsPerHour="52.2795459139992" departLane="free"/>
  <flow id="JF52682" begin="5240" fromJunction="J4" toJunction="J3" end="5300" vehsPerHour="1.144604345509535" departLane="free"/>
  <flow id="JF52683" begin="5240" fromJunction="J4" toJunction="J5" end="5300" vehsPerHour="61.73669429107763" departLane="free"/>
  <flow id="JF52684" begin="5240" fromJunction="J4" toJunction="J7" end="5300" vehsPerHour="15.360337878597052" departLane="free"/>
  <flow id="JF52685" begin="5240" fromJunction="J5" toJunction="J3" end="5300" vehsPerHour="14.912882642402256" departLane="free"/>
  <flow id="JF52686" begin="5240" fromJunction="J5" toJunction="J6" end="5300" vehsPerHour="31.814356300523702" departLane="free"/>
  <flow id="JF52687" begin="5240" fromJunction="J5" toJunction="J7" end="5300" vehsPerHour="23.397398931164684" departLane="free"/>
  <flow id="JF52688" begin="5240" fromJunction="J6" toJunction="J3" end="5300" vehsPerHour="28.378856167875" departLane="free"/>
  <flow id="JF52689" begin="5240" fromJunction="J6" toJunction="J4" end="5300" vehsPerHour="15.82119991363271" departLane="free"/>
  <flow id="JF52690" begin="5240" fromJunction="J6" toJunction="J7" end="5300" vehsPerHour="49.526316258313386" departLane="free"/>
  <flow id="JF52691" begin="5240" fromJunction="J7" toJunction="J0" end="5300" vehsPerHour="27.957406171501592" departLane="free"/>
  <flow id="JF52692" begin="5240" fromJunction="J7" toJunction="J3" end="5300" vehsPerHour="48.044307294831114" departLane="free"/>
  <flow id="JF52693" begin="5240" fromJunction="J7" toJunction="J4" end="5300" vehsPerHour="10.899342969553427" departLane="free"/>
  <flow id="JF52694" begin="5240" fromJunction="J7" toJunction="J5" end="5300" vehsPerHour="67.83581972560543" departLane="free"/>
  <flow id="JF52695" begin="5300" fromJunction="J0" toJunction="J5" end="5360" vehsPerHour="54.68748048068645" departLane="free"/>
  <flow id="JF52696" begin="5300" fromJunction="J0" toJunction="J6" end="5360" vehsPerHour="79.9199399677157" departLane="free"/>
  <flow id="JF52697" begin="5300" fromJunction="J0" toJunction="J7" end="5360" vehsPerHour="127.99750448941171" departLane="free"/>
  <flow id="JF52698" begin="5300" fromJunction="J3" toJunction="J0" end="5360" vehsPerHour="104.8464200024133" departLane="free"/>
  <flow id="JF52699" begin="5300" fromJunction="J3" toJunction="J4" end="5360" vehsPerHour="35.08580764457887" departLane="free"/>
  <flow id="JF52700" begin="5300" fromJunction="J3" toJunction="J5" end="5360" vehsPerHour="113.79800441061232" departLane="free"/>
  <flow id="JF52701" begin="5300" fromJunction="J4" toJunction="J0" end="5360" vehsPerHour="13.605870060099791" departLane="free"/>
  <flow id="JF52702" begin="5300" fromJunction="J4" toJunction="J3" end="5360" vehsPerHour="39.12093144117597" departLane="free"/>
  <flow id="JF52703" begin="5300" fromJunction="J4" toJunction="J6" end="5360" vehsPerHour="57.80691639007699" departLane="free"/>
  <flow id="JF52704" begin="5300" fromJunction="J4" toJunction="J7" end="5360" vehsPerHour="39.280626063891624" departLane="free"/>
  <flow id="JF52705" begin="5300" fromJunction="J5" toJunction="J3" end="5360" vehsPerHour="48.65749221013591" departLane="free"/>
  <flow id="JF52706" begin="5300" fromJunction="J5" toJunction="J4" end="5360" vehsPerHour="2.3323303337960866" departLane="free"/>
  <flow id="JF52707" begin="5300" fromJunction="J6" toJunction="J3" end="5360" vehsPerHour="12.070774502257507" departLane="free"/>
  <flow id="JF52708" begin="5300" fromJunction="J6" toJunction="J4" end="5360" vehsPerHour="44.319294593914634" departLane="free"/>
  <flow id="JF52709" begin="5300" fromJunction="J6" toJunction="J5" end="5360" vehsPerHour="41.62284251757811" departLane="free"/>
  <flow id="JF52710" begin="5300" fromJunction="J6" toJunction="J7" end="5360" vehsPerHour="37.25483311576391" departLane="free"/>
  <flow id="JF52711" begin="5300" fromJunction="J7" toJunction="J0" end="5360" vehsPerHour="27.21922675078979" departLane="free"/>
  <flow id="JF52712" begin="5300" fromJunction="J7" toJunction="J3" end="5360" vehsPerHour="49.27572217948234" departLane="free"/>
  <flow id="JF52713" begin="5300" fromJunction="J7" toJunction="J4" end="5360" vehsPerHour="41.27578072378737" departLane="free"/>
  <flow id="JF52714" begin="5300" fromJunction="J7" toJunction="J5" end="5360" vehsPerHour="43.04746251034754" departLane="free"/>
  <flow id="JF52715" begin="5360" fromJunction="J0" toJunction="J3" end="5420" vehsPerHour="61.23702434421075" departLane="free"/>
  <flow id="JF52716" begin="5360" fromJunction="J0" toJunction="J6" end="5420" vehsPerHour="48.762033270614495" departLane="free"/>
  <flow id="JF52717" begin="5360" fromJunction="J3" toJunction="J6" end="5420" vehsPerHour="9.450995165040606" departLane="free"/>
  <flow id="JF52718" begin="5360" fromJunction="J3" toJunction="J7" end="5420" vehsPerHour="79.20977526146508" departLane="free"/>
  <flow id="JF52719" begin="5360" fromJunction="J4" toJunction="J0" end="5420" vehsPerHour="29.76688623829127" departLane="free"/>
  <flow id="JF52720" begin="5360" fromJunction="J4" toJunction="J5" end="5420" vehsPerHour="55.52266104054994" departLane="free"/>
  <flow id="JF52721" begin="5360" fromJunction="J4" toJunction="J6" end="5420" vehsPerHour="36.770072391638536" departLane="free"/>
  <flow id="JF52722" begin="5360" fromJunction="J5" toJunction="J0" end="5420" vehsPerHour="60.590257566399956" departLane="free"/>
  <flow id="JF52723" begin="5360" fromJunction="J5" toJunction="J3" end="5420" vehsPerHour="0.9659412624388876" departLane="free"/>
  <flow id="JF52724" begin="5360" fromJunction="J5" toJunction="J4" end="5420" vehsPerHour="25.121838379799033" departLane="free"/>
  <flow id="JF52725" begin="5360" fromJunction="J5" toJunction="J6" end="5420" vehsPerHour="29.693297225295296" departLane="free"/>
  <flow id="JF52726" begin="5360" fromJunction="J5" toJunction="J7" end="5420" vehsPerHour="13.913004694316077" departLane="free"/>
  <flow id="JF52727" begin="5360" fromJunction="J6" toJunction="J0" end="5420" vehsPerHour="21.27631414426059" departLane="free"/>
  <flow id="JF52728" begin="5360" fromJunction="J6" toJunction="J3" end="5420" vehsPerHour="55.453722138349384" departLane="free"/>
  <flow id="JF52729" begin="5360" fromJunction="J7" toJunction="J0" end="5420" vehsPerHour="8.813334608600833" departLane="free"/>
  <flow id="JF52730" begin="5360" fromJunction="J7" toJunction="J5" end="5420" vehsPerHour="48.28377446721145" departLane="free"/>
  <flow id="JF52731" begin="5360" fromJunction="J7" toJunction="J6" end="5420" vehsPerHour="30.079619326073473" departLane="free"/>
  <flow id="JF52732" begin="5420" fromJunction="J0" toJunction="J4" end="5480" vehsPerHour="99.84921058527524" departLane="free"/>
  <flow id="JF52733" begin="5420" fromJunction="J0" toJunction="J5" end="5480" vehsPerHour="50.970286408064496" departLane="free"/>
  <flow id="JF52734" begin="5420" fromJunction="J0" toJunction="J6" end="5480" vehsPerHour="72.18027507374558" departLane="free"/>
  <flow id="JF52735" begin="5420" fromJunction="J3" toJunction="J5" end="5480" vehsPerHour="58.65705553752369" departLane="free"/>
  <flow id="JF52736" begin="5420" fromJunction="J3" toJunction="J7" end="5480" vehsPerHour="85.8404777103112" departLane="free"/>
  <flow id="JF52737" begin="5420" fromJunction="J4" toJunction="J0" end="5480" vehsPerHour="30.871475559226727" departLane="free"/>
  <flow id="JF52738" begin="5420" fromJunction="J4" toJunction="J3" end="5480" vehsPerHour="45.79657281828239" departLane="free"/>
  <flow id="JF52739" begin="5420" fromJunction="J4" toJunction="J5" end="5480" vehsPerHour="5.325684805749128" departLane="free"/>
  <flow id="JF52740" begin="5420" fromJunction="J4" toJunction="J7" end="5480" vehsPerHour="41.98451440844532" departLane="free"/>
  <flow id="JF52741" begin="5420" fromJunction="J5" toJunction="J0" end="5480" vehsPerHour="32.36325600190689" departLane="free"/>
  <flow id="JF52742" begin="5420" fromJunction="J5" toJunction="J4" end="5480" vehsPerHour="22.530012912993268" departLane="free"/>
  <flow id="JF52743" begin="5420" fromJunction="J5" toJunction="J6" end="5480" vehsPerHour="52.462224168406074" departLane="free"/>
  <flow id="JF52744" begin="5420" fromJunction="J6" toJunction="J0" end="5480" vehsPerHour="35.44985597906649" departLane="free"/>
  <flow id="JF52745" begin="5420" fromJunction="J6" toJunction="J3" end="5480" vehsPerHour="33.43307764518099" departLane="free"/>
  <flow id="JF52746" begin="5420" fromJunction="J6" toJunction="J4" end="5480" vehsPerHour="60.680084395079724" departLane="free"/>
  <flow id="JF52747" begin="5420" fromJunction="J7" toJunction="J5" end="5480" vehsPerHour="58.68558218243174" departLane="free"/>
  <flow id="JF52748" begin="5480" fromJunction="J0" toJunction="J4" end="5540" vehsPerHour="82.0426587280509" departLane="free"/>
  <flow id="JF52749" begin="5480" fromJunction="J0" toJunction="J5" end="5540" vehsPerHour="56.210249896087106" departLane="free"/>
  <flow id="JF52750" begin="5480" fromJunction="J0" toJunction="J6" end="5540" vehsPerHour="56.13196116370603" departLane="free"/>
  <flow id="JF52751" begin="5480" fromJunction="J3" toJunction="J0" end="5540" vehsPerHour="80.06266051463966" departLane="free"/>
  <flow id="JF52752" begin="5480" fromJunction="J3" toJunction="J4" end="5540" vehsPerHour="0.9527700050894747" departLane="free"/>
  <flow id="JF52753" begin="5480" fromJunction="J3" toJunction="J5" end="5540" vehsPerHour="82.05860692623013" departLane="free"/>
  <flow id="JF52754" begin="5480" fromJunction="J3" toJunction="J6" end="5540" vehsPerHour="82.32515347559345" departLane="free"/>
  <flow id="JF52755" begin="5480" fromJunction="J3" toJunction="J7" end="5540" vehsPerHour="80.95181919201876" departLane="free"/>
  <flow id="JF52756" begin="5480" fromJunction="J4" toJunction="J0" end="5540" vehsPerHour="4.926296936121006" departLane="free"/>
  <flow id="JF52757" begin="5480" fromJunction="J4" toJunction="J7" end="5540" vehsPerHour="12.238660997480657" departLane="free"/>
  <flow id="JF52758" begin="5480" fromJunction="J5" toJunction="J0" end="5540" vehsPerHour="42.55002591732512" departLane="free"/>
  <flow id="JF52759" begin="5480" fromJunction="J5" toJunction="J6" end="5540" vehsPerHour="41.34174781409006" departLane="free"/>
  <flow id="JF52760" begin="5480" fromJunction="J6" toJunction="J3" end="5540" vehsPerHour="53.654721611009315" departLane="free"/>
  <flow id="JF52761" begin="5480" fromJunction="J6" toJunction="J4" end="5540" vehsPerHour="46.458877567200844" departLane="free"/>
  <flow id="JF52762" begin="5480" fromJunction="J6" toJunction="J5" end="5540" vehsPerHour="20.350208937223865" departLane="free"/>
  <flow id="JF52763" begin="5480" fromJunction="J7" toJunction="J0" end="5540" vehsPerHour="9.283862247048052" departLane="free"/>
  <flow id="JF52764" begin="5480" fromJunction="J7" toJunction="J3" end="5540" vehsPerHour="11.184212694328533" departLane="free"/>
  <flow id="JF52765" begin="5480" fromJunction="J7" toJunction="J4" end="5540" vehsPerHour="35.291340871274656" departLane="free"/>
  <flow id="JF52766" begin="5540" fromJunction="J0" toJunction="J3" end="5600" vehsPerHour="125.07435498633593" departLane="free"/>
  <flow id="JF52767" begin="5540" fromJunction="J0" toJunction="J4" end="5600" vehsPerHour="126.62114296984319" departLane="free"/>
  <flow id="JF52768" begin="5540" fromJunction="J0" toJunction="J7" end="5600" vehsPerHour="80.20895742555395" departLane="free"/>
  <flow id="JF52769" begin="5540" fromJunction="J3" toJunction="J0" end="5600" vehsPerHour="79.45428645109402" departLane="free"/>
  <flow id="JF52770" begin="5540" fromJunction="J3" toJunction="J4" end="5600" vehsPerHour="91.98189823698073" departLane="free"/>
  <flow id="JF52771" begin="5540" fromJunction="J3" toJunction="J5" end="5600" vehsPerHour="18.46247661820589" departLane="free"/>
  <flow id="JF52772" begin="5540" fromJunction="J3" toJunction="J6" end="5600" vehsPerHour="24.70780960561144" departLane="free"/>
  <flow id="JF52773" begin="5540" fromJunction="J3" toJunction="J7" end="5600" vehsPerHour="72.80550954518502" departLane="free"/>
  <flow id="JF52774" begin="5540" fromJunction="J4" toJunction="J5" end="5600" vehsPerHour="66.11109822423064" departLane="free"/>
  <flow id="JF52775" begin="5540" fromJunction="J4" toJunction="J6" end="5600" vehsPerHour="15.086234027234651" departLane="free"/>
  <flow id="JF52776" begin="5540" fromJunction="J4" toJunction="J7" end="5600" vehsPerHour="53.24538923226129" departLane="free"/>
  <flow id="JF52777" begin="5540" fromJunction="J5" toJunction="J4" end="5600" vehsPerHour="13.409135173285216" departLane="free"/>
  <flow id="JF52778" begin="5540" fromJunction="J5" toJunction="J6" end="5600" vehsPerHour="61.12868145491854" departLane="free"/>
  <flow id="JF52779" begin="5540" fromJunction="J5" toJunction="J7" end="5600" vehsPerHour="25.026571728548678" departLane="free"/>
  <flow id="JF52780" begin="5540" fromJunction="J6" toJunction="J0" end="5600" vehsPerHour="53.11787823487891" departLane="free"/>
  <flow id="JF52781" begin="5540" fromJunction="J6" toJunction="J5" end="5600" vehsPerHour="29.40086895859102" departLane="free"/>
  <flow id="JF52782" begin="5540" fromJunction="J7" toJunction="J3" end="5600" vehsPerHour="46.39407692622152" departLane="free"/>
  <flow id="JF52783" begin="5540" fromJunction="J7" toJunction="J4" end="5600" vehsPerHour="31.979443241491225" departLane="free"/>
  <flow id="JF52784" begin="5540" fromJunction="J7" toJunction="J6" end="5600" vehsPerHour="9.341970209014605" departLane="free"/>
  <flow id="JF52785" begin="5600" fromJunction="J0" toJunction="J4" end="5660" vehsPerHour="32.72650700673926" departLane="free"/>
  <flow id="JF52786" begin="5600" fromJunction="J0" toJunction="J5" end="5660" vehsPerHour="109.74911317333778" departLane="free"/>
  <flow id="JF52787" begin="5600" fromJunction="J3" toJunction="J0" end="5660" vehsPerHour="126.22516212763206" departLane="free"/>
  <flow id="JF52788" begin="5600" fromJunction="J3" toJunction="J4" end="5660" vehsPerHour="104.82116443991717" departLane="free"/>
  <flow id="JF52789" begin="5600" fromJunction="J3" toJunction="J5" end="5660" vehsPerHour="114.66257141842448" departLane="free"/>
  <flow id="JF52790" begin="5600" fromJunction="J3" toJunction="J6" end="5660" vehsPerHour="15.429578394151498" departLane="free"/>
  <flow id="JF52791" begin="5600" fromJunction="J3" toJunction="J7" end="5660" vehsPerHour="108.46016875110908" departLane="free"/>
  <flow id="JF52792" begin="5600" fromJunction="J4" toJunction="J0" end="5660" vehsPerHour="50.73395138630149" departLane="free"/>
  <flow id="JF52793" begin="5600" fromJunction="J4" toJunction="J3" end="5660" vehsPerHour="43.935236845685324" departLane="free"/>