<?xml version="1.0" encoding="UTF-8"?>
<routes xmlns:xsi="http://www.w3.org/2001/XMLSchema-instance" xsi:noNamespaceSchemaLocation="http://sumo.dlr.de/xsd/routes_file.xsd">
  <flow id="JF80564" begin="0" fromJunction="J0" toJunction="J4" end="60" vehsPerHour="292.25887708845556" departLane="free" arrivalSpeed="0.0"/>
  <flow id="JF80565" begin="0" fromJunction="J0" toJunction="J6" end="60" vehsPerHour="521.2870435959737" departLane="free" arrivalSpeed="0.0"/>
  <flow id="JF80566" begin="0" fromJunction="J0" toJunction="J7" end="60" vehsPerHour="488.3250939944928" departLane="free" arrivalSpeed="0.0"/>
  <flow id="JF80567" begin="0" fromJunction="J3" toJunction="J0" end="60" vehsPerHour="57.28130148410065" departLane="free" arrivalSpeed="0.0"/>
  <flow id="JF80568" begin="0" fromJunction="J3" toJunction="J4" end="60" vehsPerHour="66.10392643753498" departLane="free" arrivalSpeed="0.0"/>
  <flow id="JF80569" begin="0" fromJunction="J3" toJunction="J5" end="60" vehsPerHour="363.5554554725613" departLane="free" arrivalSpeed="0.0"/>
  <flow id="JF80570" begin="0" fromJunction="J3" toJunction="J6" end="60" vehsPerHour="463.0320214725533" departLane="free" arrivalSpeed="0.0"/>
  <flow id="JF80571" begin="0" fromJunction="J4" toJunction="J0" end="60" vehsPerHour="96.18464058039463" departLane="free" arrivalSpeed="0.0"/>
  <flow id="JF80572" begin="0" fromJunction="J4" toJunction="J3" end="60" vehsPerHour="173.461401841432" departLane="free" arrivalSpeed="0.0"/>
  <flow id="JF80573" begin="0" fromJunction="J4" toJunction="J5" end="60" vehsPerHour="128.41048852083628" departLane="free" arrivalSpeed="0.0"/>
  <flow id="JF80574" begin="0" fromJunction="J4" toJunction="J7" end="60" vehsPerHour="119.41380501648543" departLane="free" arrivalSpeed="0.0"/>
  <flow id="JF80575" begin="0" fromJunction="J5" toJunction="J0" end="60" vehsPerHour="195.01176775478825" departLane="free" arrivalSpeed="0.0"/>
  <flow id="JF80576" begin="0" fromJunction="J5" toJunction="J7" end="60" vehsPerHour="0.6615367127111197" departLane="free" arrivalSpeed="0.0"/>
  <flow id="JF80577" begin="0" fromJunction="J6" toJunction="J0" end="60" vehsPerHour="98.31593626136964" departLane="free" arrivalSpeed="0.0"/>
  <flow id="JF80578" begin="0" fromJunction="J6" toJunction="J4" end="60" vehsPerHour="111.40194638232094" departLane="free" arrivalSpeed="0.0"/>
  <flow id="JF80579" begin="0" fromJunction="J6" toJunction="J5" end="60" vehsPerHour="217.96620764725338" departLane="free" arrivalSpeed="0.0"/>
  <flow id="JF80580" begin="0" fromJunction="J6" toJunction="J7" end="60" vehsPerHour="122.58591807104423" departLane="free" arrivalSpeed="0.0"/>
  <flow id="JF80581" begin="0" fromJunction="J7" toJunction="J0" end="60" vehsPerHour="181.64872889400715" departLane="free" arrivalSpeed="0.0"/>
  <flow id="JF80582" begin="0" fromJunction="J7" toJunction="J3" end="60" vehsPerHour="193.88760581922662" departLane="free" arrivalSpeed="0.0"/>
  <flow id="JF80583" begin="0" fromJunction="J7" toJunction="J4" end="60" vehsPerHour="32.779776565676386" departLane="free" arrivalSpeed="0.0"/>
  <flow id="JF80584" begin="0" fromJunction="J7" toJunction="J5" end="60" vehsPerHour="60.93447862698505" departLane="free" arrivalSpeed="0.0"/>
  <flow id="JF80585" begin="0" fromJunction="J7" toJunction="J6" end="60" vehsPerHour="203.1250952654575" departLane="free" arrivalSpeed="0.0"/>
  <flow id="JF80586" begin="60" fromJunction="J0" toJunction="J3" end="120" vehsPerHour="312.95275534366107" departLane="free" arrivalSpeed="0.0"/>
  <flow id="JF80587" begin="60" fromJunction="J0" toJunction="J4" end="120" vehsPerHour="238.15454223578595" departLane="free" arrivalSpeed="0.0"/>
  <flow id="JF80588" begin="60" fromJunction="J0" toJunction="J5" end="120" vehsPerHour="257.08833505396757" departLane="free" arrivalSpeed="0.0"/>
  <flow id="JF80589" begin="60" fromJunction="J0" toJunction="J6" end="120" vehsPerHour="335.18581129827106" departLane="free" arrivalSpeed="0.0"/>
  <flow id="JF80590" begin="60" fromJunction="J0" toJunction="J7" end="120" vehsPerHour="162.28335597328586" departLane="free" arrivalSpeed="0.0"/>
  <flow id="JF80591" begin="60" fromJunction="J3" toJunction="J5" end="120" vehsPerHour="216.26279362068132" departLane="free" arrivalSpeed="0.0"/>
  <flow id="JF80592" begin="60" fromJunction="J3" toJunction="J6" end="120" vehsPerHour="94.28408925751818" departLane="free" arrivalSpeed="0.0"/>
  <flow id="JF80593" begin="60" fromJunction="J3" toJunction="J7" end="120" vehsPerHour="106.7895012396162" departLane="free" arrivalSpeed="0.0"/>
  <flow id="JF80594" begin="60" fromJunction="J4" toJunction="J3" end="120" vehsPerHour="40.59044929616042" departLane="free" arrivalSpeed="0.0"/>
  <flow id="JF80595" begin="60" fromJunction="J4" toJunction="J5" end="120" vehsPerHour="236.2203725104368" departLane="free" arrivalSpeed="0.0"/>
  <flow id="JF80596" begin="60" fromJunction="J4" toJunction="J7" end="120" vehsPerHour="268.6133618327169" departLane="free" arrivalSpeed="0.0"/>
  <flow id="JF80597" begin="60" fromJunction="J5" toJunction="J0" end="120" vehsPerHour="228.35624306599297" departLane="free" arrivalSpeed="0.0"/>
  <flow id="JF80598" begin="60" fromJunction="J5" toJunction="J3" end="120" vehsPerHour="52.01706940770008" departLane="free" arrivalSpeed="0.0"/>
  <flow id="JF80599" begin="60" fromJunction="J6" toJunction="J3" end="120" vehsPerHour="9.883227489199028" departLane="free" arrivalSpeed="0.0"/>
  <flow id="JF80600" begin="60" fromJunction="J6" toJunction="J5" end="120" vehsPerHour="106.13210270263005" departLane="free" arrivalSpeed="0.0"/>
  <flow id="JF80601" begin="60" fromJunction="J6" toJunction="J7" end="120" vehsPerHour="13.842631512353487" departLane="free" arrivalSpeed="0.0"/>
  <flow id="JF80602" begin="60" fromJunction="J7" toJunction="J5" end="120" vehsPerHour="269.0809995522333" departLane="free" arrivalSpeed="0.0"/>
  <flow id="JF80603" begin="60" fromJunction="J7" toJunction="J6" end="120" vehsPerHour="144.5819920389513" departLane="free" arrivalSpeed="0.0"/>
  <flow id="JF80604" begin="120" fromJunction="J0" toJunction="J3" end="180" vehsPerHour="81.08505815006565" departLane="free" arrivalSpeed="0.0"/>
  <flow id="JF80605" begin="120" fromJunction="J0" toJunction="J4" end="180" vehsPerHour="284.67415135844095" departLane="free" arrivalSpeed="0.0"/>
  <flow id="JF80606" begin="120" fromJunction="J0" toJunction="J6" end="180" vehsPerHour="312.56491849269696" departLane="free" arrivalSpeed="0.0"/>
  <flow id="JF80607" begin="120" fromJunction="J0" toJunction="J7" end="180" vehsPerHour="338.65977815763597" departLane="free" arrivalSpeed="0.0"/>
  <flow id="JF80608" begin="120" fromJunction="J3" toJunction="J0" end="180" vehsPerHour="281.36189189834624" departLane="free" arrivalSpeed="0.0"/>
  <flow id="JF80609" begin="120" fromJunction="J3" toJunction="J4" end="180" vehsPerHour="539.4366711188618" departLane="free" arrivalSpeed="0.0"/>
  <flow id="JF80610" begin="120" fromJunction="J3" toJunction="J5" end="180" vehsPerHour="18.82179098812726" departLane="free" arrivalSpeed="0.0"/>
  <flow id="JF80611" begin="120" fromJunction="J3" toJunction="J6" end="180" vehsPerHour="411.9254988946701" departLane="free" arrivalSpeed="0.0"/>
  <flow id="JF80612" begin="120" fromJunction="J4" toJunction="J0" end="180" vehsPerHour="97.72939200575733" departLane="free" arrivalSpeed="0.0"/>
  <flow id="JF80613" begin="120" fromJunction="J4" toJunction="J5" end="180" vehsPerHour="69.63842055612619" departLane="free" arrivalSpeed="0.0"/>
  <flow id="JF80614" begin="120" fromJunction="J4" toJunction="J6" end="180" vehsPerHour="213.82812963985117" departLane="free" arrivalSpeed="0.0"/>
  <flow id="JF80615" begin="120" fromJunction="J5" toJunction="J4" end="180" vehsPerHour="36.89480560031296" departLane="free" arrivalSpeed="0.0"/>
  <flow id="JF80616" begin="120" fromJunction="J5" toJunction="J6" end="180" vehsPerHour="248.5903039747691" departLane="free" arrivalSpeed="0.0"/>
  <flow id="JF80617" begin="120" fromJunction="J6" toJunction="J0" end="180" vehsPerHour="227.0711904958451" departLane="free" arrivalSpeed="0.0"/>
  <flow id="JF80618" begin="120" fromJunction="J7" toJunction="J0" end="180" vehsPerHour="106.67836580004906" departLane="free" arrivalSpeed="0.0"/>
  <flow id="JF80619" begin="120" fromJunction="J7" toJunction="J3" end="180" vehsPerHour="232.70202465723767" departLane="free" arrivalSpeed="0.0"/>
  <flow id="JF80620" begin="120" fromJunction="J7" toJunction="J5" end="180" vehsPerHour="180.5239918666604" departLane="free" arrivalSpeed="0.0"/>
  <flow id="JF80621" begin="180" fromJunction="J0" toJunction="J3" end="240" vehsPerHour="367.09657841735736" departLane="free" arrivalSpeed="0.0"/>
  <flow id="JF80622" begin="180" fromJunction="J0" toJunction="J4" end="240" vehsPerHour="131.75402325174935" departLane="free" arrivalSpeed="0.0"/>
  <flow id="JF80623" begin="180" fromJunction="J0" toJunction="J5" end="240" vehsPerHour="22.664549267962347" departLane="free" arrivalSpeed="0.0"/>
  <flow id="JF80624" begin="180" fromJunction="J0" toJunction="J6" end="240" vehsPerHour="353.8521331332889" departLane="free" arrivalSpeed="0.0"/>
  <flow id="JF80625" begin="180" fromJunction="J0" toJunction="J7" end="240" vehsPerHour="279.6012123977471" departLane="free" arrivalSpeed="0.0"/>
  <flow id="JF80626" begin="180" fromJunction="J3" toJunction="J4" end="240" vehsPerHour="56.865192787102195" departLane="free" arrivalSpeed="0.0"/>
  <flow id="JF80627" begin="180" fromJunction="J3" toJunction="J5" end="240" vehsPerHour="152.2092534569044" departLane="free" arrivalSpeed="0.0"/>
  <flow id="JF80628" begin="180" fromJunction="J3" toJunction="J6" end="240" vehsPerHour="224.82275870747517" departLane="free" arrivalSpeed="0.0"/>
  <flow id="JF80629" begin="180" fromJunction="J3" toJunction="J7" end="240" vehsPerHour="297.6359303048117" departLane="free" arrivalSpeed="0.0"/>
  <flow id="JF80630" begin="180" fromJunction="J4" toJunction="J0" end="240" vehsPerHour="19.687477546812154" departLane="free" arrivalSpeed="0.0"/>
  <flow id="JF80631" begin="180" fromJunction="J4" toJunction="J3" end="240" vehsPerHour="171.87216798460489" departLane="free" arrivalSpeed="0.0"/>
  <flow id="JF80632" begin="180" fromJunction="J4" toJunction="J5" end="240" vehsPerHour="196.72669643408574" departLane="free" arrivalSpeed="0.0"/>
  <flow id="JF80633" begin="180" fromJunction="J4" toJunction="J6" end="240" vehsPerHour="88.3594215664608" departLane="free" arrivalSpeed="0.0"/>
  <flow id="JF80634" begin="180" fromJunction="J4" toJunction="J7" end="240" vehsPerHour="189.41043480649097" departLane="free" arrivalSpeed="0.0"/>
  <flow id="JF80635" begin="180" fromJunction="J5" toJunction="J0" end="240" vehsPerHour="239.49931109296529" departLane="free" arrivalSpeed="0.0"/>
  <flow id="JF80636" begin="180" fromJunction="J5" toJunction="J6" end="240" vehsPerHour="43.05966320818178" departLane="free" arrivalSpeed="0.0"/>
  <flow id="JF80637" begin="180" fromJunction="J5" toJunction="J7" end="240" vehsPerHour="220.88192436971426" departLane="free" arrivalSpeed="0.0"/>
  <flow id="JF80638" begin="180" fromJunction="J6" toJunction="J3" end="240" vehsPerHour="225.77678645937488" departLane="free" arrivalSpeed="0.0"/>
  <flow id="JF80639" begin="180" fromJunction="J6" toJunction="J4" end="240" vehsPerHour="76.16458034182261" departLane="free" arrivalSpeed="0.0"/>
  <flow id="JF80640" begin="180" fromJunction="J6" toJunction="J7" end="240" vehsPerHour="237.57208445784073" departLane="free" arrivalSpeed="0.0"/>
  <flow id="JF80641" begin="180" fromJunction="J7" toJunction="J0" end="240" vehsPerHour="127.49832452923604" departLane="free" arrivalSpeed="0.0"/>
  <flow id="JF80642" begin="180" fromJunction="J7" toJunction="J3" end="240" vehsPerHour="138.65704998523898" departLane="free" arrivalSpeed="0.0"/>
  <flow id="JF80643" begin="180" fromJunction="J7" toJunction="J5" end="240" vehsPerHour="125.75260473753323" departLane="free" arrivalSpeed="0.0"/>
  <flow id="JF80644" begin="180" fromJunction="J7" toJunction="J6" end="240" vehsPerHour="78.84181950991128" departLane="free" arrivalSpeed="0.0"/>
  <flow id="JF80645" begin="240" fromJunction="J0" toJunction="J3" end="300" vehsPerHour="543.9756769898452" departLane="free" arrivalSpeed="0.0"/>
  <flow id="JF80646" begin="240" fromJunction="J0" toJunction="J4" end="300" vehsPerHour="488.87883644064647" departLane="free" arrivalSpeed="0.0"/>
  <flow id="JF80647" begin="240" fromJunction="J0" toJunction="J5" end="300" vehsPerHour="27.272260260673175" departLane="free" arrivalSpeed="0.0"/>
  <flow id="JF80648" begin="240" fromJunction="J0" toJunction="J6" end="300" vehsPerHour="244.10564233715442" departLane="free" arrivalSpeed="0.0"/>
  <flow id="JF80649" begin="240" fromJunction="J3" toJunction="J4" end="300" vehsPerHour="275.8185724912617" departLane="free" arrivalSpeed="0.0"/>
  <flow id="JF80650" begin="240" fromJunction="J3" toJunction="J5" end="300" vehsPerHour="89.96713812533893" departLane="free" arrivalSpeed="0.0"/>
  <flow id="JF80651" begin="240" fromJunction="J3" toJunction="J6" end="300" vehsPerHour="29.351878654603208" departLane="free" arrivalSpeed="0.0"/>
  <flow id="JF80652" begin="240" fromJunction="J3" toJunction="J7" end="300" vehsPerHour="166.89464390225075" departLane="free" arrivalSpeed="0.0"/>
  <flow id="JF80653" begin="240" fromJunction="J4" toJunction="J3" end="300" vehsPerHour="203.7967952973717" departLane="free" arrivalSpeed="0.0"/>
  <flow id="JF80654" begin="240" fromJunction="J4" toJunction="J5" end="300" vehsPerHour="84.39760228143473" departLane="free" arrivalSpeed="0.0"/>
  <flow id="JF80655" begin="240" fromJunction="J4" toJunction="J7" end="300" vehsPerHour="180.001628743566" departLane="free" arrivalSpeed="0.0"/>
  <flow id="JF80656" begin="240" fromJunction="J5" toJunction="J0" end="300" vehsPerHour="272.85470929093157" departLane="free" arrivalSpeed="0.0"/>
  <flow id="JF80657" begin="240" fromJunction="J5" toJunction="J3" end="300" vehsPerHour="220.4560495991256" departLane="free" arrivalSpeed="0.0"/>
  <flow id="JF80658" begin="240" fromJunction="J5" toJunction="J4" end="300" vehsPerHour="119.46819525501031" departLane="free" arrivalSpeed="0.0"/>
  <flow id="JF80659" begin="240" fromJunction="J5" toJunction="J6" end="300" vehsPerHour="217.42384363141" departLane="free" arrivalSpeed="0.0"/>
  <flow id="JF80660" begin="240" fromJunction="J5" toJunction="J7" end="300" vehsPerHour="123.7267423525825" departLane="free" arrivalSpeed="0.0"/>
  <flow id="JF80661" begin="240" fromJunction="J6" toJunction="J0" end="300" vehsPerHour="38.06663082270157" departLane="free" arrivalSpeed="0.0"/>
  <flow id="JF80662" begin="240" fromJunction="J6" toJunction="J3" end="300" vehsPerHour="252.2329811958223" departLane="free" arrivalSpeed="0.0"/>
  <flow id="JF80663" begin="240" fromJunction="J6" toJunction="J4" end="300" vehsPerHour="123.09118481796212" departLane="free" arrivalSpeed="0.0"/>
  <flow id="JF80664" begin="240" fromJunction="J6" toJunction="J5" end="300" vehsPerHour="119.77976089758482" departLane="free" arrivalSpeed="0.0"/>
  <flow id="JF80665" begin="240" fromJunction="J6" toJunction="J7" end="300" vehsPerHour="177.44031535267516" departLane="free" arrivalSpeed="0.0"/>
  <flow id="JF80666" begin="240" fromJunction="J7" toJunction="J0" end="300" vehsPerHour="29.802304258533837" departLane="free" arrivalSpeed="0.0"/>
  <flow id="JF80667" begin="240" fromJunction="J7" toJunction="J3" end="300" vehsPerHour="100.35500887048735" departLane="free" arrivalSpeed="0.0"/>
  <flow id="JF80668" begin="240" fromJunction="J7" toJunction="J6" end="300" vehsPerHour="152.90990755966558" departLane="free" arrivalSpeed="0.0"/>
  <flow id="JF80669" begin="300" fromJunction="J0" toJunction="J3" end="360" vehsPerHour="215.67840164508635" departLane="free" arrivalSpeed="0.0"/>
  <flow id="JF80670" begin="300" fromJunction="J0" toJunction="J4" end="360" vehsPerHour="111.3530003139442" departLane="free" arrivalSpeed="0.0"/>
  <flow id="JF80671" begin="300" fromJunction="J0" toJunction="J5" end="360" vehsPerHour="402.7023470824382" departLane="free" arrivalSpeed="0.0"/>
  <flow id="JF80672" begin="300" fromJunction="J0" toJunction="J7" end="360" vehsPerHour="10.53313565772786" departLane="free" arrivalSpeed="0.0"/>
  <flow id="JF80673" begin="300" fromJunction="J3" toJunction="J4" end="360" vehsPerHour="534.098889389452" departLane="free" arrivalSpeed="0.0"/>
  <flow id="JF80674" begin="300" fromJunction="J3" toJunction="J5" end="360" vehsPerHour="411.37292446601987" departLane="free" arrivalSpeed="0.0"/>
  <flow id="JF80675" begin="300" fromJunction="J3" toJunction="J6" end="360" vehsPerHour="175.43281355911918" departLane="free" arrivalSpeed="0.0"/>
  <flow id="JF80676" begin="300" fromJunction="J3" toJunction="J7" end="360" vehsPerHour="304.86611746723156" departLane="free" arrivalSpeed="0.0"/>
  <flow id="JF80677" begin="300" fromJunction="J4" toJunction="J0" end="360" vehsPerHour="76.13327338152996" departLane="free" arrivalSpeed="0.0"/>
  <flow id="JF80678" begin="300" fromJunction="J4" toJunction="J5" end="360" vehsPerHour="128.80615915759293" departLane="free" arrivalSpeed="0.0"/>
  <flow id="JF80679" begin="300" fromJunction="J4" toJunction="J7" end="360" vehsPerHour="220.08476070806876" departLane="free" arrivalSpeed="0.0"/>
  <flow id="JF80680" begin="300" fromJunction="J5" toJunction="J0" end="360" vehsPerHour="274.51587219619927" departLane="free" arrivalSpeed="0.0"/>
  <flow id="JF80681" begin="300" fromJunction="J5" toJunction="J3" end="360" vehsPerHour="216.80530320949848" departLane="free" arrivalSpeed="0.0"/>
  <flow id="JF80682" begin="300" fromJunction="J5" toJunction="J6" end="360" vehsPerHour="155.10462869213535" departLane="free" arrivalSpeed="0.0"/>
  <flow id="JF80683" begin="300" fromJunction="J5" toJunction="J7" end="360" vehsPerHour="37.918881422285736" departLane="free" arrivalSpeed="0.0"/>
  <flow id="JF80684" begin="300" fromJunction="J6" toJunction="J0" end="360" vehsPerHour="12.887876074401527" departLane="free" arrivalSpeed="0.0"/>
  <flow id="JF80685" begin="300" fromJunction="J6" toJunction="J3" end="360" vehsPerHour="58.305396853413" departLane="free" arrivalSpeed="0.0"/>
  <flow id="JF80686" begin="300" fromJunction="J6" toJunction="J4" end="360" vehsPerHour="211.3291980500563" departLane="free" arrivalSpeed="0.0"/>
  <flow id="JF80687" begin="300" fromJunction="J6" toJunction="J5" end="360" vehsPerHour="47.59910706390862" departLane="free" arrivalSpeed="0.0"/>
  <flow id="JF80688" begin="300" fromJunction="J7" toJunction="J0" end="360" vehsPerHour="40.38555012280181" departLane="free" arrivalSpeed="0.0"/>
  <flow id="JF80689" begin="300" fromJunction="J7" toJunction="J3" end="360" vehsPerHour="79.4323173474131" departLane="free" arrivalSpeed="0.0"/>
  <flow id="JF80690" begin="300" fromJunction="J7" toJunction="J4" end="360" vehsPerHour="122.06212878911725" departLane="free" arrivalSpeed="0.0"/>
  <flow id="JF80691" begin="300" fromJunction="J7" toJunction="J5" end="360" vehsPerHour="176.13854366971307" departLane="free" arrivalSpeed="0.0"/>
  <flow id="JF80692" begin="300" fromJunction="J7" toJunction="J6" end="360" vehsPerHour="20.806460548291057" departLane="free" arrivalSpeed="0.0"/>
  <flow id="JF80693" begin="360" fromJunction="J0" toJunction="J3" end="420" vehsPerHour="203.43753619131397" departLane="free" arrivalSpeed="0.0"/>
  <flow id="JF80694" begin="360" fromJunction="J0" toJunction="J4" end="420" vehsPerHour="129.47550917190162" departLane="free" arrivalSpeed="0.0"/>
  <flow id="JF80695" begin="360" fromJunction="J0" toJunction="J5" end="420" vehsPerHour="182.2185337656311" departLane="free" arrivalSpeed="0.0"/>
  <flow id="JF80696" begin="360" fromJunction="J0" toJunction="J7" end="420" vehsPerHour="114.29119694976681" departLane="free" arrivalSpeed="0.0"/>
  <flow id="JF80697" begin="360" fromJunction="J3" toJunction="J4" end="420" vehsPerHour="477.53956995746944" departLane="free" arrivalSpeed="0.0"/>
  <flow id="JF80698" begin="360" fromJunction="J3" toJunction="J6" end="420" vehsPerHour="436.3166827682446" departLane="free" arrivalSpeed="0.0"/>
  <flow id="JF80699" begin="360" fromJunction="J3" toJunction="J7" end="420" vehsPerHour="139.79699452659213" departLane="free" arrivalSpeed="0.0"/>
  <flow id="JF80700" begin="360" fromJunction="J4" toJunction="J0" end="420" vehsPerHour="173.92486121042438" departLane="free" arrivalSpeed="0.0"/>
  <flow id="JF80701" begin="360" fromJunction="J4" toJunction="J3" end="420" vehsPerHour="198.08658978863352" departLane="free" arrivalSpeed="0.0"/>
  <flow id="JF80702" begin="360" fromJunction="J4" toJunction="J5" end="420" vehsPerHour="227.5740078829605" departLane="free" arrivalSpeed="0.0"/>
  <flow id="JF80703" begin="360" fromJunction="J4" toJunction="J6" end="420" vehsPerHour="13.327220673133727" departLane="free" arrivalSpeed="0.0"/>
  <flow id="JF80704" begin="360" fromJunction="J4" toJunction="J7" end="420" vehsPerHour="111.85933791647824" departLane="free" arrivalSpeed="0.0"/>
  <flow id="JF80705" begin="360" fromJunction="J5" toJunction="J0" end="420" vehsPerHour="119.78951213502862" departLane="free" arrivalSpeed="0.0"/>
  <flow id="JF80706" begin="360" fromJunction="J5" toJunction="J3" end="420" vehsPerHour="27.62157839259807" departLane="free" arrivalSpeed="0.0"/>
  <flow id="JF80707" begin="360" fromJunction="J5" toJunction="J4" end="420" vehsPerHour="55.739829519771966" departLane="free" arrivalSpeed="0.0"/>
  <flow id="JF80708" begin="360" fromJunction="J5" toJunction="J6" end="420" vehsPerHour="216.86334845640036" departLane="free" arrivalSpeed="0.0"/>
  <flow id="JF80709" begin="360" fromJunction="J6" toJunction="J0" end="420" vehsPerHour="105.07676040803908" departLane="free" arrivalSpeed="0.0"/>
  <flow id="JF80710" begin="360" fromJunction="J6" toJunction="J3" end="420" vehsPerHour="118.95337637514855" departLane="free" arrivalSpeed="0.0"/>
  <flow id="JF80711" begin="360" fromJunction="J6" toJunction="J4" end="420" vehsPerHour="176.41242529781942" departLane="free" arrivalSpeed="0.0"/>
  <flow id="JF80712" begin="360" fromJunction="J6" toJunction="J5" end="420" vehsPerHour="1.560784507261015" departLane="free" arrivalSpeed="0.0"/>
  <flow id="JF80713" begin="360" fromJunction="J6" toJunction="J7" end="420" vehsPerHour="243.7424816352867" departLane="free" arrivalSpeed="0.0"/>
  <flow id="JF80714" begin="360" fromJunction="J7" toJunction="J4" end="420" vehsPerHour="187.26479693309184" departLane="free" arrivalSpeed="0.0"/>
  <flow id="JF80715" begin="360" fromJunction="J7" toJunction="J5" end="420" vehsPerHour="69.29295911152087" departLane="free" arrivalSpeed="0.0"/>
  <flow id="JF80716" begin="420" fromJunction="J0" toJunction="J3" end="480" vehsPerHour="533.8375716983528" departLane="free" arrivalSpeed="0.0"/>
  <flow id="JF80717" begin="420" fromJunction="J0" toJunction="J4" end="480" vehsPerHour="110.42973786096967" departLane="free" arrivalSpeed="0.0"/>
  <flow id="JF80718" begin="420" fromJunction="J0" toJunction="J5" end="480" vehsPerHour="189.6649353689487" departLane="free" arrivalSpeed="0.0"/>
  <flow id="JF80719" begin="420" fromJunction="J3" toJunction="J4" end="480" vehsPerHour="385.9743881666186" departLane="free" arrivalSpeed="0.0"/>
  <flow id="JF80720" begin="420" fromJunction="J3" toJunction="J5" end="480" vehsPerHour="331.248643366658" departLane="free" arrivalSpeed="0.0"/>
  <flow id="JF80721" begin="420" fromJunction="J3" toJunction="J6" end="480" vehsPerHour="405.4360201845633" departLane="free" arrivalSpeed="0.0"/>
  <flow id="JF80722" begin="420" fromJunction="J3" toJunction="J7" end="480" vehsPerHour="124.74536088541986" departLane="free" arrivalSpeed="0.0"/>
  <flow id="JF80723" begin="420" fromJunction="J4" toJunction="J0" end="480" vehsPerHour="241.7052470409644" departLane="free" arrivalSpeed="0.0"/>
  <flow id="JF80724" begin="420" fromJunction="J4" toJunction="J3" end="480" vehsPerHour="209.85339158446342" departLane="free" arrivalSpeed="0.0"/>
  <flow id="JF80725" begin="420" fromJunction="J4" toJunction="J5" end="480" vehsPerHour="25.255980452129144" departLane="free" arrivalSpeed="0.0"/>
  <flow id="JF80726" begin="420" fromJunction="J4" toJunction="J6" end="480" vehsPerHour="127.96695605429964" departLane="free" arrivalSpeed="0.0"/>
  <flow id="JF80727" begin="420" fromJunction="J5" toJunction="J0" end="480" vehsPerHour="140.92474036909172" departLane="free" arrivalSpeed="0.0"/>
  <flow id="JF80728" begin="420" fromJunction="J5" toJunction="J3" end="480" vehsPerHour="248.52966409991836" departLane="free" arrivalSpeed="0.0"/>
  <flow id="JF80729" begin="420" fromJunction="J5" toJunction="J4" end="480" vehsPerHour="145.98257403814029" departLane="free" arrivalSpeed="0.0"/>
  <flow id="JF80730" begin="420" fromJunction="J5" toJunction="J6" end="480" vehsPerHour="151.901666687075" departLane="free" arrivalSpeed="0.0"/>
  <flow id="JF80731" begin="420" fromJunction="J5" toJunction="J7" end="480" vehsPerHour="64.96870120891485" departLane="free" arrivalSpeed="0.0"/>
  <flow id="JF80732" begin="420" fromJunction="J6" toJunction="J0" end="480" vehsPerHour="106.45861875507292" departLane="free" arrivalSpeed="0.0"/>
  <flow id="JF80733" begin="420" fromJunction="J6" toJunction="J4" end="480" vehsPerHour="77.5348743956455" departLane="free" arrivalSpeed="0.0"/>
  <flow id="JF80734" begin="420" fromJunction="J6" toJunction="J7" end="480" vehsPerHour="160.17922765353174" departLane="free" arrivalSpeed="0.0"/>
  <flow id="JF80735" begin="420" fromJunction="J7" toJunction="J0" end="480" vehsPerHour="75.64280577402273" departLane="free" arrivalSpeed="0.0"/>
  <flow id="JF80736" begin="420" fromJunction="J7" toJunction="J4" end="480" vehsPerHour="109.32125351655691" departLane="free" arrivalSpeed="0.0"/>
  <flow id="JF80737" begin="420" fromJunction="J7" toJunction="J6" end="480" vehsPerHour="131.23445904974167" departLane="free" arrivalSpeed="0.0"/>
  <flow id="JF80738" begin="480" fromJunction="J0" toJunction="J3" end="540" vehsPerHour="470.1672993034893" departLane="free" arrivalSpeed="0.0"/>
  <flow id="JF80739" begin="480" fromJunction="J0" toJunction="J5" end="540" vehsPerHour="380.10028818020294" departLane="free" arrivalSpeed="0.0"/>
  <flow id="JF80740" begin="480" fromJunction="J0" toJunction="J7" end="540" vehsPerHour="534.3973392065765" departLane="free" arrivalSpeed="0.0"/>
  <flow id="JF80741" begin="480" fromJunction="J3" toJunction="J0" end="540" vehsPerHour="20.539243017366108" departLane="free" arrivalSpeed="0.0"/>
  <flow id="JF80742" begin="480" fromJunction="J3" toJunction="J4" end="540" vehsPerHour="539.7133786380076" departLane="free" arrivalSpeed="0.0"/>
  <flow id="JF80743" begin="480" fromJunction="J3" toJunction="J6" end="540" vehsPerHour="15.321464577308397" departLane="free" arrivalSpeed="0.0"/>
  <flow id="JF80744" begin="480" fromJunction="J3" toJunction="J7" end="540" vehsPerHour="6.195062839790453" departLane="free" arrivalSpeed="0.0"/>
  <flow id="JF80745" begin="480" fromJunction="J4" toJunction="J0" end="540" vehsPerHour="42.46631002223587" departLane="free" arrivalSpeed="0.0"/>
  <flow id="JF80746" begin="480" fromJunction="J4" toJunction="J3" end="540" vehsPerHour="146.9201589898846" departLane="free" arrivalSpeed="0.0"/>
  <flow id="JF80747" begin="480" fromJunction="J4" toJunction="J6" end="540" vehsPerHour="204.78502204233135" departLane="free" arrivalSpeed="0.0"/>
  <flow id="JF80748" begin="480" fromJunction="J4" toJunction="J7" end="540" vehsPerHour="220.2369813265928" departLane="free" arrivalSpeed="0.0"/>
  <flow id="JF80749" begin="480" fromJunction="J5" toJunction="J0" end="540" vehsPerHour="212.15750253747566" departLane="free" arrivalSpeed="0.0"/>
  <flow id="JF80750" begin="480" fromJunction="J5" toJunction="J6" end="540" vehsPerHour="81.18420005986891" departLane="free" arrivalSpeed="0.0"/>
  <flow id="JF80751" begin="480" fromJunction="J5" toJunction="J7" end="540" vehsPerHour="194.16980646209194" departLane="free" arrivalSpeed="0.0"/>
  <flow id="JF80752" begin="480" fromJunction="J6" toJunction="J0" end="540" vehsPerHour="223.8068854052526" departLane="free" arrivalSpeed="0.0"/>
  <flow id="JF80753" begin="480" fromJunction="J6" toJunction="J3" end="540" vehsPerHour="257.27660001888836" departLane="free" arrivalSpeed="0.0"/>
  <flow id="JF80754" begin="480" fromJunction="J6" toJunction="J4" end="540" vehsPerHour="69.2876701305834" departLane="free" arrivalSpeed="0.0"/>
  <flow id="JF80755" begin="480" fromJunction="J6" toJunction="J5" end="540" vehsPerHour="269.44908493484445" departLane="free" arrivalSpeed="0.0"/>
  <flow id="JF80756" begin="480" fromJunction="J6" toJunction="J7" end="540" vehsPerHour="247.75161539884903" departLane="free" arrivalSpeed="0.0"/>
  <flow id="JF80757" begin="480" fromJunction="J7" toJunction="J0" end="540" vehsPerHour="90.45824372011565" departLane="free" arrivalSpeed="0.0"/>
  <flow id="JF80758" begin="480" fromJunction="J7" toJunction="J3" end="540" vehsPerHour="157.80325879163058" departLane="free" arrivalSpeed="0.0"/>
  <flow id="JF80759" begin="480" fromJunction="J7" toJunction="J4" end="540" vehsPerHour="206.7552745589687" departLane="free" arrivalSpeed="0.0"/>
  <flow id="JF80760" begin="540" fromJunction="J0" toJunction="J3" end="600" vehsPerHour="11.50887903984972" departLane="free" arrivalSpeed="0.0"/>
  <flow id="JF80761" begin="540" fromJunction="J0" toJunction="J5" end="600" vehsPerHour="50.54273166700555" departLane="free" arrivalSpeed="0.0"/>
  <flow id="JF80762" begin="540" fromJunction="J0" toJunction="J6" end="600" vehsPerHour="456.2550183009509" departLane="free" arrivalSpeed="0.0"/>
  <flow id="JF80763" begin="540" fromJunction="J0" toJunction="J7" end="600" vehsPerHour="72.92631580634949" departLane="free" arrivalSpeed="0.0"/>
  <flow id="JF80764" begin="540" fromJunction="J3" toJunction="J0" end="600" vehsPerHour="242.4325545222983" departLane="free" arrivalSpeed="0.0"/>