<?xml version="1.0" encoding="UTF-8"?>
<routes xmlns:xsi="http://www.w3.org/2001/XMLSchema-instance" xsi:noNamespaceSchemaLocation="http://sumo.dlr.de/xsd/routes_file.xsd">
  <flow id="JF15528" begin="0" fromJunction="J0" toJunction="J12" end="360" vehsPerHour="5.802247051377149" departLane="free" arrivalSpeed="0.0"/>
  <flow id="JF15529" begin="0" fromJunction="J0" toJunction="J13" end="360" vehsPerHour="31.544970765595313" departLane="free" arrivalSpeed="0.0"/>
  <flow id="JF15530" begin="0" fromJunction="J0" toJunction="J14" end="360" vehsPerHour="59.86088411345337" departLane="free" arrivalSpeed="0.0"/>
  <flow id="JF15531" begin="0" fromJunction="J0" toJunction="J16" end="360" vehsPerHour="67.18106846645308" departLane="free" arrivalSpeed="0.0"/>
  <flow id="JF15532" begin="0" fromJunction="J0" toJunction="J2" end="360" vehsPerHour="55.23022668143667" departLane="free" arrivalSpeed="0.0"/>
  <flow id="JF15533" begin="0" fromJunction="J0" toJunction="J6" end="360" vehsPerHour="21.552540514999855" departLane="free" arrivalSpeed="0.0"/>
  <flow id="JF15534" begin="0" fromJunction="J0" toJunction="J7" end="360" vehsPerHour="31.48101850384906" departLane="free" arrivalSpeed="0.0"/>
  <flow id="JF15535" begin="0" fromJunction="J0" toJunction="J8" end="360" vehsPerHour="53.40188860671127" departLane="free" arrivalSpeed="0.0"/>
  <flow id="JF15536" begin="0" fromJunction="J0" toJunction="J9" end="360" vehsPerHour="9.277423030590489" departLane="free" arrivalSpeed="0.0"/>
  <flow id="JF15537" begin="0" fromJunction="J12" toJunction="J0" end="360" vehsPerHour="32.82783448850944" departLane="free" arrivalSpeed="0.0"/>
  <flow id="JF15538" begin="0" fromJunction="J12" toJunction="J13" end="360" vehsPerHour="23.45844434181884" departLane="free" arrivalSpeed="0.0"/>
  <flow id="JF15539" begin="0" fromJunction="J12" toJunction="J14" end="360" vehsPerHour="63.859234865052784" departLane="free" arrivalSpeed="0.0"/>
  <flow id="JF15540" begin="0" fromJunction="J12" toJunction="J15" end="360" vehsPerHour="68.03231480488672" departLane="free" arrivalSpeed="0.0"/>
  <flow id="JF15541" begin="0" fromJunction="J12" toJunction="J16" end="360" vehsPerHour="40.07154453833476" departLane="free" arrivalSpeed="0.0"/>
  <flow id="JF15542" begin="0" fromJunction="J12" toJunction="J6" end="360" vehsPerHour="51.38868957193314" departLane="free" arrivalSpeed="0.0"/>
  <flow id="JF15543" begin="0" fromJunction="J12" toJunction="J7" end="360" vehsPerHour="48.44905186830767" departLane="free" arrivalSpeed="0.0"/>
  <flow id="JF15544" begin="0" fromJunction="J12" toJunction="J8" end="360" vehsPerHour="68.58473812434815" departLane="free" arrivalSpeed="0.0"/>
  <flow id="JF15545" begin="0" fromJunction="J12" toJunction="J9" end="360" vehsPerHour="34.54683711706825" departLane="free" arrivalSpeed="0.0"/>
  <flow id="JF15546" begin="0" fromJunction="J13" toJunction="J0" end="360" vehsPerHour="8.466017178632116" departLane="free" arrivalSpeed="0.0"/>
  <flow id="JF15547" begin="0" fromJunction="J13" toJunction="J12" end="360" vehsPerHour="0.9366027977018049" departLane="free" arrivalSpeed="0.0"/>
  <flow id="JF15548" begin="0" fromJunction="J13" toJunction="J14" end="360" vehsPerHour="56.06108953011915" departLane="free" arrivalSpeed="0.0"/>
  <flow id="JF15549" begin="0" fromJunction="J13" toJunction="J15" end="360" vehsPerHour="4.299557040753952" departLane="free" arrivalSpeed="0.0"/>
  <flow id="JF15550" begin="0" fromJunction="J13" toJunction="J16" end="360" vehsPerHour="9.179743115959475" departLane="free" arrivalSpeed="0.0"/>
  <flow id="JF15551" begin="0" fromJunction="J13" toJunction="J2" end="360" vehsPerHour="60.65670550692181" departLane="free" arrivalSpeed="0.0"/>
  <flow id="JF15552" begin="0" fromJunction="J13" toJunction="J3" end="360" vehsPerHour="45.14491030808104" departLane="free" arrivalSpeed="0.0"/>
  <flow id="JF15553" begin="0" fromJunction="J13" toJunction="J6" end="360" vehsPerHour="8.96155759683263" departLane="free" arrivalSpeed="0.0"/>
  <flow id="JF15554" begin="0" fromJunction="J13" toJunction="J8" end="360" vehsPerHour="52.60731770447171" departLane="free" arrivalSpeed="0.0"/>
  <flow id="JF15555" begin="0" fromJunction="J13" toJunction="J9" end="360" vehsPerHour="59.00253947261945" departLane="free" arrivalSpeed="0.0"/>
  <flow id="JF15556" begin="0" fromJunction="J14" toJunction="J13" end="360" vehsPerHour="66.71830475393253" departLane="free" arrivalSpeed="0.0"/>
  <flow id="JF15557" begin="0" fromJunction="J14" toJunction="J15" end="360" vehsPerHour="3.639620870744731" departLane="free" arrivalSpeed="0.0"/>
  <flow id="JF15558" begin="0" fromJunction="J14" toJunction="J16" end="360" vehsPerHour="32.928754008642414" departLane="free" arrivalSpeed="0.0"/>
  <flow id="JF15559" begin="0" fromJunction="J14" toJunction="J2" end="360" vehsPerHour="10.343933554358122" departLane="free" arrivalSpeed="0.0"/>
  <flow id="JF15560" begin="0" fromJunction="J14" toJunction="J3" end="360" vehsPerHour="8.120335543193315" departLane="free" arrivalSpeed="0.0"/>
  <flow id="JF15561" begin="0" fromJunction="J14" toJunction="J6" end="360" vehsPerHour="18.83198077562863" departLane="free" arrivalSpeed="0.0"/>
  <flow id="JF15562" begin="0" fromJunction="J14" toJunction="J7" end="360" vehsPerHour="45.30840130669929" departLane="free" arrivalSpeed="0.0"/>
  <flow id="JF15563" begin="0" fromJunction="J14" toJunction="J8" end="360" vehsPerHour="61.72782170392524" departLane="free" arrivalSpeed="0.0"/>
  <flow id="JF15564" begin="0" fromJunction="J14" toJunction="J9" end="360" vehsPerHour="49.85864552759979" departLane="free" arrivalSpeed="0.0"/>
  <flow id="JF15565" begin="0" fromJunction="J15" toJunction="J0" end="360" vehsPerHour="45.222294438215755" departLane="free" arrivalSpeed="0.0"/>
  <flow id="JF15566" begin="0" fromJunction="J15" toJunction="J12" end="360" vehsPerHour="4.15878203040545" departLane="free" arrivalSpeed="0.0"/>
  <flow id="JF15567" begin="0" fromJunction="J15" toJunction="J13" end="360" vehsPerHour="57.36231092368941" departLane="free" arrivalSpeed="0.0"/>
  <flow id="JF15568" begin="0" fromJunction="J15" toJunction="J16" end="360" vehsPerHour="22.923657521329858" departLane="free" arrivalSpeed="0.0"/>
  <flow id="JF15569" begin="0" fromJunction="J15" toJunction="J2" end="360" vehsPerHour="18.8799371635749" departLane="free" arrivalSpeed="0.0"/>
  <flow id="JF15570" begin="0" fromJunction="J15" toJunction="J3" end="360" vehsPerHour="41.4465860514004" departLane="free" arrivalSpeed="0.0"/>
  <flow id="JF15571" begin="0" fromJunction="J15" toJunction="J6" end="360" vehsPerHour="44.676847283492926" departLane="free" arrivalSpeed="0.0"/>
  <flow id="JF15572" begin="0" fromJunction="J15" toJunction="J7" end="360" vehsPerHour="8.02319132218291" departLane="free" arrivalSpeed="0.0"/>
  <flow id="JF15573" begin="0" fromJunction="J15" toJunction="J8" end="360" vehsPerHour="2.949714373051081" departLane="free" arrivalSpeed="0.0"/>
  <flow id="JF15574" begin="0" fromJunction="J15" toJunction="J9" end="360" vehsPerHour="57.99480694442128" departLane="free" arrivalSpeed="0.0"/>
  <flow id="JF15575" begin="0" fromJunction="J16" toJunction="J0" end="360" vehsPerHour="6.015362794140103" departLane="free" arrivalSpeed="0.0"/>
  <flow id="JF15576" begin="0" fromJunction="J16" toJunction="J12" end="360" vehsPerHour="68.73684008831268" departLane="free" arrivalSpeed="0.0"/>
  <flow id="JF15577" begin="0" fromJunction="J16" toJunction="J13" end="360" vehsPerHour="17.116035477229836" departLane="free" arrivalSpeed="0.0"/>
  <flow id="JF15578" begin="0" fromJunction="J16" toJunction="J15" end="360" vehsPerHour="96.54245159183068" departLane="free" arrivalSpeed="0.0"/>
  <flow id="JF15579" begin="0" fromJunction="J16" toJunction="J2" end="360" vehsPerHour="98.86157347165557" departLane="free" arrivalSpeed="0.0"/>
  <flow id="JF15580" begin="0" fromJunction="J16" toJunction="J3" end="360" vehsPerHour="60.60010916122042" departLane="free" arrivalSpeed="0.0"/>
  <flow id="JF15581" begin="0" fromJunction="J16" toJunction="J6" end="360" vehsPerHour="50.84565521104768" departLane="free" arrivalSpeed="0.0"/>
  <flow id="JF15582" begin="0" fromJunction="J16" toJunction="J7" end="360" vehsPerHour="27.195098885631417" departLane="free" arrivalSpeed="0.0"/>
  <flow id="JF15583" begin="0" fromJunction="J16" toJunction="J8" end="360" vehsPerHour="17.809336525057095" departLane="free" arrivalSpeed="0.0"/>
  <flow id="JF15584" begin="0" fromJunction="J16" toJunction="J9" end="360" vehsPerHour="126.24955896534055" departLane="free" arrivalSpeed="0.0"/>
  <flow id="JF15585" begin="0" fromJunction="J2" toJunction="J0" end="360" vehsPerHour="52.515811316678565" departLane="free" arrivalSpeed="0.0"/>
  <flow id="JF15586" begin="0" fromJunction="J2" toJunction="J12" end="360" vehsPerHour="66.4730010899275" departLane="free" arrivalSpeed="0.0"/>
  <flow id="JF15587" begin="0" fromJunction="J2" toJunction="J14" end="360" vehsPerHour="46.74383591492061" departLane="free" arrivalSpeed="0.0"/>
  <flow id="JF15588" begin="0" fromJunction="J2" toJunction="J15" end="360" vehsPerHour="95.4550631218287" departLane="free" arrivalSpeed="0.0"/>
  <flow id="JF15589" begin="0" fromJunction="J2" toJunction="J16" end="360" vehsPerHour="21.526778085876863" departLane="free" arrivalSpeed="0.0"/>
  <flow id="JF15590" begin="0" fromJunction="J2" toJunction="J3" end="360" vehsPerHour="99.60628684172438" departLane="free" arrivalSpeed="0.0"/>
  <flow id="JF15591" begin="0" fromJunction="J2" toJunction="J7" end="360" vehsPerHour="43.60219097421353" departLane="free" arrivalSpeed="0.0"/>
  <flow id="JF15592" begin="0" fromJunction="J2" toJunction="J8" end="360" vehsPerHour="41.053787722472364" departLane="free" arrivalSpeed="0.0"/>
  <flow id="JF15593" begin="0" fromJunction="J2" toJunction="J9" end="360" vehsPerHour="13.268754358327797" departLane="free" arrivalSpeed="0.0"/>
  <flow id="JF15594" begin="0" fromJunction="J3" toJunction="J0" end="360" vehsPerHour="5.882904496242276" departLane="free" arrivalSpeed="0.0"/>
  <flow id="JF15595" begin="0" fromJunction="J3" toJunction="J14" end="360" vehsPerHour="64.70725998534049" departLane="free" arrivalSpeed="0.0"/>
  <flow id="JF15596" begin="0" fromJunction="J3" toJunction="J15" end="360" vehsPerHour="60.81683397698765" departLane="free" arrivalSpeed="0.0"/>
  <flow id="JF15597" begin="0" fromJunction="J3" toJunction="J2" end="360" vehsPerHour="18.501881061830346" departLane="free" arrivalSpeed="0.0"/>
  <flow id="JF15598" begin="0" fromJunction="J3" toJunction="J6" end="360" vehsPerHour="6.3663613443158935" departLane="free" arrivalSpeed="0.0"/>
  <flow id="JF15599" begin="0" fromJunction="J3" toJunction="J7" end="360" vehsPerHour="0.2605964601323343" departLane="free" arrivalSpeed="0.0"/>
  <flow id="JF15600" begin="0" fromJunction="J3" toJunction="J9" end="360" vehsPerHour="31.579095204465727" departLane="free" arrivalSpeed="0.0"/>
  <flow id="JF15601" begin="0" fromJunction="J6" toJunction="J0" end="360" vehsPerHour="33.6914734594511" departLane="free" arrivalSpeed="0.0"/>
  <flow id="JF15602" begin="0" fromJunction="J6" toJunction="J12" end="360" vehsPerHour="37.159141797562825" departLane="free" arrivalSpeed="0.0"/>
  <flow id="JF15603" begin="0" fromJunction="J6" toJunction="J13" end="360" vehsPerHour="11.376936991371407" departLane="free" arrivalSpeed="0.0"/>
  <flow id="JF15604" begin="0" fromJunction="J6" toJunction="J14" end="360" vehsPerHour="31.1409288347377" departLane="free" arrivalSpeed="0.0"/>
  <flow id="JF15605" begin="0" fromJunction="J6" toJunction="J15" end="360" vehsPerHour="60.529125204486405" departLane="free" arrivalSpeed="0.0"/>
  <flow id="JF15606" begin="0" fromJunction="J6" toJunction="J2" end="360" vehsPerHour="6.804215201236656" departLane="free" arrivalSpeed="0.0"/>
  <flow id="JF15607" begin="0" fromJunction="J6" toJunction="J3" end="360" vehsPerHour="9.612130426733227" departLane="free" arrivalSpeed="0.0"/>
  <flow id="JF15608" begin="0" fromJunction="J6" toJunction="J7" end="360" vehsPerHour="27.63107037103657" departLane="free" arrivalSpeed="0.0"/>
  <flow id="JF15609" begin="0" fromJunction="J6" toJunction="J8" end="360" vehsPerHour="46.33981302350255" departLane="free" arrivalSpeed="0.0"/>
  <flow id="JF15610" begin="0" fromJunction="J6" toJunction="J9" end="360" vehsPerHour="44.97950082329532" departLane="free" arrivalSpeed="0.0"/>
  <flow id="JF15611" begin="0" fromJunction="J7" toJunction="J12" end="360" vehsPerHour="41.02652430817296" departLane="free" arrivalSpeed="0.0"/>
  <flow id="JF15612" begin="0" fromJunction="J7" toJunction="J15" end="360" vehsPerHour="34.75692371715606" departLane="free" arrivalSpeed="0.0"/>
  <flow id="JF15613" begin="0" fromJunction="J7" toJunction="J16" end="360" vehsPerHour="22.360111705901573" departLane="free" arrivalSpeed="0.0"/>
  <flow id="JF15614" begin="0" fromJunction="J7" toJunction="J3" end="360" vehsPerHour="1.1676946522670175" departLane="free" arrivalSpeed="0.0"/>
  <flow id="JF15615" begin="0" fromJunction="J7" toJunction="J6" end="360" vehsPerHour="62.535106225325436" departLane="free" arrivalSpeed="0.0"/>
  <flow id="JF15616" begin="0" fromJunction="J7" toJunction="J9" end="360" vehsPerHour="44.844829048658525" departLane="free" arrivalSpeed="0.0"/>
  <flow id="JF15617" begin="0" fromJunction="J8" toJunction="J13" end="360" vehsPerHour="11.504412483085423" departLane="free" arrivalSpeed="0.0"/>
  <flow id="JF15618" begin="0" fromJunction="J8" toJunction="J15" end="360" vehsPerHour="48.51002722684364" departLane="free" arrivalSpeed="0.0"/>
  <flow id="JF15619" begin="0" fromJunction="J8" toJunction="J16" end="360" vehsPerHour="36.50493224196146" departLane="free" arrivalSpeed="0.0"/>
  <flow id="JF15620" begin="0" fromJunction="J8" toJunction="J2" end="360" vehsPerHour="45.89134664236332" departLane="free" arrivalSpeed="0.0"/>
  <flow id="JF15621" begin="0" fromJunction="J8" toJunction="J3" end="360" vehsPerHour="28.433133868966163" departLane="free" arrivalSpeed="0.0"/>
  <flow id="JF15622" begin="0" fromJunction="J8" toJunction="J6" end="360" vehsPerHour="34.300836341898346" departLane="free" arrivalSpeed="0.0"/>
  <flow id="JF15623" begin="0" fromJunction="J8" toJunction="J7" end="360" vehsPerHour="47.37538915155564" departLane="free" arrivalSpeed="0.0"/>
  <flow id="JF15624" begin="0" fromJunction="J8" toJunction="J9" end="360" vehsPerHour="62.65368174774794" departLane="free" arrivalSpeed="0.0"/>
  <flow id="JF15625" begin="0" fromJunction="J9" toJunction="J0" end="360" vehsPerHour="2.9978788701753833" departLane="free" arrivalSpeed="0.0"/>
  <flow id="JF15626" begin="0" fromJunction="J9" toJunction="J13" end="360" vehsPerHour="22.59505630761732" departLane="free" arrivalSpeed="0.0"/>
  <flow id="JF15627" begin="0" fromJunction="J9" toJunction="J15" end="360" vehsPerHour="53.96774188439531" departLane="free" arrivalSpeed="0.0"/>
  <flow id="JF15628" begin="0" fromJunction="J9" toJunction="J16" end="360" vehsPerHour="21.683259929006617" departLane="free" arrivalSpeed="0.0"/>
  <flow id="JF15629" begin="0" fromJunction="J9" toJunction="J3" end="360" vehsPerHour="45.596949000477395" departLane="free" arrivalSpeed="0.0"/>
  <flow id="JF15630" begin="0" fromJunction="J9" toJunction="J6" end="360" vehsPerHour="28.839812323028404" departLane="free" arrivalSpeed="0.0"/>
  <flow id="JF15631" begin="0" fromJunction="J9" toJunction="J8" end="360" vehsPerHour="18.365812683316435" departLane="free" arrivalSpeed="0.0"/>
  <flow id="JF15632" begin="360" fromJunction="J0" toJunction="J12" end="720" vehsPerHour="16.6240052811621" departLane="free" arrivalSpeed="0.0"/>
  <flow id="JF15633" begin="360" fromJunction="J0" toJunction="J13" end="720" vehsPerHour="37.43785409681209" departLane="free" arrivalSpeed="0.0"/>
  <flow id="JF15634" begin="360" fromJunction="J0" toJunction="J14" end="720" vehsPerHour="51.6750829790087" departLane="free" arrivalSpeed="0.0"/>
  <flow id="JF15635" begin="360" fromJunction="J0" toJunction="J15" end="720" vehsPerHour="53.779594783920125" departLane="free" arrivalSpeed="0.0"/>
  <flow id="JF15636" begin="360" fromJunction="J0" toJunction="J16" end="720" vehsPerHour="13.701497736899086" departLane="free" arrivalSpeed="0.0"/>
  <flow id="JF15637" begin="360" fromJunction="J0" toJunction="J2" end="720" vehsPerHour="60.58953027988188" departLane="free" arrivalSpeed="0.0"/>
  <flow id="JF15638" begin="360" fromJunction="J0" toJunction="J3" end="720" vehsPerHour="33.26231660414112" departLane="free" arrivalSpeed="0.0"/>
  <flow id="JF15639" begin="360" fromJunction="J0" toJunction="J6" end="720" vehsPerHour="64.69867018951786" departLane="free" arrivalSpeed="0.0"/>
  <flow id="JF15640" begin="360" fromJunction="J0" toJunction="J8" end="720" vehsPerHour="59.21338674105542" departLane="free" arrivalSpeed="0.0"/>
  <flow id="JF15641" begin="360" fromJunction="J12" toJunction="J0" end="720" vehsPerHour="26.90151684761208" departLane="free" arrivalSpeed="0.0"/>
  <flow id="JF15642" begin="360" fromJunction="J12" toJunction="J13" end="720" vehsPerHour="56.2418377585842" departLane="free" arrivalSpeed="0.0"/>
  <flow id="JF15643" begin="360" fromJunction="J12" toJunction="J14" end="720" vehsPerHour="27.229196174354794" departLane="free" arrivalSpeed="0.0"/>
  <flow id="JF15644" begin="360" fromJunction="J12" toJunction="J15" end="720" vehsPerHour="51.13729930592845" departLane="free" arrivalSpeed="0.0"/>
  <flow id="JF15645" begin="360" fromJunction="J12" toJunction="J16" end="720" vehsPerHour="49.97958873558045" departLane="free" arrivalSpeed="0.0"/>
  <flow id="JF15646" begin="360" fromJunction="J12" toJunction="J9" end="720" vehsPerHour="34.44918097337213" departLane="free" arrivalSpeed="0.0"/>
  <flow id="JF15647" begin="360" fromJunction="J13" toJunction="J0" end="720" vehsPerHour="20.484925766181938" departLane="free" arrivalSpeed="0.0"/>
  <flow id="JF15648" begin="360" fromJunction="J13" toJunction="J12" end="720" vehsPerHour="1.8449554411553537" departLane="free" arrivalSpeed="0.0"/>
  <flow id="JF15649" begin="360" fromJunction="J13" toJunction="J14" end="720" vehsPerHour="21.50885026514288" departLane="free" arrivalSpeed="0.0"/>
  <flow id="JF15650" begin="360" fromJunction="J13" toJunction="J15" end="720" vehsPerHour="12.60389282731241" departLane="free" arrivalSpeed="0.0"/>
  <flow id="JF15651" begin="360" fromJunction="J13" toJunction="J16" end="720" vehsPerHour="64.96119713855532" departLane="free" arrivalSpeed="0.0"/>
  <flow id="JF15652" begin="360" fromJunction="J13" toJunction="J2" end="720" vehsPerHour="44.38449331425106" departLane="free" arrivalSpeed="0.0"/>
  <flow id="JF15653" begin="360" fromJunction="J13" toJunction="J3" end="720" vehsPerHour="1.4901861093629993" departLane="free" arrivalSpeed="0.0"/>
  <flow id="JF15654" begin="360" fromJunction="J13" toJunction="J6" end="720" vehsPerHour="38.64000256373574" departLane="free" arrivalSpeed="0.0"/>
  <flow id="JF15655" begin="360" fromJunction="J13" toJunction="J9" end="720" vehsPerHour="12.640732817029185" departLane="free" arrivalSpeed="0.0"/>
  <flow id="JF15656" begin="360" fromJunction="J14" toJunction="J0" end="720" vehsPerHour="46.02756417061736" departLane="free" arrivalSpeed="0.0"/>
  <flow id="JF15657" begin="360" fromJunction="J14" toJunction="J12" end="720" vehsPerHour="49.93528570403133" departLane="free" arrivalSpeed="0.0"/>
  <flow id="JF15658" begin="360" fromJunction="J14" toJunction="J15" end="720" vehsPerHour="42.819090460384864" departLane="free" arrivalSpeed="0.0"/>
  <flow id="JF15659" begin="360" fromJunction="J14" toJunction="J16" end="720" vehsPerHour="23.719947545592397" departLane="free" arrivalSpeed="0.0"/>
  <flow id="JF15660" begin="360" fromJunction="J14" toJunction="J2" end="720" vehsPerHour="64.10825672193526" departLane="free" arrivalSpeed="0.0"/>
  <flow id="JF15661" begin="360" fromJunction="J14" toJunction="J3" end="720" vehsPerHour="32.31238856479702" departLane="free" arrivalSpeed="0.0"/>
  <flow id="JF15662" begin="360" fromJunction="J14" toJunction="J7" end="720" vehsPerHour="13.627279495790168" departLane="free" arrivalSpeed="0.0"/>
  <flow id="JF15663" begin="360" fromJunction="J14" toJunction="J8" end="720" vehsPerHour="58.69861572428642" departLane="free" arrivalSpeed="0.0"/>
  <flow id="JF15664" begin="360" fromJunction="J15" toJunction="J12" end="720" vehsPerHour="23.906179502120306" departLane="free" arrivalSpeed="0.0"/>
  <flow id="JF15665" begin="360" fromJunction="J15" toJunction="J14" end="720" vehsPerHour="5.003094752757303" departLane="free" arrivalSpeed="0.0"/>
  <flow id="JF15666" begin="360" fromJunction="J15" toJunction="J16" end="720" vehsPerHour="13.75189811062416" departLane="free" arrivalSpeed="0.0"/>
  <flow id="JF15667" begin="360" fromJunction="J15" toJunction="J2" end="720" vehsPerHour="56.343037187000455" departLane="free" arrivalSpeed="0.0"/>
  <flow id="JF15668" begin="360" fromJunction="J15" toJunction="J6" end="720" vehsPerHour="50.540017036668345" departLane="free" arrivalSpeed="0.0"/>
  <flow id="JF15669" begin="360" fromJunction="J15" toJunction="J7" end="720" vehsPerHour="61.004640902307194" departLane="free" arrivalSpeed="0.0"/>
  <flow id="JF15670" begin="360" fromJunction="J15" toJunction="J8" end="720" vehsPerHour="9.94635472696287" departLane="free" arrivalSpeed="0.0"/>
  <flow id="JF15671" begin="360" fromJunction="J16" toJunction="J12" end="720" vehsPerHour="76.89557564975723" departLane="free" arrivalSpeed="0.0"/>
  <flow id="JF15672" begin="360" fromJunction="J16" toJunction="J13" end="720" vehsPerHour="134.06528502342601" departLane="free" arrivalSpeed="0.0"/>
  <flow id="JF15673" begin="360" fromJunction="J16" toJunction="J15" end="720" vehsPerHour="90.9716107532265" departLane="free" arrivalSpeed="0.0"/>
  <flow id="JF15674" begin="360" fromJunction="J16" toJunction="J3" end="720" vehsPerHour="48.36300567160792" departLane="free" arrivalSpeed="0.0"/>
  <flow id="JF15675" begin="360" fromJunction="J16" toJunction="J6" end="720" vehsPerHour="109.8868072684429" departLane="free" arrivalSpeed="0.0"/>
  <flow id="JF15676" begin="360" fromJunction="J16" toJunction="J8" end="720" vehsPerHour="114.54491452669497" departLane="free" arrivalSpeed="0.0"/>
  <flow id="JF15677" begin="360" fromJunction="J16" toJunction="J9" end="720" vehsPerHour="105.70410353790814" departLane="free" arrivalSpeed="0.0"/>
  <flow id="JF15678" begin="360" fromJunction="J2" toJunction="J12" end="720" vehsPerHour="27.923590055427216" departLane="free" arrivalSpeed="0.0"/>
  <flow id="JF15679" begin="360" fromJunction="J2" toJunction="J14" end="720" vehsPerHour="12.079515915966518" departLane="free" arrivalSpeed="0.0"/>
  <flow id="JF15680" begin="360" fromJunction="J2" toJunction="J15" end="720" vehsPerHour="123.72738963137643" departLane="free" arrivalSpeed="0.0"/>
  <flow id="JF15681" begin="360" fromJunction="J2" toJunction="J16" end="720" vehsPerHour="97.26818376519911" departLane="free" arrivalSpeed="0.0"/>
  <flow id="JF15682" begin="360" fromJunction="J2" toJunction="J3" end="720" vehsPerHour="136.6669196904932" departLane="free" arrivalSpeed="0.0"/>
  <flow id="JF15683" begin="360" fromJunction="J2" toJunction="J6" end="720" vehsPerHour="126.34044740492797" departLane="free" arrivalSpeed="0.0"/>
  <flow id="JF15684" begin="360" fromJunction="J2" toJunction="J7" end="720" vehsPerHour="34.9948034186038" departLane="free" arrivalSpeed="0.0"/>
  <flow id="JF15685" begin="360" fromJunction="J3" toJunction="J12" end="720" vehsPerHour="50.49241868544909" departLane="free" arrivalSpeed="0.0"/>
  <flow id="JF15686" begin="360" fromJunction="J3" toJunction="J15" end="720" vehsPerHour="21.92400343919254" departLane="free" arrivalSpeed="0.0"/>
  <flow id="JF15687" begin="360" fromJunction="J3" toJunction="J16" end="720" vehsPerHour="13.767527996192587" departLane="free" arrivalSpeed="0.0"/>
  <flow id="JF15688" begin="360" fromJunction="J3" toJunction="J2" end="720" vehsPerHour="52.07958706802371" departLane="free" arrivalSpeed="0.0"/>
  <flow id="JF15689" begin="360" fromJunction="J3" toJunction="J6" end="720" vehsPerHour="55.291690747408516" departLane="free" arrivalSpeed="0.0"/>
  <flow id="JF15690" begin="360" fromJunction="J3" toJunction="J7" end="720" vehsPerHour="30.23770947832589" departLane="free" arrivalSpeed="0.0"/>
  <flow id="JF15691" begin="360" fromJunction="J3" toJunction="J8" end="720" vehsPerHour="57.57197682813724" departLane="free" arrivalSpeed="0.0"/>
  <flow id="JF15692" begin="360" fromJunction="J3" toJunction="J9" end="720" vehsPerHour="57.50492184174257" departLane="free" arrivalSpeed="0.0"/>
  <flow id="JF15693" begin="360" fromJunction="J6" toJunction="J0" end="720" vehsPerHour="34.85080206661136" departLane="free" arrivalSpeed="0.0"/>
  <flow id="JF15694" begin="360" fromJunction="J6" toJunction="J12" end="720" vehsPerHour="57.56245731644126" departLane="free" arrivalSpeed="0.0"/>
  <flow id="JF15695" begin="360" fromJunction="J6" toJunction="J16" end="720" vehsPerHour="29.20637966301865" departLane="free" arrivalSpeed="0.0"/>
  <flow id="JF15696" begin="360" fromJunction="J6" toJunction="J7" end="720" vehsPerHour="5.232904248910461" departLane="free" arrivalSpeed="0.0"/>
  <flow id="JF15697" begin="360" fromJunction="J6" toJunction="J9" end="720" vehsPerHour="15.83020727999317" departLane="free" arrivalSpeed="0.0"/>
  <flow id="JF15698" begin="360" fromJunction="J7" toJunction="J0" end="720" vehsPerHour="15.22669425895109" departLane="free" arrivalSpeed="0.0"/>
  <flow id="JF15699" begin="360" fromJunction="J7" toJunction="J12" end="720" vehsPerHour="68.46126974470414" departLane="free" arrivalSpeed="0.0"/>
  <flow id="JF15700" begin="360" fromJunction="J7" toJunction="J13" end="720" vehsPerHour="35.71676000358618" departLane="free" arrivalSpeed="0.0"/>
  <flow id="JF15701" begin="360" fromJunction="J7" toJunction="J15" end="720" vehsPerHour="66.21845243111932" departLane="free" arrivalSpeed="0.0"/>
  <flow id="JF15702" begin="360" fromJunction="J7" toJunction="J16" end="720" vehsPerHour="48.541272707027126" departLane="free" arrivalSpeed="0.0"/>
  <flow id="JF15703" begin="360" fromJunction="J7" toJunction="J2" end="720" vehsPerHour="17.061150473107855" departLane="free" arrivalSpeed="0.0"/>
  <flow id="JF15704" begin="360" fromJunction="J7" toJunction="J8" end="720" vehsPerHour="33.547664392529946" departLane="free" arrivalSpeed="0.0"/>
  <flow id="JF15705" begin="360" fromJunction="J7" toJunction="J9" end="720" vehsPerHour="37.322978165348516" departLane="free" arrivalSpeed="0.0"/>
  <flow id="JF15706" begin="360" fromJunction="J8" toJunction="J0" end="720" vehsPerHour="26.81054043651695" departLane="free" arrivalSpeed="0.0"/>
  <flow id="JF15707" begin="360" fromJunction="J8" toJunction="J12" end="720" vehsPerHour="66.71192056690911" departLane="free" arrivalSpeed="0.0"/>
  <flow id="JF15708" begin="360" fromJunction="J8" toJunction="J13" end="720" vehsPerHour="41.90926057580342" departLane="free" arrivalSpeed="0.0"/>
  <flow id="JF15709" begin="360" fromJunction="J8" toJunction="J14" end="720" vehsPerHour="20.05624305802461" departLane="free" arrivalSpeed="0.0"/>
  <flow id="JF15710" begin="360" fromJunction="J8" toJunction="J15" end="720" vehsPerHour="66.95720886602965" departLane="free" arrivalSpeed="0.0"/>
  <flow id="JF15711" begin="360" fromJunction="J8" toJunction="J3" end="720" vehsPerHour="25.853149454835012" departLane="free" arrivalSpeed="0.0"/>
  <flow id="JF15712" begin="360" fromJunction="J8" toJunction="J6" end="720" vehsPerHour="30.938166388918606" departLane="free" arrivalSpeed="0.0"/>
  <flow id="JF15713" begin="360" fromJunction="J9" toJunction="J0" end="720" vehsPerHour="66.0478700539803" departLane="free" arrivalSpeed="0.0"/>
  <flow id="JF15714" begin="360" fromJunction="J9" toJunction="J12" end="720" vehsPerHour="15.755293164382428" departLane="free" arrivalSpeed="0.0"/>
  <flow id="JF15715" begin="360" fromJunction="J9" toJunction="J13" end="720" vehsPerHour="19.834076681274937" departLane="free" arrivalSpeed="0.0"/>
  <flow id="JF15716" begin="360" fromJunction="J9" toJunction="J14" end="720" vehsPerHour="37.259123297654504" departLane="free" arrivalSpeed="0.0"/>
  <flow id="JF15717" begin="360" fromJunction="J9" toJunction="J2" end="720" vehsPerHour="61.817670767169496" departLane="free" arrivalSpeed="0.0"/>
  <flow id="JF15718" begin="360" fromJunction="J9" toJunction="J6" end="720" vehsPerHour="39.23989451147665" departLane="free" arrivalSpeed="0.0"/>
  <flow id="JF15719" begin="360" fromJunction="J9" toJunction="J7" end="720" vehsPerHour="47.7297797898334" departLane="free" arrivalSpeed="0.0"/>
  <flow id="JF15720" begin="360" fromJunction="J9" toJunction="J8" end="720" vehsPerHour="23.14490799169173" departLane="free" arrivalSpeed="0.0"/>
  <flow id="JF15721" begin="720" fromJunction="J0" toJunction="J12" end="1080" vehsPerHour="52.71122084067697" departLane="free" arrivalSpeed="0.0"/>
  <flow id="JF15722" begin="720" fromJunction="J0" toJunction="J13" end="1080" vehsPerHour="26.202875965375135" departLane="free" arrivalSpeed="0.0"/>
  <flow id="JF15723" begin="720" fromJunction="J0" toJunction="J15" end="1080" vehsPerHour="21.867781154913256" departLane="free" arrivalSpeed="0.0"/>
  <flow id="JF15724" begin="720" fromJunction="J0" toJunction="J16" end="1080" vehsPerHour="21.604317388748697" departLane="free" arrivalSpeed="0.0"/>
  <flow id="JF15725" begin="720" fromJunction="J0" toJunction="J2" end="1080" vehsPerHour="14.469404910193633" departLane="free" arrivalSpeed="0.0"/>
  <flow id="JF15726" begin="720" fromJunction="J0" toJunction="J3" end="1080" vehsPerHour="42.402213401753485" departLane="free" arrivalSpeed="0.0"/>
  <flow id="JF15727" begin="720" fromJunction="J0" toJunction="J7" end="1080" vehsPerHour="16.110923682645765" departLane="free" arrivalSpeed="0.0"/>
  <flow id="JF15728" begin="720" fromJunction="J0" toJunction="J8" end="1080" vehsPerHour="19.468828297815953" departLane="free" arrivalSpeed="0.0"/>