<?xml version="1.0" encoding="UTF-8"?>
<routes xmlns:xsi="http://www.w3.org/2001/XMLSchema-instance" xsi:noNamespaceSchemaLocation="http://sumo.dlr.de/xsd/routes_file.xsd">
  <flow id="JF274487" begin="0" fromJunction="J0" toJunction="J3" end="60" vehsPerHour="73.03760625094407" departLane="free"/>
  <flow id="JF274488" begin="0" fromJunction="J3" toJunction="J0" end="60" vehsPerHour="95.11988589023551" departLane="free"/>
  <flow id="JF274489" begin="0" fromJunction="J0" toJunction="J7" end="60" vehsPerHour="51.23967419394553" departLane="free"/>
  <flow id="JF274490" begin="0" fromJunction="J0" toJunction="J6" end="60" vehsPerHour="107.1180833839891" departLane="free"/>
  <flow id="JF274491" begin="0" fromJunction="J0" toJunction="J4" end="60" vehsPerHour="69.18900164836899" departLane="free"/>
  <flow id="JF274492" begin="0" fromJunction="J0" toJunction="J5" end="60" vehsPerHour="30.88051245972986" departLane="free"/>
  <flow id="JF274493" begin="0" fromJunction="J3" toJunction="J7" end="60" vehsPerHour="100.66121579174542" departLane="free"/>
  <flow id="JF274494" begin="0" fromJunction="J3" toJunction="J6" end="60" vehsPerHour="105.59705477468965" departLane="free"/>
  <flow id="JF274495" begin="0" fromJunction="J3" toJunction="J4" end="60" vehsPerHour="82.64334019820585" departLane="free"/>
  <flow id="JF274496" begin="0" fromJunction="J3" toJunction="J5" end="60" vehsPerHour="55.46457991742156" departLane="free"/>
  <flow id="JF274497" begin="0" fromJunction="J7" toJunction="J6" end="60" vehsPerHour="21.65379877595709" departLane="free"/>
  <flow id="JF274498" begin="0" fromJunction="J7" toJunction="J4" end="60" vehsPerHour="30.656780111458826" departLane="free"/>
  <flow id="JF274499" begin="0" fromJunction="J7" toJunction="J5" end="60" vehsPerHour="26.99777542560896" departLane="free"/>
  <flow id="JF274500" begin="0" fromJunction="J6" toJunction="J7" end="60" vehsPerHour="19.03165635492568" departLane="free"/>
  <flow id="JF274501" begin="0" fromJunction="J6" toJunction="J4" end="60" vehsPerHour="14.345910846855753" departLane="free"/>
  <flow id="JF274502" begin="0" fromJunction="J6" toJunction="J5" end="60" vehsPerHour="31.31980696289369" departLane="free"/>
  <flow id="JF274503" begin="0" fromJunction="J4" toJunction="J7" end="60" vehsPerHour="53.725371433494125" departLane="free"/>
  <flow id="JF274504" begin="0" fromJunction="J4" toJunction="J6" end="60" vehsPerHour="62.219196090705346" departLane="free"/>
  <flow id="JF274505" begin="0" fromJunction="J4" toJunction="J5" end="60" vehsPerHour="44.06659503229486" departLane="free"/>
  <flow id="JF274506" begin="0" fromJunction="J5" toJunction="J7" end="60" vehsPerHour="20.28396244861438" departLane="free"/>
  <flow id="JF274507" begin="0" fromJunction="J5" toJunction="J6" end="60" vehsPerHour="25.161362487633113" departLane="free"/>
  <flow id="JF274508" begin="0" fromJunction="J5" toJunction="J4" end="60" vehsPerHour="1.3351547332393228" departLane="free"/>
  <flow id="JF274509" begin="0" fromJunction="J7" toJunction="J0" end="60" vehsPerHour="34.32350241678794" departLane="free"/>
  <flow id="JF274510" begin="0" fromJunction="J7" toJunction="J3" end="60" vehsPerHour="7.410150212841901" departLane="free"/>
  <flow id="JF274511" begin="0" fromJunction="J6" toJunction="J0" end="60" vehsPerHour="26.32307020108875" departLane="free"/>
  <flow id="JF274512" begin="0" fromJunction="J6" toJunction="J3" end="60" vehsPerHour="15.518121740665016" departLane="free"/>
  <flow id="JF274513" begin="0" fromJunction="J4" toJunction="J0" end="60" vehsPerHour="8.91038281091048" departLane="free"/>
  <flow id="JF274514" begin="0" fromJunction="J4" toJunction="J3" end="60" vehsPerHour="25.736249015279977" departLane="free"/>
  <flow id="JF274515" begin="0" fromJunction="J5" toJunction="J0" end="60" vehsPerHour="23.46827195891211" departLane="free"/>
  <flow id="JF274516" begin="0" fromJunction="J5" toJunction="J3" end="60" vehsPerHour="17.05575521828122" departLane="free"/>
  <flow id="JF274517" begin="60" fromJunction="J0" toJunction="J3" end="120" vehsPerHour="392.38521871131314" departLane="free"/>
  <flow id="JF274518" begin="60" fromJunction="J3" toJunction="J0" end="120" vehsPerHour="189.3534991706761" departLane="free"/>
  <flow id="JF274519" begin="60" fromJunction="J0" toJunction="J7" end="120" vehsPerHour="81.82458528783084" departLane="free"/>
  <flow id="JF274520" begin="60" fromJunction="J0" toJunction="J6" end="120" vehsPerHour="2.719938393838366" departLane="free"/>
  <flow id="JF274521" begin="60" fromJunction="J0" toJunction="J4" end="120" vehsPerHour="10.829720405673074" departLane="free"/>
  <flow id="JF274522" begin="60" fromJunction="J0" toJunction="J5" end="120" vehsPerHour="74.06666353024511" departLane="free"/>
  <flow id="JF274523" begin="60" fromJunction="J3" toJunction="J7" end="120" vehsPerHour="68.24499794266764" departLane="free"/>
  <flow id="JF274524" begin="60" fromJunction="J3" toJunction="J6" end="120" vehsPerHour="44.77674152886089" departLane="free"/>
  <flow id="JF274525" begin="60" fromJunction="J3" toJunction="J4" end="120" vehsPerHour="105.92192200581576" departLane="free"/>
  <flow id="JF274526" begin="60" fromJunction="J3" toJunction="J5" end="120" vehsPerHour="1.008459871378337" departLane="free"/>
  <flow id="JF274527" begin="60" fromJunction="J7" toJunction="J6" end="120" vehsPerHour="13.071727563900465" departLane="free"/>
  <flow id="JF274528" begin="60" fromJunction="J7" toJunction="J4" end="120" vehsPerHour="1.9383982118952707" departLane="free"/>
  <flow id="JF274529" begin="60" fromJunction="J7" toJunction="J5" end="120" vehsPerHour="1.9386367578690331" departLane="free"/>
  <flow id="JF274530" begin="60" fromJunction="J6" toJunction="J7" end="120" vehsPerHour="7.69696287929439" departLane="free"/>
  <flow id="JF274531" begin="60" fromJunction="J6" toJunction="J4" end="120" vehsPerHour="18.43470664142851" departLane="free"/>
  <flow id="JF274532" begin="60" fromJunction="J6" toJunction="J5" end="120" vehsPerHour="7.509495037598417" departLane="free"/>
  <flow id="JF274533" begin="60" fromJunction="J4" toJunction="J7" end="120" vehsPerHour="17.921150593492712" departLane="free"/>
  <flow id="JF274534" begin="60" fromJunction="J4" toJunction="J6" end="120" vehsPerHour="36.11971857686593" departLane="free"/>
  <flow id="JF274535" begin="60" fromJunction="J4" toJunction="J5" end="120" vehsPerHour="54.32462639028606" departLane="free"/>
  <flow id="JF274536" begin="60" fromJunction="J5" toJunction="J7" end="120" vehsPerHour="12.20827877175518" departLane="free"/>
  <flow id="JF274537" begin="60" fromJunction="J5" toJunction="J6" end="120" vehsPerHour="51.67511448406258" departLane="free"/>
  <flow id="JF274538" begin="60" fromJunction="J5" toJunction="J4" end="120" vehsPerHour="13.442465861067934" departLane="free"/>
  <flow id="JF274539" begin="60" fromJunction="J7" toJunction="J0" end="120" vehsPerHour="28.57806377497876" departLane="free"/>
  <flow id="JF274540" begin="60" fromJunction="J7" toJunction="J3" end="120" vehsPerHour="26.898227334236612" departLane="free"/>
  <flow id="JF274541" begin="60" fromJunction="J6" toJunction="J0" end="120" vehsPerHour="17.375643807451883" departLane="free"/>
  <flow id="JF274542" begin="60" fromJunction="J6" toJunction="J3" end="120" vehsPerHour="22.97885069135207" departLane="free"/>
  <flow id="JF274543" begin="60" fromJunction="J4" toJunction="J0" end="120" vehsPerHour="26.94759383138347" departLane="free"/>
  <flow id="JF274544" begin="60" fromJunction="J4" toJunction="J3" end="120" vehsPerHour="13.109893276755486" departLane="free"/>
  <flow id="JF274545" begin="60" fromJunction="J5" toJunction="J0" end="120" vehsPerHour="16.27874946524525" departLane="free"/>
  <flow id="JF274546" begin="60" fromJunction="J5" toJunction="J3" end="120" vehsPerHour="30.28861821796754" departLane="free"/>
  <flow id="JF274547" begin="120" fromJunction="J0" toJunction="J3" end="180" vehsPerHour="16.584866466486893" departLane="free"/>
  <flow id="JF274548" begin="120" fromJunction="J3" toJunction="J0" end="180" vehsPerHour="173.98796089875285" departLane="free"/>
  <flow id="JF274549" begin="120" fromJunction="J0" toJunction="J7" end="180" vehsPerHour="128.55937642946856" departLane="free"/>
  <flow id="JF274550" begin="120" fromJunction="J0" toJunction="J6" end="180" vehsPerHour="100.45908279796076" departLane="free"/>
  <flow id="JF274551" begin="120" fromJunction="J0" toJunction="J4" end="180" vehsPerHour="21.326449766833488" departLane="free"/>
  <flow id="JF274552" begin="120" fromJunction="J0" toJunction="J5" end="180" vehsPerHour="69.4295794993087" departLane="free"/>
  <flow id="JF274553" begin="120" fromJunction="J3" toJunction="J7" end="180" vehsPerHour="127.88794951449918" departLane="free"/>
  <flow id="JF274554" begin="120" fromJunction="J3" toJunction="J6" end="180" vehsPerHour="100.71800230759746" departLane="free"/>
  <flow id="JF274555" begin="120" fromJunction="J3" toJunction="J4" end="180" vehsPerHour="77.18227629510388" departLane="free"/>
  <flow id="JF274556" begin="120" fromJunction="J3" toJunction="J5" end="180" vehsPerHour="40.92007779225827" departLane="free"/>
  <flow id="JF274557" begin="180" fromJunction="J0" toJunction="J3" end="240" vehsPerHour="397.7572122187753" departLane="free"/>
  <flow id="JF274558" begin="180" fromJunction="J3" toJunction="J0" end="240" vehsPerHour="164.32065716118436" departLane="free"/>
  <flow id="JF274559" begin="180" fromJunction="J0" toJunction="J7" end="240" vehsPerHour="122.33847336410942" departLane="free"/>
  <flow id="JF274560" begin="180" fromJunction="J0" toJunction="J6" end="240" vehsPerHour="125.72654719280335" departLane="free"/>
  <flow id="JF274561" begin="180" fromJunction="J0" toJunction="J4" end="240" vehsPerHour="66.70159722203874" departLane="free"/>
  <flow id="JF274562" begin="180" fromJunction="J0" toJunction="J5" end="240" vehsPerHour="11.605796752699568" departLane="free"/>
  <flow id="JF274563" begin="180" fromJunction="J3" toJunction="J7" end="240" vehsPerHour="26.949663916846458" departLane="free"/>
  <flow id="JF274564" begin="180" fromJunction="J3" toJunction="J6" end="240" vehsPerHour="118.27670848518406" departLane="free"/>
  <flow id="JF274565" begin="180" fromJunction="J3" toJunction="J4" end="240" vehsPerHour="0.07199834105478094" departLane="free"/>
  <flow id="JF274566" begin="180" fromJunction="J3" toJunction="J5" end="240" vehsPerHour="22.196692348125342" departLane="free"/>
  <flow id="JF274567" begin="240" fromJunction="J0" toJunction="J3" end="300" vehsPerHour="174.90538182943536" departLane="free"/>
  <flow id="JF274568" begin="240" fromJunction="J3" toJunction="J0" end="300" vehsPerHour="244.730179813941" departLane="free"/>
  <flow id="JF274569" begin="240" fromJunction="J0" toJunction="J7" end="300" vehsPerHour="28.69182091049355" departLane="free"/>
  <flow id="JF274570" begin="240" fromJunction="J0" toJunction="J6" end="300" vehsPerHour="55.788734773832076" departLane="free"/>
  <flow id="JF274571" begin="240" fromJunction="J0" toJunction="J4" end="300" vehsPerHour="110.53667073334964" departLane="free"/>
  <flow id="JF274572" begin="240" fromJunction="J0" toJunction="J5" end="300" vehsPerHour="120.91561790630391" departLane="free"/>
  <flow id="JF274573" begin="240" fromJunction="J3" toJunction="J7" end="300" vehsPerHour="36.240555390241724" departLane="free"/>
  <flow id="JF274574" begin="240" fromJunction="J3" toJunction="J6" end="300" vehsPerHour="80.66119910428291" departLane="free"/>
  <flow id="JF274575" begin="240" fromJunction="J3" toJunction="J4" end="300" vehsPerHour="109.3621528841943" departLane="free"/>
  <flow id="JF274576" begin="240" fromJunction="J3" toJunction="J5" end="300" vehsPerHour="64.94180943029141" departLane="free"/>
  <flow id="JF274577" begin="300" fromJunction="J0" toJunction="J3" end="360" vehsPerHour="370.51563611862554" departLane="free"/>
  <flow id="JF274578" begin="300" fromJunction="J3" toJunction="J0" end="360" vehsPerHour="171.2599146887277" departLane="free"/>
  <flow id="JF274579" begin="300" fromJunction="J0" toJunction="J7" end="360" vehsPerHour="133.5143316935649" departLane="free"/>
  <flow id="JF274580" begin="300" fromJunction="J0" toJunction="J6" end="360" vehsPerHour="123.29800762994867" departLane="free"/>
  <flow id="JF274581" begin="300" fromJunction="J0" toJunction="J4" end="360" vehsPerHour="24.88018490414032" departLane="free"/>
  <flow id="JF274582" begin="300" fromJunction="J0" toJunction="J5" end="360" vehsPerHour="120.08754469539402" departLane="free"/>
  <flow id="JF274583" begin="300" fromJunction="J3" toJunction="J7" end="360" vehsPerHour="83.06925592054034" departLane="free"/>
  <flow id="JF274584" begin="300" fromJunction="J3" toJunction="J6" end="360" vehsPerHour="105.13296176967279" departLane="free"/>
  <flow id="JF274585" begin="300" fromJunction="J3" toJunction="J4" end="360" vehsPerHour="106.19814820976073" departLane="free"/>
  <flow id="JF274586" begin="300" fromJunction="J3" toJunction="J5" end="360" vehsPerHour="68.82626690789513" departLane="free"/>
  <flow id="JF274587" begin="300" fromJunction="J7" toJunction="J6" end="360" vehsPerHour="31.37629457734333" departLane="free"/>
  <flow id="JF274588" begin="300" fromJunction="J7" toJunction="J4" end="360" vehsPerHour="3.5121289849763957" departLane="free"/>
  <flow id="JF274589" begin="300" fromJunction="J7" toJunction="J5" end="360" vehsPerHour="3.5997745950739817" departLane="free"/>
  <flow id="JF274590" begin="300" fromJunction="J6" toJunction="J7" end="360" vehsPerHour="57.13551391804953" departLane="free"/>
  <flow id="JF274591" begin="300" fromJunction="J6" toJunction="J4" end="360" vehsPerHour="26.241847338583984" departLane="free"/>
  <flow id="JF274592" begin="300" fromJunction="J6" toJunction="J5" end="360" vehsPerHour="12.161468420556611" departLane="free"/>
  <flow id="JF274593" begin="300" fromJunction="J4" toJunction="J7" end="360" vehsPerHour="54.07472743766109" departLane="free"/>
  <flow id="JF274594" begin="300" fromJunction="J4" toJunction="J6" end="360" vehsPerHour="29.63739961321442" departLane="free"/>
  <flow id="JF274595" begin="300" fromJunction="J4" toJunction="J5" end="360" vehsPerHour="68.37566526842473" departLane="free"/>
  <flow id="JF274596" begin="300" fromJunction="J5" toJunction="J7" end="360" vehsPerHour="33.11193624958049" departLane="free"/>
  <flow id="JF274597" begin="300" fromJunction="J5" toJunction="J6" end="360" vehsPerHour="19.183781298425142" departLane="free"/>
  <flow id="JF274598" begin="300" fromJunction="J5" toJunction="J4" end="360" vehsPerHour="17.590483124171943" departLane="free"/>
  <flow id="JF274599" begin="300" fromJunction="J7" toJunction="J0" end="360" vehsPerHour="8.80054146665552" departLane="free"/>
  <flow id="JF274600" begin="300" fromJunction="J7" toJunction="J3" end="360" vehsPerHour="20.82500482465728" departLane="free"/>
  <flow id="JF274601" begin="300" fromJunction="J6" toJunction="J0" end="360" vehsPerHour="9.106350862326924" departLane="free"/>
  <flow id="JF274602" begin="300" fromJunction="J6" toJunction="J3" end="360" vehsPerHour="11.380632947388644" departLane="free"/>
  <flow id="JF274603" begin="300" fromJunction="J4" toJunction="J0" end="360" vehsPerHour="0.5028042637892707" departLane="free"/>
  <flow id="JF274604" begin="300" fromJunction="J4" toJunction="J3" end="360" vehsPerHour="25.993258559011537" departLane="free"/>
  <flow id="JF274605" begin="300" fromJunction="J5" toJunction="J0" end="360" vehsPerHour="30.76851493075475" departLane="free"/>
  <flow id="JF274606" begin="300" fromJunction="J5" toJunction="J3" end="360" vehsPerHour="2.802371582089378" departLane="free"/>
  <flow id="JF274607" begin="360" fromJunction="J0" toJunction="J3" end="420" vehsPerHour="118.85507541529083" departLane="free"/>
  <flow id="JF274608" begin="360" fromJunction="J3" toJunction="J0" end="420" vehsPerHour="47.21750361501757" departLane="free"/>
  <flow id="JF274609" begin="360" fromJunction="J0" toJunction="J7" end="420" vehsPerHour="41.69542846205193" departLane="free"/>
  <flow id="JF274610" begin="360" fromJunction="J0" toJunction="J6" end="420" vehsPerHour="130.8417974667053" departLane="free"/>
  <flow id="JF274611" begin="360" fromJunction="J0" toJunction="J4" end="420" vehsPerHour="34.41492289928727" departLane="free"/>
  <flow id="JF274612" begin="360" fromJunction="J0" toJunction="J5" end="420" vehsPerHour="103.29813218214831" departLane="free"/>
  <flow id="JF274613" begin="360" fromJunction="J3" toJunction="J7" end="420" vehsPerHour="75.28154337688733" departLane="free"/>
  <flow id="JF274614" begin="360" fromJunction="J3" toJunction="J6" end="420" vehsPerHour="13.773042227683558" departLane="free"/>
  <flow id="JF274615" begin="360" fromJunction="J3" toJunction="J4" end="420" vehsPerHour="32.61039663136792" departLane="free"/>
  <flow id="JF274616" begin="360" fromJunction="J3" toJunction="J5" end="420" vehsPerHour="137.34341894381876" departLane="free"/>
  <flow id="JF274617" begin="420" fromJunction="J0" toJunction="J3" end="480" vehsPerHour="160.16831506464942" departLane="free"/>
  <flow id="JF274618" begin="420" fromJunction="J3" toJunction="J0" end="480" vehsPerHour="131.0421363360015" departLane="free"/>
  <flow id="JF274619" begin="420" fromJunction="J0" toJunction="J7" end="480" vehsPerHour="53.53233412014678" departLane="free"/>
  <flow id="JF274620" begin="420" fromJunction="J0" toJunction="J6" end="480" vehsPerHour="108.02649560188813" departLane="free"/>
  <flow id="JF274621" begin="420" fromJunction="J0" toJunction="J4" end="480" vehsPerHour="1.8740173824698703" departLane="free"/>
  <flow id="JF274622" begin="420" fromJunction="J0" toJunction="J5" end="480" vehsPerHour="55.46350848178752" departLane="free"/>
  <flow id="JF274623" begin="420" fromJunction="J3" toJunction="J7" end="480" vehsPerHour="70.2183928472616" departLane="free"/>
  <flow id="JF274624" begin="420" fromJunction="J3" toJunction="J6" end="480" vehsPerHour="5.9470271894405276" departLane="free"/>
  <flow id="JF274625" begin="420" fromJunction="J3" toJunction="J4" end="480" vehsPerHour="90.32315458575951" departLane="free"/>
  <flow id="JF274626" begin="420" fromJunction="J3" toJunction="J5" end="480" vehsPerHour="64.6845970151577" departLane="free"/>
  <flow id="JF274627" begin="480" fromJunction="J0" toJunction="J3" end="540" vehsPerHour="70.11018880829543" departLane="free"/>
  <flow id="JF274628" begin="480" fromJunction="J3" toJunction="J0" end="540" vehsPerHour="142.5952618168859" departLane="free"/>
  <flow id="JF274629" begin="480" fromJunction="J0" toJunction="J7" end="540" vehsPerHour="46.82306410875052" departLane="free"/>
  <flow id="JF274630" begin="480" fromJunction="J0" toJunction="J6" end="540" vehsPerHour="57.489407905569614" departLane="free"/>
  <flow id="JF274631" begin="480" fromJunction="J0" toJunction="J4" end="540" vehsPerHour="13.484002519117741" departLane="free"/>
  <flow id="JF274632" begin="480" fromJunction="J0" toJunction="J5" end="540" vehsPerHour="118.08750102940827" departLane="free"/>
  <flow id="JF274633" begin="480" fromJunction="J3" toJunction="J7" end="540" vehsPerHour="58.434381371516935" departLane="free"/>
  <flow id="JF274634" begin="480" fromJunction="J3" toJunction="J6" end="540" vehsPerHour="87.08316417643388" departLane="free"/>
  <flow id="JF274635" begin="480" fromJunction="J3" toJunction="J4" end="540" vehsPerHour="96.92532940531532" departLane="free"/>
  <flow id="JF274636" begin="480" fromJunction="J3" toJunction="J5" end="540" vehsPerHour="90.44307144656447" departLane="free"/>
  <flow id="JF274637" begin="540" fromJunction="J0" toJunction="J3" end="600" vehsPerHour="52.83154630047833" departLane="free"/>
  <flow id="JF274638" begin="540" fromJunction="J3" toJunction="J0" end="600" vehsPerHour="50.631678338966864" departLane="free"/>
  <flow id="JF274639" begin="540" fromJunction="J0" toJunction="J7" end="600" vehsPerHour="58.11919371570858" departLane="free"/>
  <flow id="JF274640" begin="540" fromJunction="J0" toJunction="J6" end="600" vehsPerHour="112.30305828299981" departLane="free"/>
  <flow id="JF274641" begin="540" fromJunction="J0" toJunction="J4" end="600" vehsPerHour="119.85830879319315" departLane="free"/>
  <flow id="JF274642" begin="540" fromJunction="J0" toJunction="J5" end="600" vehsPerHour="90.26158749398697" departLane="free"/>
  <flow id="JF274643" begin="540" fromJunction="J3" toJunction="J7" end="600" vehsPerHour="19.401594822692203" departLane="free"/>
  <flow id="JF274644" begin="540" fromJunction="J3" toJunction="J6" end="600" vehsPerHour="107.1410462273531" departLane="free"/>
  <flow id="JF274645" begin="540" fromJunction="J3" toJunction="J4" end="600" vehsPerHour="75.76454513881833" departLane="free"/>
  <flow id="JF274646" begin="540" fromJunction="J3" toJunction="J5" end="600" vehsPerHour="115.48285694773637" departLane="free"/>
  <flow id="JF274647" begin="540" fromJunction="J7" toJunction="J6" end="600" vehsPerHour="11.579673443988225" departLane="free"/>
  <flow id="JF274648" begin="540" fromJunction="J7" toJunction="J4" end="600" vehsPerHour="16.06982785070509" departLane="free"/>
  <flow id="JF274649" begin="540" fromJunction="J7" toJunction="J5" end="600" vehsPerHour="6.101128833902062" departLane="free"/>
  <flow id="JF274650" begin="540" fromJunction="J6" toJunction="J7" end="600" vehsPerHour="35.620068370401725" departLane="free"/>
  <flow id="JF274651" begin="540" fromJunction="J6" toJunction="J4" end="600" vehsPerHour="21.95609409468941" departLane="free"/>
  <flow id="JF274652" begin="540" fromJunction="J6" toJunction="J5" end="600" vehsPerHour="15.600989154116895" departLane="free"/>
  <flow id="JF274653" begin="540" fromJunction="J4" toJunction="J7" end="600" vehsPerHour="54.65046254480751" departLane="free"/>
  <flow id="JF274654" begin="540" fromJunction="J4" toJunction="J6" end="600" vehsPerHour="12.255971110407275" departLane="free"/>
  <flow id="JF274655" begin="540" fromJunction="J4" toJunction="J5" end="600" vehsPerHour="50.068615777158506" departLane="free"/>
  <flow id="JF274656" begin="540" fromJunction="J5" toJunction="J7" end="600" vehsPerHour="42.14802244904663" departLane="free"/>
  <flow id="JF274657" begin="540" fromJunction="J5" toJunction="J6" end="600" vehsPerHour="16.61952160616449" departLane="free"/>
  <flow id="JF274658" begin="540" fromJunction="J5" toJunction="J4" end="600" vehsPerHour="27.817948965222236" departLane="free"/>
  <flow id="JF274659" begin="540" fromJunction="J7" toJunction="J0" end="600" vehsPerHour="12.990239803931114" departLane="free"/>
  <flow id="JF274660" begin="540" fromJunction="J7" toJunction="J3" end="600" vehsPerHour="21.054024714267438" departLane="free"/>
  <flow id="JF274661" begin="540" fromJunction="J6" toJunction="J0" end="600" vehsPerHour="23.11095786010094" departLane="free"/>
  <flow id="JF274662" begin="540" fromJunction="J6" toJunction="J3" end="600" vehsPerHour="0.43981634732336095" departLane="free"/>
  <flow id="JF274663" begin="540" fromJunction="J4" toJunction="J0" end="600" vehsPerHour="26.41885646135505" departLane="free"/>
  <flow id="JF274664" begin="540" fromJunction="J4" toJunction="J3" end="600" vehsPerHour="1.2950840527294782" departLane="free"/>
  <flow id="JF274665" begin="540" fromJunction="J5" toJunction="J0" end="600" vehsPerHour="21.70943725311251" departLane="free"/>
  <flow id="JF274666" begin="540" fromJunction="J5" toJunction="J3" end="600" vehsPerHour="27.475010279538918" departLane="free"/>
  <flow id="JF274667" begin="600" fromJunction="J0" toJunction="J3" end="660" vehsPerHour="542.4767589457109" departLane="free"/>
  <flow id="JF274668" begin="600" fromJunction="J3" toJunction="J0" end="660" vehsPerHour="186.1054303988989" departLane="free"/>
  <flow id="JF274669" begin="600" fromJunction="J0" toJunction="J7" end="660" vehsPerHour="81.39709387442598" departLane="free"/>
  <flow id="JF274670" begin="600" fromJunction="J0" toJunction="J6" end="660" vehsPerHour="131.4263663976254" departLane="free"/>
  <flow id="JF274671" begin="600" fromJunction="J0" toJunction="J4" end="660" vehsPerHour="8.897739393681986" departLane="free"/>
  <flow id="JF274672" begin="600" fromJunction="J0" toJunction="J5" end="660" vehsPerHour="83.57547763595352" departLane="free"/>
  <flow id="JF274673" begin="600" fromJunction="J3" toJunction="J7" end="660" vehsPerHour="43.64902978701204" departLane="free"/>
  <flow id="JF274674" begin="600" fromJunction="J3" toJunction="J6" end="660" vehsPerHour="12.381772427895926" departLane="free"/>
  <flow id="JF274675" begin="600" fromJunction="J3" toJunction="J4" end="660" vehsPerHour="38.9846282186769" departLane="free"/>
  <flow id="JF274676" begin="600" fromJunction="J3" toJunction="J5" end="660" vehsPerHour="85.84373781815125" departLane="free"/>
  <flow id="JF274677" begin="600" fromJunction="J7" toJunction="J6" end="660" vehsPerHour="14.978168669824164" departLane="free"/>
  <flow id="JF274678" begin="600" fromJunction="J7" toJunction="J4" end="660" vehsPerHour="12.998923165004648" departLane="free"/>
  <flow id="JF274679" begin="600" fromJunction="J7" toJunction="J5" end="660" vehsPerHour="28.59328122709348" departLane="free"/>
  <flow id="JF274680" begin="600" fromJunction="J6" toJunction="J7" end="660" vehsPerHour="37.104910792840876" departLane="free"/>
  <flow id="JF274681" begin="600" fromJunction="J6" toJunction="J4" end="660" vehsPerHour="22.629380020483676" departLane="free"/>
  <flow id="JF274682" begin="600" fromJunction="J6" toJunction="J5" end="660" vehsPerHour="8.778721665981362" departLane="free"/>
  <flow id="JF274683" begin="600" fromJunction="J4" toJunction="J7" end="660" vehsPerHour="66.1560671232924" departLane="free"/>
  <flow id="JF274684" begin="600" fromJunction="J4" toJunction="J6" end="660" vehsPerHour="29.95509761195801" departLane="free"/>
  <flow id="JF274685" begin="600" fromJunction="J4" toJunction="J5" end="660" vehsPerHour="33.35753761512244" departLane="free"/>
  <flow id="JF274686" begin="600" fromJunction="J5" toJunction="J7" end="660" vehsPerHour="25.023988970333356" departLane="free"/>
  <flow id="JF274687" begin="600" fromJunction="J5" toJunction="J6" end="660" vehsPerHour="0.6650229086009166" departLane="free"/>
  <flow id="JF274688" begin="600" fromJunction="J5" toJunction="J4" end="660" vehsPerHour="8.426020768616985" departLane="free"/>
  <flow id="JF274689" begin="600" fromJunction="J7" toJunction="J0" end="660" vehsPerHour="4.9688373826088075" departLane="free"/>
  <flow id="JF274690" begin="600" fromJunction="J7" toJunction="J3" end="660" vehsPerHour="25.564283511381504" departLane="free"/>
  <flow id="JF274691" begin="600" fromJunction="J6" toJunction="J0" end="660" vehsPerHour="30.18511038977322" departLane="free"/>
  <flow id="JF274692" begin="600" fromJunction="J6" toJunction="J3" end="660" vehsPerHour="13.855147209192733" departLane="free"/>
  <flow id="JF274693" begin="600" fromJunction="J4" toJunction="J0" end="660" vehsPerHour="15.618474206118117" departLane="free"/>
  <flow id="JF274694" begin="600" fromJunction="J4" toJunction="J3" end="660" vehsPerHour="14.71031973584698" departLane="free"/>
  <flow id="JF274695" begin="600" fromJunction="J5" toJunction="J0" end="660" vehsPerHour="11.626466297751584" departLane="free"/>
  <flow id="JF274696" begin="600" fromJunction="J5" toJunction="J3" end="660" vehsPerHour="23.152678003674655" departLane="free"/>
  <flow id="JF274697" begin="660" fromJunction="J0" toJunction="J3" end="720" vehsPerHour="419.05200546935674" departLane="free"/>
  <flow id="JF274698" begin="660" fromJunction="J3" toJunction="J0" end="720" vehsPerHour="17.432144893716877" departLane="free"/>
  <flow id="JF274699" begin="660" fromJunction="J0" toJunction="J7" end="720" vehsPerHour="3.574083670719373" departLane="free"/>
  <flow id="JF274700" begin="660" fromJunction="J0" toJunction="J6" end="720" vehsPerHour="4.363433110307092" departLane="free"/>
  <flow id="JF274701" begin="660" fromJunction="J0" toJunction="J4" end="720" vehsPerHour="23.940273039023094" departLane="free"/>
  <flow id="JF274702" begin="660" fromJunction="J0" toJunction="J5" end="720" vehsPerHour="0.8587843581567012" departLane="free"/>
  <flow id="JF274703" begin="660" fromJunction="J3" toJunction="J7" end="720" vehsPerHour="9.281685153554344" departLane="free"/>
  <flow id="JF274704" begin="660" fromJunction="J3" toJunction="J6" end="720" vehsPerHour="40.73034650447301" departLane="free"/>
  <flow id="JF274705" begin="660" fromJunction="J3" toJunction="J4" end="720" vehsPerHour="44.263714187526276" departLane="free"/>
  <flow id="JF274706" begin="660" fromJunction="J3" toJunction="J5" end="720" vehsPerHour="17.3205821885892" departLane="free"/>
  <flow id="JF274707" begin="660" fromJunction="J7" toJunction="J6" end="720" vehsPerHour="12.72962145653535" departLane="free"/>
  <flow id="JF274708" begin="660" fromJunction="J7" toJunction="J4" end="720" vehsPerHour="18.006203495199237" departLane="free"/>
  <flow id="JF274709" begin="660" fromJunction="J7" toJunction="J5" end="720" vehsPerHour="24.297296626061843" departLane="free"/>
  <flow id="JF274710" begin="660" fromJunction="J6" toJunction="J7" end="720" vehsPerHour="15.630609918962488" departLane="free"/>
  <flow id="JF274711" begin="660" fromJunction="J6" toJunction="J4" end="720" vehsPerHour="24.900386451164376" departLane="free"/>
  <flow id="JF274712" begin="660" fromJunction="J6" toJunction="J5" end="720" vehsPerHour="5.606615428106619" departLane="free"/>
  <flow id="JF274713" begin="660" fromJunction="J4" toJunction="J7" end="720" vehsPerHour="37.99752516430691" departLane="free"/>
  <flow id="JF274714" begin="660" fromJunction="J4" toJunction="J6" end="720" vehsPerHour="33.69822782525572" departLane="free"/>
  <flow id="JF274715" begin="660" fromJunction="J4" toJunction="J5" end="720" vehsPerHour="16.84800241141073" departLane="free"/>