<?xml version="1.0" encoding="UTF-8"?>
<routes xmlns:xsi="http://www.w3.org/2001/XMLSchema-instance" xsi:noNamespaceSchemaLocation="http://sumo.dlr.de/xsd/routes_file.xsd">
  <flow id="JF282387" begin="0" fromJunction="J0" toJunction="J3" end="60" vehsPerHour="351.0913003779147" departLane="free"/>
  <flow id="JF282388" begin="0" fromJunction="J3" toJunction="J0" end="60" vehsPerHour="205.16683082476425" departLane="free"/>
  <flow id="JF282389" begin="0" fromJunction="J0" toJunction="J7" end="60" vehsPerHour="28.67158959997883" departLane="free"/>
  <flow id="JF282390" begin="0" fromJunction="J0" toJunction="J6" end="60" vehsPerHour="122.73785987445913" departLane="free"/>
  <flow id="JF282391" begin="0" fromJunction="J0" toJunction="J4" end="60" vehsPerHour="132.3796691222219" departLane="free"/>
  <flow id="JF282392" begin="0" fromJunction="J0" toJunction="J5" end="60" vehsPerHour="7.054531200614741" departLane="free"/>
  <flow id="JF282393" begin="0" fromJunction="J3" toJunction="J7" end="60" vehsPerHour="120.641979044417" departLane="free"/>
  <flow id="JF282394" begin="0" fromJunction="J3" toJunction="J6" end="60" vehsPerHour="77.79246510687886" departLane="free"/>
  <flow id="JF282395" begin="0" fromJunction="J3" toJunction="J4" end="60" vehsPerHour="35.38552147112181" departLane="free"/>
  <flow id="JF282396" begin="0" fromJunction="J3" toJunction="J5" end="60" vehsPerHour="19.035195086756204" departLane="free"/>
  <flow id="JF282397" begin="60" fromJunction="J0" toJunction="J3" end="120" vehsPerHour="147.16534786764635" departLane="free"/>
  <flow id="JF282398" begin="60" fromJunction="J3" toJunction="J0" end="120" vehsPerHour="160.1445380725293" departLane="free"/>
  <flow id="JF282399" begin="60" fromJunction="J0" toJunction="J7" end="120" vehsPerHour="54.65626548833092" departLane="free"/>
  <flow id="JF282400" begin="60" fromJunction="J0" toJunction="J6" end="120" vehsPerHour="129.1726910503612" departLane="free"/>
  <flow id="JF282401" begin="60" fromJunction="J0" toJunction="J4" end="120" vehsPerHour="135.99650082204406" departLane="free"/>
  <flow id="JF282402" begin="60" fromJunction="J0" toJunction="J5" end="120" vehsPerHour="41.959528689799704" departLane="free"/>
  <flow id="JF282403" begin="60" fromJunction="J3" toJunction="J7" end="120" vehsPerHour="93.90046815177264" departLane="free"/>
  <flow id="JF282404" begin="60" fromJunction="J3" toJunction="J6" end="120" vehsPerHour="94.62331556857048" departLane="free"/>
  <flow id="JF282405" begin="60" fromJunction="J3" toJunction="J4" end="120" vehsPerHour="104.55889621204139" departLane="free"/>
  <flow id="JF282406" begin="60" fromJunction="J3" toJunction="J5" end="120" vehsPerHour="132.94247159894365" departLane="free"/>
  <flow id="JF282407" begin="60" fromJunction="J7" toJunction="J6" end="120" vehsPerHour="9.112295715730204" departLane="free"/>
  <flow id="JF282408" begin="60" fromJunction="J7" toJunction="J4" end="120" vehsPerHour="16.889140271390477" departLane="free"/>
  <flow id="JF282409" begin="60" fromJunction="J7" toJunction="J5" end="120" vehsPerHour="25.843887708948053" departLane="free"/>
  <flow id="JF282410" begin="60" fromJunction="J6" toJunction="J7" end="120" vehsPerHour="38.335995001753965" departLane="free"/>
  <flow id="JF282411" begin="60" fromJunction="J6" toJunction="J4" end="120" vehsPerHour="28.974587715202585" departLane="free"/>
  <flow id="JF282412" begin="60" fromJunction="J6" toJunction="J5" end="120" vehsPerHour="30.939536987880086" departLane="free"/>
  <flow id="JF282413" begin="60" fromJunction="J4" toJunction="J7" end="120" vehsPerHour="59.0677014428649" departLane="free"/>
  <flow id="JF282414" begin="60" fromJunction="J4" toJunction="J6" end="120" vehsPerHour="25.875167340620255" departLane="free"/>
  <flow id="JF282415" begin="60" fromJunction="J4" toJunction="J5" end="120" vehsPerHour="20.058610952242866" departLane="free"/>
  <flow id="JF282416" begin="60" fromJunction="J5" toJunction="J7" end="120" vehsPerHour="36.993511280535685" departLane="free"/>
  <flow id="JF282417" begin="60" fromJunction="J5" toJunction="J6" end="120" vehsPerHour="54.95274948968771" departLane="free"/>
  <flow id="JF282418" begin="60" fromJunction="J5" toJunction="J4" end="120" vehsPerHour="24.327902765635113" departLane="free"/>
  <flow id="JF282419" begin="60" fromJunction="J7" toJunction="J0" end="120" vehsPerHour="21.345577098277698" departLane="free"/>
  <flow id="JF282420" begin="60" fromJunction="J7" toJunction="J3" end="120" vehsPerHour="14.318478099060577" departLane="free"/>
  <flow id="JF282421" begin="60" fromJunction="J6" toJunction="J0" end="120" vehsPerHour="7.295989736851481" departLane="free"/>
  <flow id="JF282422" begin="60" fromJunction="J6" toJunction="J3" end="120" vehsPerHour="2.963654457945716" departLane="free"/>
  <flow id="JF282423" begin="60" fromJunction="J4" toJunction="J0" end="120" vehsPerHour="28.273722167341532" departLane="free"/>
  <flow id="JF282424" begin="60" fromJunction="J4" toJunction="J3" end="120" vehsPerHour="7.398741412134956" departLane="free"/>
  <flow id="JF282425" begin="60" fromJunction="J5" toJunction="J0" end="120" vehsPerHour="3.98968786124829" departLane="free"/>
  <flow id="JF282426" begin="60" fromJunction="J5" toJunction="J3" end="120" vehsPerHour="22.984206842221624" departLane="free"/>
  <flow id="JF282427" begin="120" fromJunction="J0" toJunction="J3" end="180" vehsPerHour="535.6302850780071" departLane="free"/>
  <flow id="JF282428" begin="120" fromJunction="J3" toJunction="J0" end="180" vehsPerHour="151.95881270639805" departLane="free"/>
  <flow id="JF282429" begin="120" fromJunction="J0" toJunction="J7" end="180" vehsPerHour="117.1663688110483" departLane="free"/>
  <flow id="JF282430" begin="120" fromJunction="J0" toJunction="J6" end="180" vehsPerHour="25.964988326021846" departLane="free"/>
  <flow id="JF282431" begin="120" fromJunction="J0" toJunction="J4" end="180" vehsPerHour="13.484551881796367" departLane="free"/>
  <flow id="JF282432" begin="120" fromJunction="J0" toJunction="J5" end="180" vehsPerHour="98.99006433810453" departLane="free"/>
  <flow id="JF282433" begin="120" fromJunction="J3" toJunction="J7" end="180" vehsPerHour="89.37162201490898" departLane="free"/>
  <flow id="JF282434" begin="120" fromJunction="J3" toJunction="J6" end="180" vehsPerHour="14.784978152226213" departLane="free"/>
  <flow id="JF282435" begin="120" fromJunction="J3" toJunction="J4" end="180" vehsPerHour="101.63510364865593" departLane="free"/>
  <flow id="JF282436" begin="120" fromJunction="J3" toJunction="J5" end="180" vehsPerHour="48.40311735048923" departLane="free"/>
  <flow id="JF282437" begin="120" fromJunction="J7" toJunction="J6" end="180" vehsPerHour="32.010749182326265" departLane="free"/>
  <flow id="JF282438" begin="120" fromJunction="J7" toJunction="J4" end="180" vehsPerHour="10.074308555175456" departLane="free"/>
  <flow id="JF282439" begin="120" fromJunction="J7" toJunction="J5" end="180" vehsPerHour="11.504206369893547" departLane="free"/>
  <flow id="JF282440" begin="120" fromJunction="J6" toJunction="J7" end="180" vehsPerHour="8.742101247151977" departLane="free"/>
  <flow id="JF282441" begin="120" fromJunction="J6" toJunction="J4" end="180" vehsPerHour="27.641580446555228" departLane="free"/>
  <flow id="JF282442" begin="120" fromJunction="J6" toJunction="J5" end="180" vehsPerHour="28.62288009213203" departLane="free"/>
  <flow id="JF282443" begin="120" fromJunction="J4" toJunction="J7" end="180" vehsPerHour="54.65392421258555" departLane="free"/>
  <flow id="JF282444" begin="120" fromJunction="J4" toJunction="J6" end="180" vehsPerHour="43.4825498606316" departLane="free"/>
  <flow id="JF282445" begin="120" fromJunction="J4" toJunction="J5" end="180" vehsPerHour="3.3637495225189773" departLane="free"/>
  <flow id="JF282446" begin="120" fromJunction="J5" toJunction="J7" end="180" vehsPerHour="3.0497246605414814" departLane="free"/>
  <flow id="JF282447" begin="120" fromJunction="J5" toJunction="J6" end="180" vehsPerHour="52.58252272428279" departLane="free"/>
  <flow id="JF282448" begin="120" fromJunction="J5" toJunction="J4" end="180" vehsPerHour="30.245373490016235" departLane="free"/>
  <flow id="JF282449" begin="120" fromJunction="J7" toJunction="J0" end="180" vehsPerHour="31.060698796245532" departLane="free"/>
  <flow id="JF282450" begin="120" fromJunction="J7" toJunction="J3" end="180" vehsPerHour="12.207653924191224" departLane="free"/>
  <flow id="JF282451" begin="120" fromJunction="J6" toJunction="J0" end="180" vehsPerHour="2.327967684821049" departLane="free"/>
  <flow id="JF282452" begin="120" fromJunction="J6" toJunction="J3" end="180" vehsPerHour="18.396008066237318" departLane="free"/>
  <flow id="JF282453" begin="120" fromJunction="J4" toJunction="J0" end="180" vehsPerHour="30.355377982941828" departLane="free"/>
  <flow id="JF282454" begin="120" fromJunction="J4" toJunction="J3" end="180" vehsPerHour="19.330631542375986" departLane="free"/>
  <flow id="JF282455" begin="120" fromJunction="J5" toJunction="J0" end="180" vehsPerHour="26.407856952013695" departLane="free"/>
  <flow id="JF282456" begin="120" fromJunction="J5" toJunction="J3" end="180" vehsPerHour="5.975029744366583" departLane="free"/>
  <flow id="JF282457" begin="180" fromJunction="J0" toJunction="J3" end="240" vehsPerHour="18.099382485985547" departLane="free"/>
  <flow id="JF282458" begin="180" fromJunction="J3" toJunction="J0" end="240" vehsPerHour="123.60889835803961" departLane="free"/>
  <flow id="JF282459" begin="180" fromJunction="J0" toJunction="J7" end="240" vehsPerHour="98.73664916238381" departLane="free"/>
  <flow id="JF282460" begin="180" fromJunction="J0" toJunction="J6" end="240" vehsPerHour="46.60203312999845" departLane="free"/>
  <flow id="JF282461" begin="180" fromJunction="J0" toJunction="J4" end="240" vehsPerHour="38.17979067969998" departLane="free"/>
  <flow id="JF282462" begin="180" fromJunction="J0" toJunction="J5" end="240" vehsPerHour="131.76429680193667" departLane="free"/>
  <flow id="JF282463" begin="180" fromJunction="J3" toJunction="J7" end="240" vehsPerHour="118.20273278392047" departLane="free"/>
  <flow id="JF282464" begin="180" fromJunction="J3" toJunction="J6" end="240" vehsPerHour="54.74684491221112" departLane="free"/>
  <flow id="JF282465" begin="180" fromJunction="J3" toJunction="J4" end="240" vehsPerHour="72.82456652200054" departLane="free"/>
  <flow id="JF282466" begin="180" fromJunction="J3" toJunction="J5" end="240" vehsPerHour="10.361882635350796" departLane="free"/>
  <flow id="JF282467" begin="180" fromJunction="J7" toJunction="J6" end="240" vehsPerHour="33.016169466104415" departLane="free"/>
  <flow id="JF282468" begin="180" fromJunction="J7" toJunction="J4" end="240" vehsPerHour="33.20783316451688" departLane="free"/>
  <flow id="JF282469" begin="180" fromJunction="J7" toJunction="J5" end="240" vehsPerHour="23.58051073612955" departLane="free"/>
  <flow id="JF282470" begin="180" fromJunction="J6" toJunction="J7" end="240" vehsPerHour="7.1970867821968065" departLane="free"/>
  <flow id="JF282471" begin="180" fromJunction="J6" toJunction="J4" end="240" vehsPerHour="2.1102575502287086" departLane="free"/>
  <flow id="JF282472" begin="180" fromJunction="J6" toJunction="J5" end="240" vehsPerHour="11.2420548447672" departLane="free"/>
  <flow id="JF282473" begin="180" fromJunction="J4" toJunction="J7" end="240" vehsPerHour="33.862665386530615" departLane="free"/>
  <flow id="JF282474" begin="180" fromJunction="J4" toJunction="J6" end="240" vehsPerHour="13.551265676351445" departLane="free"/>
  <flow id="JF282475" begin="180" fromJunction="J4" toJunction="J5" end="240" vehsPerHour="11.934907213925305" departLane="free"/>
  <flow id="JF282476" begin="180" fromJunction="J5" toJunction="J7" end="240" vehsPerHour="25.45595384227286" departLane="free"/>
  <flow id="JF282477" begin="180" fromJunction="J5" toJunction="J6" end="240" vehsPerHour="19.874349842932496" departLane="free"/>
  <flow id="JF282478" begin="180" fromJunction="J5" toJunction="J4" end="240" vehsPerHour="20.73924466972994" departLane="free"/>
  <flow id="JF282479" begin="180" fromJunction="J7" toJunction="J0" end="240" vehsPerHour="28.993214050035206" departLane="free"/>
  <flow id="JF282480" begin="180" fromJunction="J7" toJunction="J3" end="240" vehsPerHour="2.558454083152972" departLane="free"/>
  <flow id="JF282481" begin="180" fromJunction="J6" toJunction="J0" end="240" vehsPerHour="22.853981497816896" departLane="free"/>
  <flow id="JF282482" begin="180" fromJunction="J6" toJunction="J3" end="240" vehsPerHour="4.043591674956805" departLane="free"/>
  <flow id="JF282483" begin="180" fromJunction="J4" toJunction="J0" end="240" vehsPerHour="4.502339320404785" departLane="free"/>
  <flow id="JF282484" begin="180" fromJunction="J4" toJunction="J3" end="240" vehsPerHour="13.697707797156177" departLane="free"/>
  <flow id="JF282485" begin="180" fromJunction="J5" toJunction="J0" end="240" vehsPerHour="1.8520266278529995" departLane="free"/>
  <flow id="JF282486" begin="180" fromJunction="J5" toJunction="J3" end="240" vehsPerHour="3.013380547640781" departLane="free"/>
  <flow id="JF282487" begin="240" fromJunction="J0" toJunction="J3" end="300" vehsPerHour="91.75294090402684" departLane="free"/>
  <flow id="JF282488" begin="240" fromJunction="J3" toJunction="J0" end="300" vehsPerHour="6.227073637480233" departLane="free"/>
  <flow id="JF282489" begin="240" fromJunction="J0" toJunction="J7" end="300" vehsPerHour="69.36470064785844" departLane="free"/>
  <flow id="JF282490" begin="240" fromJunction="J0" toJunction="J6" end="300" vehsPerHour="19.238779668304762" departLane="free"/>
  <flow id="JF282491" begin="240" fromJunction="J0" toJunction="J4" end="300" vehsPerHour="51.19008542286426" departLane="free"/>
  <flow id="JF282492" begin="240" fromJunction="J0" toJunction="J5" end="300" vehsPerHour="59.2872552587616" departLane="free"/>
  <flow id="JF282493" begin="240" fromJunction="J3" toJunction="J7" end="300" vehsPerHour="113.70168908639927" departLane="free"/>
  <flow id="JF282494" begin="240" fromJunction="J3" toJunction="J6" end="300" vehsPerHour="29.30766961969971" departLane="free"/>
  <flow id="JF282495" begin="240" fromJunction="J3" toJunction="J4" end="300" vehsPerHour="123.61166915730621" departLane="free"/>
  <flow id="JF282496" begin="240" fromJunction="J3" toJunction="J5" end="300" vehsPerHour="30.524567491032535" departLane="free"/>
  <flow id="JF282497" begin="240" fromJunction="J7" toJunction="J6" end="300" vehsPerHour="7.991822685296396" departLane="free"/>
  <flow id="JF282498" begin="240" fromJunction="J7" toJunction="J4" end="300" vehsPerHour="34.207600629500895" departLane="free"/>
  <flow id="JF282499" begin="240" fromJunction="J7" toJunction="J5" end="300" vehsPerHour="32.36217514439816" departLane="free"/>
  <flow id="JF282500" begin="240" fromJunction="J6" toJunction="J7" end="300" vehsPerHour="67.1521323352006" departLane="free"/>
  <flow id="JF282501" begin="240" fromJunction="J6" toJunction="J4" end="300" vehsPerHour="32.19670336537303" departLane="free"/>
  <flow id="JF282502" begin="240" fromJunction="J6" toJunction="J5" end="300" vehsPerHour="28.77209536450445" departLane="free"/>
  <flow id="JF282503" begin="240" fromJunction="J4" toJunction="J7" end="300" vehsPerHour="53.93763095479705" departLane="free"/>
  <flow id="JF282504" begin="240" fromJunction="J4" toJunction="J6" end="300" vehsPerHour="12.019401305158357" departLane="free"/>
  <flow id="JF282505" begin="240" fromJunction="J4" toJunction="J5" end="300" vehsPerHour="39.745080171861986" departLane="free"/>
  <flow id="JF282506" begin="240" fromJunction="J5" toJunction="J7" end="300" vehsPerHour="5.0702731892408615" departLane="free"/>
  <flow id="JF282507" begin="240" fromJunction="J5" toJunction="J6" end="300" vehsPerHour="64.92390420280822" departLane="free"/>
  <flow id="JF282508" begin="240" fromJunction="J5" toJunction="J4" end="300" vehsPerHour="2.99399646909987" departLane="free"/>
  <flow id="JF282509" begin="240" fromJunction="J7" toJunction="J0" end="300" vehsPerHour="17.052847240621116" departLane="free"/>
  <flow id="JF282510" begin="240" fromJunction="J7" toJunction="J3" end="300" vehsPerHour="16.268286369195472" departLane="free"/>
  <flow id="JF282511" begin="240" fromJunction="J6" toJunction="J0" end="300" vehsPerHour="10.970189051620011" departLane="free"/>
  <flow id="JF282512" begin="240" fromJunction="J6" toJunction="J3" end="300" vehsPerHour="15.453588025657602" departLane="free"/>
  <flow id="JF282513" begin="240" fromJunction="J4" toJunction="J0" end="300" vehsPerHour="19.421998848803362" departLane="free"/>
  <flow id="JF282514" begin="240" fromJunction="J4" toJunction="J3" end="300" vehsPerHour="16.825512509609197" departLane="free"/>
  <flow id="JF282515" begin="240" fromJunction="J5" toJunction="J0" end="300" vehsPerHour="9.253437254340986" departLane="free"/>
  <flow id="JF282516" begin="240" fromJunction="J5" toJunction="J3" end="300" vehsPerHour="11.935040932197525" departLane="free"/>
  <flow id="JF282517" begin="300" fromJunction="J0" toJunction="J3" end="360" vehsPerHour="400.09178184283695" departLane="free"/>
  <flow id="JF282518" begin="300" fromJunction="J3" toJunction="J0" end="360" vehsPerHour="139.8360763316125" departLane="free"/>
  <flow id="JF282519" begin="300" fromJunction="J0" toJunction="J7" end="360" vehsPerHour="92.10618772784107" departLane="free"/>
  <flow id="JF282520" begin="300" fromJunction="J0" toJunction="J6" end="360" vehsPerHour="69.75756767597036" departLane="free"/>
  <flow id="JF282521" begin="300" fromJunction="J0" toJunction="J4" end="360" vehsPerHour="9.732971747645056" departLane="free"/>
  <flow id="JF282522" begin="300" fromJunction="J0" toJunction="J5" end="360" vehsPerHour="74.34958284845447" departLane="free"/>
  <flow id="JF282523" begin="300" fromJunction="J3" toJunction="J7" end="360" vehsPerHour="73.95266182324205" departLane="free"/>
  <flow id="JF282524" begin="300" fromJunction="J3" toJunction="J6" end="360" vehsPerHour="100.64166836402669" departLane="free"/>
  <flow id="JF282525" begin="300" fromJunction="J3" toJunction="J4" end="360" vehsPerHour="18.37816551908626" departLane="free"/>
  <flow id="JF282526" begin="300" fromJunction="J3" toJunction="J5" end="360" vehsPerHour="82.80557732721478" departLane="free"/>
  <flow id="JF282527" begin="360" fromJunction="J0" toJunction="J3" end="420" vehsPerHour="381.58042068801376" departLane="free"/>
  <flow id="JF282528" begin="360" fromJunction="J3" toJunction="J0" end="420" vehsPerHour="146.94842951479302" departLane="free"/>
  <flow id="JF282529" begin="360" fromJunction="J0" toJunction="J7" end="420" vehsPerHour="80.97769312426573" departLane="free"/>
  <flow id="JF282530" begin="360" fromJunction="J0" toJunction="J6" end="420" vehsPerHour="82.36199112956126" departLane="free"/>
  <flow id="JF282531" begin="360" fromJunction="J0" toJunction="J4" end="420" vehsPerHour="26.596551251889576" departLane="free"/>
  <flow id="JF282532" begin="360" fromJunction="J0" toJunction="J5" end="420" vehsPerHour="1.7680377955144557" departLane="free"/>
  <flow id="JF282533" begin="360" fromJunction="J3" toJunction="J7" end="420" vehsPerHour="89.48811194446054" departLane="free"/>
  <flow id="JF282534" begin="360" fromJunction="J3" toJunction="J6" end="420" vehsPerHour="29.986103866170136" departLane="free"/>
  <flow id="JF282535" begin="360" fromJunction="J3" toJunction="J4" end="420" vehsPerHour="8.107959019367113" departLane="free"/>
  <flow id="JF282536" begin="360" fromJunction="J3" toJunction="J5" end="420" vehsPerHour="103.39226315168737" departLane="free"/>
  <flow id="JF282537" begin="360" fromJunction="J7" toJunction="J6" end="420" vehsPerHour="25.385873353471485" departLane="free"/>
  <flow id="JF282538" begin="360" fromJunction="J7" toJunction="J4" end="420" vehsPerHour="8.76771252517354" departLane="free"/>
  <flow id="JF282539" begin="360" fromJunction="J7" toJunction="J5" end="420" vehsPerHour="22.390537836463533" departLane="free"/>
  <flow id="JF282540" begin="360" fromJunction="J6" toJunction="J7" end="420" vehsPerHour="45.93968935506693" departLane="free"/>
  <flow id="JF282541" begin="360" fromJunction="J6" toJunction="J4" end="420" vehsPerHour="32.654748328677485" departLane="free"/>
  <flow id="JF282542" begin="360" fromJunction="J6" toJunction="J5" end="420" vehsPerHour="10.78093057563916" departLane="free"/>
  <flow id="JF282543" begin="360" fromJunction="J4" toJunction="J7" end="420" vehsPerHour="31.92742002792072" departLane="free"/>
  <flow id="JF282544" begin="360" fromJunction="J4" toJunction="J6" end="420" vehsPerHour="47.089191089854666" departLane="free"/>
  <flow id="JF282545" begin="360" fromJunction="J4" toJunction="J5" end="420" vehsPerHour="16.848317482579372" departLane="free"/>
  <flow id="JF282546" begin="360" fromJunction="J5" toJunction="J7" end="420" vehsPerHour="41.02450507004778" departLane="free"/>
  <flow id="JF282547" begin="360" fromJunction="J5" toJunction="J6" end="420" vehsPerHour="30.86402031840783" departLane="free"/>
  <flow id="JF282548" begin="360" fromJunction="J5" toJunction="J4" end="420" vehsPerHour="23.09878791885645" departLane="free"/>
  <flow id="JF282549" begin="360" fromJunction="J7" toJunction="J0" end="420" vehsPerHour="24.024030818768228" departLane="free"/>
  <flow id="JF282550" begin="360" fromJunction="J7" toJunction="J3" end="420" vehsPerHour="29.36357950960041" departLane="free"/>
  <flow id="JF282551" begin="360" fromJunction="J6" toJunction="J0" end="420" vehsPerHour="33.44903814745664" departLane="free"/>
  <flow id="JF282552" begin="360" fromJunction="J6" toJunction="J3" end="420" vehsPerHour="26.260889662177785" departLane="free"/>
  <flow id="JF282553" begin="360" fromJunction="J4" toJunction="J0" end="420" vehsPerHour="27.05309879242763" departLane="free"/>
  <flow id="JF282554" begin="360" fromJunction="J4" toJunction="J3" end="420" vehsPerHour="10.623047394726857" departLane="free"/>
  <flow id="JF282555" begin="360" fromJunction="J5" toJunction="J0" end="420" vehsPerHour="14.723019308792486" departLane="free"/>
  <flow id="JF282556" begin="360" fromJunction="J5" toJunction="J3" end="420" vehsPerHour="33.6257140692812" departLane="free"/>
  <flow id="JF282557" begin="420" fromJunction="J0" toJunction="J3" end="480" vehsPerHour="404.95051380548307" departLane="free"/>
  <flow id="JF282558" begin="420" fromJunction="J3" toJunction="J0" end="480" vehsPerHour="223.92940113784948" departLane="free"/>
  <flow id="JF282559" begin="420" fromJunction="J0" toJunction="J7" end="480" vehsPerHour="43.48567373930774" departLane="free"/>
  <flow id="JF282560" begin="420" fromJunction="J0" toJunction="J6" end="480" vehsPerHour="6.421991486512233" departLane="free"/>
  <flow id="JF282561" begin="420" fromJunction="J0" toJunction="J4" end="480" vehsPerHour="97.59050569918884" departLane="free"/>
  <flow id="JF282562" begin="420" fromJunction="J0" toJunction="J5" end="480" vehsPerHour="105.38818894475831" departLane="free"/>
  <flow id="JF282563" begin="420" fromJunction="J3" toJunction="J7" end="480" vehsPerHour="57.61173901008754" departLane="free"/>
  <flow id="JF282564" begin="420" fromJunction="J3" toJunction="J6" end="480" vehsPerHour="100.51445202282392" departLane="free"/>
  <flow id="JF282565" begin="420" fromJunction="J3" toJunction="J4" end="480" vehsPerHour="108.05348448347348" departLane="free"/>
  <flow id="JF282566" begin="420" fromJunction="J3" toJunction="J5" end="480" vehsPerHour="117.10873510888602" departLane="free"/>
  <flow id="JF282567" begin="420" fromJunction="J7" toJunction="J6" end="480" vehsPerHour="16.48968985881314" departLane="free"/>
  <flow id="JF282568" begin="420" fromJunction="J7" toJunction="J4" end="480" vehsPerHour="7.696256638422795" departLane="free"/>
  <flow id="JF282569" begin="420" fromJunction="J7" toJunction="J5" end="480" vehsPerHour="7.5796069280080935" departLane="free"/>
  <flow id="JF282570" begin="420" fromJunction="J6" toJunction="J7" end="480" vehsPerHour="37.20105279482634" departLane="free"/>
  <flow id="JF282571" begin="420" fromJunction="J6" toJunction="J4" end="480" vehsPerHour="13.133979794194135" departLane="free"/>
  <flow id="JF282572" begin="420" fromJunction="J6" toJunction="J5" end="480" vehsPerHour="9.95712685474163" departLane="free"/>
  <flow id="JF282573" begin="420" fromJunction="J4" toJunction="J7" end="480" vehsPerHour="21.7078689796427" departLane="free"/>
  <flow id="JF282574" begin="420" fromJunction="J4" toJunction="J6" end="480" vehsPerHour="37.03450016262783" departLane="free"/>
  <flow id="JF282575" begin="420" fromJunction="J4" toJunction="J5" end="480" vehsPerHour="44.3076273373588" departLane="free"/>
  <flow id="JF282576" begin="420" fromJunction="J5" toJunction="J7" end="480" vehsPerHour="20.926809883226873" departLane="free"/>
  <flow id="JF282577" begin="420" fromJunction="J5" toJunction="J6" end="480" vehsPerHour="17.433273229572404" departLane="free"/>
  <flow id="JF282578" begin="420" fromJunction="J5" toJunction="J4" end="480" vehsPerHour="6.876439825187923" departLane="free"/>
  <flow id="JF282579" begin="420" fromJunction="J7" toJunction="J0" end="480" vehsPerHour="25.767804518983098" departLane="free"/>
  <flow id="JF282580" begin="420" fromJunction="J7" toJunction="J3" end="480" vehsPerHour="11.254637847758264" departLane="free"/>
  <flow id="JF282581" begin="420" fromJunction="J6" toJunction="J0" end="480" vehsPerHour="26.664346453942155" departLane="free"/>
  <flow id="JF282582" begin="420" fromJunction="J6" toJunction="J3" end="480" vehsPerHour="12.419400198876774" departLane="free"/>
  <flow id="JF282583" begin="420" fromJunction="J4" toJunction="J0" end="480" vehsPerHour="18.226559912505834" departLane="free"/>
  <flow id="JF282584" begin="420" fromJunction="J4" toJunction="J3" end="480" vehsPerHour="8.647713585664816" departLane="free"/>
  <flow id="JF282585" begin="420" fromJunction="J5" toJunction="J0" end="480" vehsPerHour="5.657094063015025" departLane="free"/>
  <flow id="JF282586" begin="420" fromJunction="J5" toJunction="J3" end="480" vehsPerHour="20.654125193985244" departLane="free"/>
  <flow id="JF282587" begin="480" fromJunction="J0" toJunction="J3" end="540" vehsPerHour="399.4101574577677" departLane="free"/>
  <flow id="JF282588" begin="480" fromJunction="J3" toJunction="J0" end="540" vehsPerHour="72.87873668915303" departLane="free"/>
  <flow id="JF282589" begin="480" fromJunction="J0" toJunction="J7" end="540" vehsPerHour="110.25317338138895" departLane="free"/>
  <flow id="JF282590" begin="480" fromJunction="J0" toJunction="J6" end="540" vehsPerHour="37.72812087774555" departLane="free"/>
  <flow id="JF282591" begin="480" fromJunction="J0" toJunction="J4" end="540" vehsPerHour="29.51365281716974" departLane="free"/>
  <flow id="JF282592" begin="480" fromJunction="J0" toJunction="J5" end="540" vehsPerHour="23.951396380948545" departLane="free"/>
  <flow id="JF282593" begin="480" fromJunction="J3" toJunction="J7" end="540" vehsPerHour="99.60621903551773" departLane="free"/>
  <flow id="JF282594" begin="480" fromJunction="J3" toJunction="J6" end="540" vehsPerHour="13.891153751905549" departLane="free"/>
  <flow id="JF282595" begin="480" fromJunction="J3" toJunction="J4" end="540" vehsPerHour="111.01504657044516" departLane="free"/>
  <flow id="JF282596" begin="480" fromJunction="J3" toJunction="J5" end="540" vehsPerHour="31.54682761296745" departLane="free"/>
  <flow id="JF282597" begin="540" fromJunction="J0" toJunction="J3" end="600" vehsPerHour="233.87705607217637" departLane="free"/>
  <flow id="JF282598" begin="540" fromJunction="J3" toJunction="J0" end="600" vehsPerHour="41.017065944251684" departLane="free"/>
  <flow id="JF282599" begin="540" fromJunction="J0" toJunction="J7" end="600" vehsPerHour="89.01007476529517" departLane="free"/>
  <flow id="JF282600" begin="540" fromJunction="J0" toJunction="J6" end="600" vehsPerHour="116.53052770373581" departLane="free"/>
  <flow id="JF282601" begin="540" fromJunction="J0" toJunction="J4" end="600" vehsPerHour="95.51409211914951" departLane="free"/>
  <flow id="JF282602" begin="540" fromJunction="J0" toJunction="J5" end="600" vehsPerHour="91.87038669029674" departLane="free"/>
  <flow id="JF282603" begin="540" fromJunction="J3" toJunction="J7" end="600" vehsPerHour="135.13961986635832" departLane="free"/>
  <flow id="JF282604" begin="540" fromJunction="J3" toJunction="J6" end="600" vehsPerHour="1.5656857070767725" departLane="free"/>
  <flow id="JF282605" begin="540" fromJunction="J3" toJunction="J4" end="600" vehsPerHour="23.828010276670355" departLane="free"/>
  <flow id="JF282606" begin="540" fromJunction="J3" toJunction="J5" end="600" vehsPerHour="52.651319817193496" departLane="free"/>
  <flow id="JF282607" begin="600" fromJunction="J0" toJunction="J3" end="660" vehsPerHour="417.452849625901" departLane="free"/>
  <flow id="JF282608" begin="600" fromJunction="J3" toJunction="J0" end="660" vehsPerHour="231.25021027446655" departLane="free"/>
  <flow id="JF282609" begin="600" fromJunction="J0" toJunction="J7" end="660" vehsPerHour="25.248265973541518" departLane="free"/>
  <flow id="JF282610" begin="600" fromJunction="J0" toJunction="J6" end="660" vehsPerHour="18.4023380267285" departLane="free"/>
  <flow id="JF282611" begin="600" fromJunction="J0" toJunction="J4" end="660" vehsPerHour="33.076953038643104" departLane="free"/>
  <flow id="JF282612" begin="600" fromJunction="J0" toJunction="J5" end="660" vehsPerHour="84.35982614069042" departLane="free"/>
  <flow id="JF282613" begin="600" fromJunction="J3" toJunction="J7" end="660" vehsPerHour="40.50436193234341" departLane="free"/>
  <flow id="JF282614" begin="600" fromJunction="J3" toJunction="J6" end="660" vehsPerHour="6.540153335033743" departLane="free"/>
  <flow id="JF282615" begin="600" fromJunction="J3" toJunction="J4" end="660" vehsPerHour="91.72758591542147" departLane="free"/>