<?xml version="1.0" encoding="UTF-8"?>
<routes xmlns:xsi="http://www.w3.org/2001/XMLSchema-instance" xsi:noNamespaceSchemaLocation="http://sumo.dlr.de/xsd/routes_file.xsd">
  <flow id="JF270427" begin="0" fromJunction="J0" toJunction="J3" end="60" vehsPerHour="414.57830660405216" departLane="free"/>
  <flow id="JF270428" begin="0" fromJunction="J3" toJunction="J0" end="60" vehsPerHour="40.32707640369275" departLane="free"/>
  <flow id="JF270429" begin="0" fromJunction="J0" toJunction="J7" end="60" vehsPerHour="84.02182999656758" departLane="free"/>
  <flow id="JF270430" begin="0" fromJunction="J0" toJunction="J6" end="60" vehsPerHour="127.3068445489976" departLane="free"/>
  <flow id="JF270431" begin="0" fromJunction="J0" toJunction="J4" end="60" vehsPerHour="42.13257056228579" departLane="free"/>
  <flow id="JF270432" begin="0" fromJunction="J0" toJunction="J5" end="60" vehsPerHour="132.99092520614607" departLane="free"/>
  <flow id="JF270433" begin="0" fromJunction="J3" toJunction="J7" end="60" vehsPerHour="56.203105142493925" departLane="free"/>
  <flow id="JF270434" begin="0" fromJunction="J3" toJunction="J6" end="60" vehsPerHour="47.40000806076923" departLane="free"/>
  <flow id="JF270435" begin="0" fromJunction="J3" toJunction="J4" end="60" vehsPerHour="6.3851061387300305" departLane="free"/>
  <flow id="JF270436" begin="0" fromJunction="J3" toJunction="J5" end="60" vehsPerHour="96.85097496494035" departLane="free"/>
  <flow id="JF270437" begin="0" fromJunction="J7" toJunction="J6" end="60" vehsPerHour="19.184403177357883" departLane="free"/>
  <flow id="JF270438" begin="0" fromJunction="J7" toJunction="J4" end="60" vehsPerHour="1.852622951176865" departLane="free"/>
  <flow id="JF270439" begin="0" fromJunction="J7" toJunction="J5" end="60" vehsPerHour="29.02539402480702" departLane="free"/>
  <flow id="JF270440" begin="0" fromJunction="J6" toJunction="J7" end="60" vehsPerHour="9.67931152211249" departLane="free"/>
  <flow id="JF270441" begin="0" fromJunction="J6" toJunction="J4" end="60" vehsPerHour="34.20342727674685" departLane="free"/>
  <flow id="JF270442" begin="0" fromJunction="J6" toJunction="J5" end="60" vehsPerHour="4.440704960955452" departLane="free"/>
  <flow id="JF270443" begin="0" fromJunction="J4" toJunction="J7" end="60" vehsPerHour="27.501710120781496" departLane="free"/>
  <flow id="JF270444" begin="0" fromJunction="J4" toJunction="J6" end="60" vehsPerHour="25.42165636730168" departLane="free"/>
  <flow id="JF270445" begin="0" fromJunction="J4" toJunction="J5" end="60" vehsPerHour="3.127384379203353" departLane="free"/>
  <flow id="JF270446" begin="0" fromJunction="J5" toJunction="J7" end="60" vehsPerHour="11.295612492627018" departLane="free"/>
  <flow id="JF270447" begin="0" fromJunction="J5" toJunction="J6" end="60" vehsPerHour="41.220809781544936" departLane="free"/>
  <flow id="JF270448" begin="0" fromJunction="J5" toJunction="J4" end="60" vehsPerHour="28.834933772859756" departLane="free"/>
  <flow id="JF270449" begin="0" fromJunction="J7" toJunction="J0" end="60" vehsPerHour="26.20098268919395" departLane="free"/>
  <flow id="JF270450" begin="0" fromJunction="J7" toJunction="J3" end="60" vehsPerHour="29.562958803943733" departLane="free"/>
  <flow id="JF270451" begin="0" fromJunction="J6" toJunction="J0" end="60" vehsPerHour="16.31544453507217" departLane="free"/>
  <flow id="JF270452" begin="0" fromJunction="J6" toJunction="J3" end="60" vehsPerHour="34.2290078475765" departLane="free"/>
  <flow id="JF270453" begin="0" fromJunction="J4" toJunction="J0" end="60" vehsPerHour="13.161740223708348" departLane="free"/>
  <flow id="JF270454" begin="0" fromJunction="J4" toJunction="J3" end="60" vehsPerHour="27.444390535437183" departLane="free"/>
  <flow id="JF270455" begin="0" fromJunction="J5" toJunction="J0" end="60" vehsPerHour="24.44131046084189" departLane="free"/>
  <flow id="JF270456" begin="0" fromJunction="J5" toJunction="J3" end="60" vehsPerHour="18.940164176099806" departLane="free"/>
  <flow id="JF270457" begin="60" fromJunction="J0" toJunction="J3" end="120" vehsPerHour="265.9845729905112" departLane="free"/>
  <flow id="JF270458" begin="60" fromJunction="J3" toJunction="J0" end="120" vehsPerHour="24.346339578530795" departLane="free"/>
  <flow id="JF270459" begin="60" fromJunction="J0" toJunction="J7" end="120" vehsPerHour="7.567044261643491" departLane="free"/>
  <flow id="JF270460" begin="60" fromJunction="J0" toJunction="J6" end="120" vehsPerHour="25.066607217314985" departLane="free"/>
  <flow id="JF270461" begin="60" fromJunction="J0" toJunction="J4" end="120" vehsPerHour="122.90979153730838" departLane="free"/>
  <flow id="JF270462" begin="60" fromJunction="J0" toJunction="J5" end="120" vehsPerHour="85.24268166191774" departLane="free"/>
  <flow id="JF270463" begin="60" fromJunction="J3" toJunction="J7" end="120" vehsPerHour="34.15441148886468" departLane="free"/>
  <flow id="JF270464" begin="60" fromJunction="J3" toJunction="J6" end="120" vehsPerHour="67.42491631494981" departLane="free"/>
  <flow id="JF270465" begin="60" fromJunction="J3" toJunction="J4" end="120" vehsPerHour="11.783104335596137" departLane="free"/>
  <flow id="JF270466" begin="60" fromJunction="J3" toJunction="J5" end="120" vehsPerHour="103.58408302522456" departLane="free"/>
  <flow id="JF270467" begin="60" fromJunction="J7" toJunction="J6" end="120" vehsPerHour="24.24565758693029" departLane="free"/>
  <flow id="JF270468" begin="60" fromJunction="J7" toJunction="J4" end="120" vehsPerHour="7.329446237308023" departLane="free"/>
  <flow id="JF270469" begin="60" fromJunction="J7" toJunction="J5" end="120" vehsPerHour="4.023752819474522" departLane="free"/>
  <flow id="JF270470" begin="60" fromJunction="J6" toJunction="J7" end="120" vehsPerHour="66.78337409537109" departLane="free"/>
  <flow id="JF270471" begin="60" fromJunction="J6" toJunction="J4" end="120" vehsPerHour="28.936867201881423" departLane="free"/>
  <flow id="JF270472" begin="60" fromJunction="J6" toJunction="J5" end="120" vehsPerHour="19.15578928700859" departLane="free"/>
  <flow id="JF270473" begin="60" fromJunction="J4" toJunction="J7" end="120" vehsPerHour="43.15412021622729" departLane="free"/>
  <flow id="JF270474" begin="60" fromJunction="J4" toJunction="J6" end="120" vehsPerHour="9.848729862364628" departLane="free"/>
  <flow id="JF270475" begin="60" fromJunction="J4" toJunction="J5" end="120" vehsPerHour="24.625837974757275" departLane="free"/>
  <flow id="JF270476" begin="60" fromJunction="J5" toJunction="J7" end="120" vehsPerHour="51.97278102878303" departLane="free"/>
  <flow id="JF270477" begin="60" fromJunction="J5" toJunction="J6" end="120" vehsPerHour="50.029289994335635" departLane="free"/>
  <flow id="JF270478" begin="60" fromJunction="J5" toJunction="J4" end="120" vehsPerHour="27.34181105360793" departLane="free"/>
  <flow id="JF270479" begin="60" fromJunction="J7" toJunction="J0" end="120" vehsPerHour="0.40416812967412435" departLane="free"/>
  <flow id="JF270480" begin="60" fromJunction="J7" toJunction="J3" end="120" vehsPerHour="7.917763195981037" departLane="free"/>
  <flow id="JF270481" begin="60" fromJunction="J6" toJunction="J0" end="120" vehsPerHour="33.36601120108174" departLane="free"/>
  <flow id="JF270482" begin="60" fromJunction="J6" toJunction="J3" end="120" vehsPerHour="1.9324286219832838" departLane="free"/>
  <flow id="JF270483" begin="60" fromJunction="J4" toJunction="J0" end="120" vehsPerHour="19.938462418006356" departLane="free"/>
  <flow id="JF270484" begin="60" fromJunction="J4" toJunction="J3" end="120" vehsPerHour="23.024567955063358" departLane="free"/>
  <flow id="JF270485" begin="60" fromJunction="J5" toJunction="J0" end="120" vehsPerHour="24.815145666577582" departLane="free"/>
  <flow id="JF270486" begin="60" fromJunction="J5" toJunction="J3" end="120" vehsPerHour="0.3475034563044702" departLane="free"/>
  <flow id="JF270487" begin="120" fromJunction="J0" toJunction="J3" end="180" vehsPerHour="314.8396543815502" departLane="free"/>
  <flow id="JF270488" begin="120" fromJunction="J3" toJunction="J0" end="180" vehsPerHour="97.3636248909075" departLane="free"/>
  <flow id="JF270489" begin="120" fromJunction="J0" toJunction="J7" end="180" vehsPerHour="116.18507389401705" departLane="free"/>
  <flow id="JF270490" begin="120" fromJunction="J0" toJunction="J6" end="180" vehsPerHour="6.073016788503962" departLane="free"/>
  <flow id="JF270491" begin="120" fromJunction="J0" toJunction="J4" end="180" vehsPerHour="75.38936128388151" departLane="free"/>
  <flow id="JF270492" begin="120" fromJunction="J0" toJunction="J5" end="180" vehsPerHour="36.83191822318913" departLane="free"/>
  <flow id="JF270493" begin="120" fromJunction="J3" toJunction="J7" end="180" vehsPerHour="112.8697539402953" departLane="free"/>
  <flow id="JF270494" begin="120" fromJunction="J3" toJunction="J6" end="180" vehsPerHour="7.873510659471714" departLane="free"/>
  <flow id="JF270495" begin="120" fromJunction="J3" toJunction="J4" end="180" vehsPerHour="15.126006882698842" departLane="free"/>
  <flow id="JF270496" begin="120" fromJunction="J3" toJunction="J5" end="180" vehsPerHour="122.34261515991595" departLane="free"/>
  <flow id="JF270497" begin="120" fromJunction="J7" toJunction="J6" end="180" vehsPerHour="11.30487398275503" departLane="free"/>
  <flow id="JF270498" begin="120" fromJunction="J7" toJunction="J4" end="180" vehsPerHour="16.86523354376337" departLane="free"/>
  <flow id="JF270499" begin="120" fromJunction="J7" toJunction="J5" end="180" vehsPerHour="22.77612085009781" departLane="free"/>
  <flow id="JF270500" begin="120" fromJunction="J6" toJunction="J7" end="180" vehsPerHour="35.204750380740684" departLane="free"/>
  <flow id="JF270501" begin="120" fromJunction="J6" toJunction="J4" end="180" vehsPerHour="12.902709525721411" departLane="free"/>
  <flow id="JF270502" begin="120" fromJunction="J6" toJunction="J5" end="180" vehsPerHour="25.577980492367566" departLane="free"/>
  <flow id="JF270503" begin="120" fromJunction="J4" toJunction="J7" end="180" vehsPerHour="10.622345849948271" departLane="free"/>
  <flow id="JF270504" begin="120" fromJunction="J4" toJunction="J6" end="180" vehsPerHour="5.249670730786404" departLane="free"/>
  <flow id="JF270505" begin="120" fromJunction="J4" toJunction="J5" end="180" vehsPerHour="3.475780562634041" departLane="free"/>
  <flow id="JF270506" begin="120" fromJunction="J5" toJunction="J7" end="180" vehsPerHour="41.89853603540534" departLane="free"/>
  <flow id="JF270507" begin="120" fromJunction="J5" toJunction="J6" end="180" vehsPerHour="64.58131717685005" departLane="free"/>
  <flow id="JF270508" begin="120" fromJunction="J5" toJunction="J4" end="180" vehsPerHour="18.933460246380204" departLane="free"/>
  <flow id="JF270509" begin="120" fromJunction="J7" toJunction="J0" end="180" vehsPerHour="15.747583635803874" departLane="free"/>
  <flow id="JF270510" begin="120" fromJunction="J7" toJunction="J3" end="180" vehsPerHour="10.470431275071272" departLane="free"/>
  <flow id="JF270511" begin="120" fromJunction="J6" toJunction="J0" end="180" vehsPerHour="7.51122711955017" departLane="free"/>
  <flow id="JF270512" begin="120" fromJunction="J6" toJunction="J3" end="180" vehsPerHour="10.802664932006701" departLane="free"/>
  <flow id="JF270513" begin="120" fromJunction="J4" toJunction="J0" end="180" vehsPerHour="5.990405066188595" departLane="free"/>
  <flow id="JF270514" begin="120" fromJunction="J4" toJunction="J3" end="180" vehsPerHour="33.82300396786213" departLane="free"/>
  <flow id="JF270515" begin="120" fromJunction="J5" toJunction="J0" end="180" vehsPerHour="31.727193771572114" departLane="free"/>
  <flow id="JF270516" begin="120" fromJunction="J5" toJunction="J3" end="180" vehsPerHour="11.752541493424175" departLane="free"/>
  <flow id="JF270517" begin="180" fromJunction="J0" toJunction="J3" end="240" vehsPerHour="247.2158382593047" departLane="free"/>
  <flow id="JF270518" begin="180" fromJunction="J3" toJunction="J0" end="240" vehsPerHour="266.3564120931955" departLane="free"/>
  <flow id="JF270519" begin="180" fromJunction="J0" toJunction="J7" end="240" vehsPerHour="53.429343321894635" departLane="free"/>
  <flow id="JF270520" begin="180" fromJunction="J0" toJunction="J6" end="240" vehsPerHour="131.9115650279892" departLane="free"/>
  <flow id="JF270521" begin="180" fromJunction="J0" toJunction="J4" end="240" vehsPerHour="47.278675493154644" departLane="free"/>
  <flow id="JF270522" begin="180" fromJunction="J0" toJunction="J5" end="240" vehsPerHour="81.36814814971721" departLane="free"/>
  <flow id="JF270523" begin="180" fromJunction="J3" toJunction="J7" end="240" vehsPerHour="110.45902467949456" departLane="free"/>
  <flow id="JF270524" begin="180" fromJunction="J3" toJunction="J6" end="240" vehsPerHour="1.457843251509826" departLane="free"/>
  <flow id="JF270525" begin="180" fromJunction="J3" toJunction="J4" end="240" vehsPerHour="130.49793153765097" departLane="free"/>
  <flow id="JF270526" begin="180" fromJunction="J3" toJunction="J5" end="240" vehsPerHour="21.072643801933246" departLane="free"/>
  <flow id="JF270527" begin="240" fromJunction="J0" toJunction="J3" end="300" vehsPerHour="171.10534377672627" departLane="free"/>
  <flow id="JF270528" begin="240" fromJunction="J3" toJunction="J0" end="300" vehsPerHour="85.69119628988207" departLane="free"/>
  <flow id="JF270529" begin="240" fromJunction="J0" toJunction="J7" end="300" vehsPerHour="6.43988805118529" departLane="free"/>
  <flow id="JF270530" begin="240" fromJunction="J0" toJunction="J6" end="300" vehsPerHour="89.65880169452157" departLane="free"/>
  <flow id="JF270531" begin="240" fromJunction="J0" toJunction="J4" end="300" vehsPerHour="121.54341932782185" departLane="free"/>
  <flow id="JF270532" begin="240" fromJunction="J0" toJunction="J5" end="300" vehsPerHour="12.919278103105965" departLane="free"/>
  <flow id="JF270533" begin="240" fromJunction="J3" toJunction="J7" end="300" vehsPerHour="11.834033878809375" departLane="free"/>
  <flow id="JF270534" begin="240" fromJunction="J3" toJunction="J6" end="300" vehsPerHour="98.89326489406176" departLane="free"/>
  <flow id="JF270535" begin="240" fromJunction="J3" toJunction="J4" end="300" vehsPerHour="87.06292448187568" departLane="free"/>
  <flow id="JF270536" begin="240" fromJunction="J3" toJunction="J5" end="300" vehsPerHour="1.8482990511091006" departLane="free"/>
  <flow id="JF270537" begin="300" fromJunction="J0" toJunction="J3" end="360" vehsPerHour="248.12089314951294" departLane="free"/>
  <flow id="JF270538" begin="300" fromJunction="J3" toJunction="J0" end="360" vehsPerHour="80.41338061428604" departLane="free"/>
  <flow id="JF270539" begin="300" fromJunction="J0" toJunction="J7" end="360" vehsPerHour="4.121058131327694" departLane="free"/>
  <flow id="JF270540" begin="300" fromJunction="J0" toJunction="J6" end="360" vehsPerHour="78.8308813755444" departLane="free"/>
  <flow id="JF270541" begin="300" fromJunction="J0" toJunction="J4" end="360" vehsPerHour="79.01028428937367" departLane="free"/>
  <flow id="JF270542" begin="300" fromJunction="J0" toJunction="J5" end="360" vehsPerHour="79.18211514664839" departLane="free"/>
  <flow id="JF270543" begin="300" fromJunction="J3" toJunction="J7" end="360" vehsPerHour="66.34940611707074" departLane="free"/>
  <flow id="JF270544" begin="300" fromJunction="J3" toJunction="J6" end="360" vehsPerHour="51.16200687281634" departLane="free"/>
  <flow id="JF270545" begin="300" fromJunction="J3" toJunction="J4" end="360" vehsPerHour="17.445138726275083" departLane="free"/>
  <flow id="JF270546" begin="300" fromJunction="J3" toJunction="J5" end="360" vehsPerHour="82.15529590897539" departLane="free"/>
  <flow id="JF270547" begin="360" fromJunction="J0" toJunction="J3" end="420" vehsPerHour="494.8770498994186" departLane="free"/>
  <flow id="JF270548" begin="360" fromJunction="J3" toJunction="J0" end="420" vehsPerHour="22.121358952872388" departLane="free"/>
  <flow id="JF270549" begin="360" fromJunction="J0" toJunction="J7" end="420" vehsPerHour="36.17696568428956" departLane="free"/>
  <flow id="JF270550" begin="360" fromJunction="J0" toJunction="J6" end="420" vehsPerHour="50.92780118215041" departLane="free"/>
  <flow id="JF270551" begin="360" fromJunction="J0" toJunction="J4" end="420" vehsPerHour="74.86342335334392" departLane="free"/>
  <flow id="JF270552" begin="360" fromJunction="J0" toJunction="J5" end="420" vehsPerHour="100.71482097920375" departLane="free"/>
  <flow id="JF270553" begin="360" fromJunction="J3" toJunction="J7" end="420" vehsPerHour="12.915666441812988" departLane="free"/>
  <flow id="JF270554" begin="360" fromJunction="J3" toJunction="J6" end="420" vehsPerHour="60.78938253971672" departLane="free"/>
  <flow id="JF270555" begin="360" fromJunction="J3" toJunction="J4" end="420" vehsPerHour="1.8391210059767875" departLane="free"/>
  <flow id="JF270556" begin="360" fromJunction="J3" toJunction="J5" end="420" vehsPerHour="28.99396777006203" departLane="free"/>
  <flow id="JF270557" begin="360" fromJunction="J7" toJunction="J6" end="420" vehsPerHour="18.350755840565995" departLane="free"/>
  <flow id="JF270558" begin="360" fromJunction="J7" toJunction="J4" end="420" vehsPerHour="14.931718931220823" departLane="free"/>
  <flow id="JF270559" begin="360" fromJunction="J7" toJunction="J5" end="420" vehsPerHour="23.75715163450679" departLane="free"/>
  <flow id="JF270560" begin="360" fromJunction="J6" toJunction="J7" end="420" vehsPerHour="24.748466346105882" departLane="free"/>
  <flow id="JF270561" begin="360" fromJunction="J6" toJunction="J4" end="420" vehsPerHour="2.9761663573719517" departLane="free"/>
  <flow id="JF270562" begin="360" fromJunction="J6" toJunction="J5" end="420" vehsPerHour="19.11586483279092" departLane="free"/>
  <flow id="JF270563" begin="360" fromJunction="J4" toJunction="J7" end="420" vehsPerHour="50.10121771663282" departLane="free"/>
  <flow id="JF270564" begin="360" fromJunction="J4" toJunction="J6" end="420" vehsPerHour="40.90091605797024" departLane="free"/>
  <flow id="JF270565" begin="360" fromJunction="J4" toJunction="J5" end="420" vehsPerHour="34.93739849949814" departLane="free"/>
  <flow id="JF270566" begin="360" fromJunction="J5" toJunction="J7" end="420" vehsPerHour="21.27571532494693" departLane="free"/>
  <flow id="JF270567" begin="360" fromJunction="J5" toJunction="J6" end="420" vehsPerHour="14.2134701353494" departLane="free"/>
  <flow id="JF270568" begin="360" fromJunction="J5" toJunction="J4" end="420" vehsPerHour="4.133083307629326" departLane="free"/>
  <flow id="JF270569" begin="360" fromJunction="J7" toJunction="J0" end="420" vehsPerHour="6.976767644167552" departLane="free"/>
  <flow id="JF270570" begin="360" fromJunction="J7" toJunction="J3" end="420" vehsPerHour="5.851466680618744" departLane="free"/>
  <flow id="JF270571" begin="360" fromJunction="J6" toJunction="J0" end="420" vehsPerHour="27.90014049142008" departLane="free"/>
  <flow id="JF270572" begin="360" fromJunction="J6" toJunction="J3" end="420" vehsPerHour="20.093432035030983" departLane="free"/>
  <flow id="JF270573" begin="360" fromJunction="J4" toJunction="J0" end="420" vehsPerHour="0.6941834464242199" departLane="free"/>
  <flow id="JF270574" begin="360" fromJunction="J4" toJunction="J3" end="420" vehsPerHour="25.76054013695279" departLane="free"/>
  <flow id="JF270575" begin="360" fromJunction="J5" toJunction="J0" end="420" vehsPerHour="23.47948780434179" departLane="free"/>
  <flow id="JF270576" begin="360" fromJunction="J5" toJunction="J3" end="420" vehsPerHour="22.249428691238855" departLane="free"/>
  <flow id="JF270577" begin="420" fromJunction="J0" toJunction="J3" end="480" vehsPerHour="503.4820863798733" departLane="free"/>
  <flow id="JF270578" begin="420" fromJunction="J3" toJunction="J0" end="480" vehsPerHour="85.22293554360108" departLane="free"/>
  <flow id="JF270579" begin="420" fromJunction="J0" toJunction="J7" end="480" vehsPerHour="70.02807332203433" departLane="free"/>
  <flow id="JF270580" begin="420" fromJunction="J0" toJunction="J6" end="480" vehsPerHour="119.76263550332276" departLane="free"/>
  <flow id="JF270581" begin="420" fromJunction="J0" toJunction="J4" end="480" vehsPerHour="105.64889164222417" departLane="free"/>
  <flow id="JF270582" begin="420" fromJunction="J0" toJunction="J5" end="480" vehsPerHour="108.32602736170139" departLane="free"/>
  <flow id="JF270583" begin="420" fromJunction="J3" toJunction="J7" end="480" vehsPerHour="100.70471634500687" departLane="free"/>
  <flow id="JF270584" begin="420" fromJunction="J3" toJunction="J6" end="480" vehsPerHour="134.05477305173224" departLane="free"/>
  <flow id="JF270585" begin="420" fromJunction="J3" toJunction="J4" end="480" vehsPerHour="29.89373832743402" departLane="free"/>
  <flow id="JF270586" begin="420" fromJunction="J3" toJunction="J5" end="480" vehsPerHour="0.5451091908992057" departLane="free"/>
  <flow id="JF270587" begin="480" fromJunction="J0" toJunction="J3" end="540" vehsPerHour="522.6894833660165" departLane="free"/>
  <flow id="JF270588" begin="480" fromJunction="J3" toJunction="J0" end="540" vehsPerHour="50.07381298582084" departLane="free"/>
  <flow id="JF270589" begin="480" fromJunction="J0" toJunction="J7" end="540" vehsPerHour="85.13267215847551" departLane="free"/>
  <flow id="JF270590" begin="480" fromJunction="J0" toJunction="J6" end="540" vehsPerHour="17.706384868636082" departLane="free"/>
  <flow id="JF270591" begin="480" fromJunction="J0" toJunction="J4" end="540" vehsPerHour="12.102145441231777" departLane="free"/>
  <flow id="JF270592" begin="480" fromJunction="J0" toJunction="J5" end="540" vehsPerHour="82.90980819599082" departLane="free"/>
  <flow id="JF270593" begin="480" fromJunction="J3" toJunction="J7" end="540" vehsPerHour="6.9883840796053285" departLane="free"/>
  <flow id="JF270594" begin="480" fromJunction="J3" toJunction="J6" end="540" vehsPerHour="116.80799695544997" departLane="free"/>
  <flow id="JF270595" begin="480" fromJunction="J3" toJunction="J4" end="540" vehsPerHour="57.74593642876011" departLane="free"/>
  <flow id="JF270596" begin="480" fromJunction="J3" toJunction="J5" end="540" vehsPerHour="99.00738304690515" departLane="free"/>
  <flow id="JF270597" begin="480" fromJunction="J7" toJunction="J6" end="540" vehsPerHour="27.03055930105647" departLane="free"/>
  <flow id="JF270598" begin="480" fromJunction="J7" toJunction="J4" end="540" vehsPerHour="3.6404485859625115" departLane="free"/>
  <flow id="JF270599" begin="480" fromJunction="J7" toJunction="J5" end="540" vehsPerHour="4.815580040258535" departLane="free"/>
  <flow id="JF270600" begin="480" fromJunction="J6" toJunction="J7" end="540" vehsPerHour="55.12286289077769" departLane="free"/>
  <flow id="JF270601" begin="480" fromJunction="J6" toJunction="J4" end="540" vehsPerHour="18.904852300594563" departLane="free"/>
  <flow id="JF270602" begin="480" fromJunction="J6" toJunction="J5" end="540" vehsPerHour="9.125180508812207" departLane="free"/>
  <flow id="JF270603" begin="480" fromJunction="J4" toJunction="J7" end="540" vehsPerHour="35.4137666087303" departLane="free"/>
  <flow id="JF270604" begin="480" fromJunction="J4" toJunction="J6" end="540" vehsPerHour="54.291597568332776" departLane="free"/>
  <flow id="JF270605" begin="480" fromJunction="J4" toJunction="J5" end="540" vehsPerHour="45.92058848784495" departLane="free"/>
  <flow id="JF270606" begin="480" fromJunction="J5" toJunction="J7" end="540" vehsPerHour="54.04045812272568" departLane="free"/>
  <flow id="JF270607" begin="480" fromJunction="J5" toJunction="J6" end="540" vehsPerHour="33.18429881645951" departLane="free"/>
  <flow id="JF270608" begin="480" fromJunction="J5" toJunction="J4" end="540" vehsPerHour="1.5334890323496775" departLane="free"/>
  <flow id="JF270609" begin="480" fromJunction="J7" toJunction="J0" end="540" vehsPerHour="28.99148145582756" departLane="free"/>
  <flow id="JF270610" begin="480" fromJunction="J7" toJunction="J3" end="540" vehsPerHour="0.18651952050570056" departLane="free"/>
  <flow id="JF270611" begin="480" fromJunction="J6" toJunction="J0" end="540" vehsPerHour="22.11717324142975" departLane="free"/>
  <flow id="JF270612" begin="480" fromJunction="J6" toJunction="J3" end="540" vehsPerHour="23.588763565286907" departLane="free"/>
  <flow id="JF270613" begin="480" fromJunction="J4" toJunction="J0" end="540" vehsPerHour="4.556225293258975" departLane="free"/>
  <flow id="JF270614" begin="480" fromJunction="J4" toJunction="J3" end="540" vehsPerHour="4.996970278106046" departLane="free"/>
  <flow id="JF270615" begin="480" fromJunction="J5" toJunction="J0" end="540" vehsPerHour="1.153610314475104" departLane="free"/>
  <flow id="JF270616" begin="480" fromJunction="J5" toJunction="J3" end="540" vehsPerHour="23.6257539688769" departLane="free"/>
  <flow id="JF270617" begin="540" fromJunction="J0" toJunction="J3" end="600" vehsPerHour="498.1716140134216" departLane="free"/>
  <flow id="JF270618" begin="540" fromJunction="J3" toJunction="J0" end="600" vehsPerHour="199.4004397787543" departLane="free"/>
  <flow id="JF270619" begin="540" fromJunction="J0" toJunction="J7" end="600" vehsPerHour="11.625300559617344" departLane="free"/>
  <flow id="JF270620" begin="540" fromJunction="J0" toJunction="J6" end="600" vehsPerHour="3.1341824256919497" departLane="free"/>
  <flow id="JF270621" begin="540" fromJunction="J0" toJunction="J4" end="600" vehsPerHour="70.89671610365853" departLane="free"/>
  <flow id="JF270622" begin="540" fromJunction="J0" toJunction="J5" end="600" vehsPerHour="133.89244985034375" departLane="free"/>
  <flow id="JF270623" begin="540" fromJunction="J3" toJunction="J7" end="600" vehsPerHour="13.473333950088193" departLane="free"/>
  <flow id="JF270624" begin="540" fromJunction="J3" toJunction="J6" end="600" vehsPerHour="124.93522078784927" departLane="free"/>
  <flow id="JF270625" begin="540" fromJunction="J3" toJunction="J4" end="600" vehsPerHour="72.4206055115686" departLane="free"/>
  <flow id="JF270626" begin="540" fromJunction="J3" toJunction="J5" end="600" vehsPerHour="40.89511285035334" departLane="free"/>
  <flow id="JF270627" begin="540" fromJunction="J7" toJunction="J6" end="600" vehsPerHour="12.121906498668796" departLane="free"/>
  <flow id="JF270628" begin="540" fromJunction="J7" toJunction="J4" end="600" vehsPerHour="1.1722519379941752" departLane="free"/>
  <flow id="JF270629" begin="540" fromJunction="J7" toJunction="J5" end="600" vehsPerHour="0.7298915259419482" departLane="free"/>
  <flow id="JF270630" begin="540" fromJunction="J6" toJunction="J7" end="600" vehsPerHour="21.739208809873443" departLane="free"/>
  <flow id="JF270631" begin="540" fromJunction="J6" toJunction="J4" end="600" vehsPerHour="27.595764772061703" departLane="free"/>
  <flow id="JF270632" begin="540" fromJunction="J6" toJunction="J5" end="600" vehsPerHour="18.346866764212315" departLane="free"/>
  <flow id="JF270633" begin="540" fromJunction="J4" toJunction="J7" end="600" vehsPerHour="19.656307033467655" departLane="free"/>
  <flow id="JF270634" begin="540" fromJunction="J4" toJunction="J6" end="600" vehsPerHour="30.172543769111346" departLane="free"/>
  <flow id="JF270635" begin="540" fromJunction="J4" toJunction="J5" end="600" vehsPerHour="58.72978046474522" departLane="free"/>
  <flow id="JF270636" begin="540" fromJunction="J5" toJunction="J7" end="600" vehsPerHour="15.532212676287894" departLane="free"/>
  <flow id="JF270637" begin="540" fromJunction="J5" toJunction="J6" end="600" vehsPerHour="34.463308944660156" departLane="free"/>
  <flow id="JF270638" begin="540" fromJunction="J5" toJunction="J4" end="600" vehsPerHour="7.031771817179888" departLane="free"/>
  <flow id="JF270639" begin="540" fromJunction="J7" toJunction="J0" end="600" vehsPerHour="27.32818814074243" departLane="free"/>
  <flow id="JF270640" begin="540" fromJunction="J7" toJunction="J3" end="600" vehsPerHour="7.818492610539255" departLane="free"/>
  <flow id="JF270641" begin="540" fromJunction="J6" toJunction="J0" end="600" vehsPerHour="11.601979193956891" departLane="free"/>
  <flow id="JF270642" begin="540" fromJunction="J6" toJunction="J3" end="600" vehsPerHour="3.6407517716290654" departLane="free"/>
  <flow id="JF270643" begin="540" fromJunction="J4" toJunction="J0" end="600" vehsPerHour="34.241436301347676" departLane="free"/>
  <flow id="JF270644" begin="540" fromJunction="J4" toJunction="J3" end="600" vehsPerHour="18.83405931580847" departLane="free"/>
  <flow id="JF270645" begin="540" fromJunction="J5" toJunction="J0" end="600" vehsPerHour="33.02433063431942" departLane="free"/>
  <flow id="JF270646" begin="540" fromJunction="J5" toJunction="J3" end="600" vehsPerHour="6.07282325954785" departLane="free"/>
  <flow id="JF270647" begin="600" fromJunction="J0" toJunction="J3" end="660" vehsPerHour="531.0330687369839" departLane="free"/>
  <flow id="JF270648" begin="600" fromJunction="J3" toJunction="J0" end="660" vehsPerHour="267.40988192387124" departLane="free"/>
  <flow id="JF270649" begin="600" fromJunction="J0" toJunction="J7" end="660" vehsPerHour="89.65774999408998" departLane="free"/>
  <flow id="JF270650" begin="600" fromJunction="J0" toJunction="J6" end="660" vehsPerHour="78.42162820982536" departLane="free"/>
  <flow id="JF270651" begin="600" fromJunction="J0" toJunction="J4" end="660" vehsPerHour="44.280151746008436" departLane="free"/>
  <flow id="JF270652" begin="600" fromJunction="J0" toJunction="J5" end="660" vehsPerHour="114.2083601464844" departLane="free"/>
  <flow id="JF270653" begin="600" fromJunction="J3" toJunction="J7" end="660" vehsPerHour="127.54329199007825" departLane="free"/>
  <flow id="JF270654" begin="600" fromJunction="J3" toJunction="J6" end="660" vehsPerHour="88.81276979441262" departLane="free"/>
  <flow id="JF270655" begin="600" fromJunction="J3" toJunction="J4" end="660" vehsPerHour="54.478606544952235" departLane="free"/>