<?xml version="1.0" encoding="UTF-8"?>
<routes xmlns:xsi="http://www.w3.org/2001/XMLSchema-instance" xsi:noNamespaceSchemaLocation="http://sumo.dlr.de/xsd/routes_file.xsd">
  <flow id="JF278287" begin="0" fromJunction="J0" toJunction="J3" end="60" vehsPerHour="284.0717259059678" departLane="free"/>
  <flow id="JF278288" begin="0" fromJunction="J3" toJunction="J0" end="60" vehsPerHour="152.23848908432998" departLane="free"/>
  <flow id="JF278289" begin="0" fromJunction="J0" toJunction="J7" end="60" vehsPerHour="3.1323137412701025" departLane="free"/>
  <flow id="JF278290" begin="0" fromJunction="J0" toJunction="J6" end="60" vehsPerHour="113.54823732210598" departLane="free"/>
  <flow id="JF278291" begin="0" fromJunction="J0" toJunction="J4" end="60" vehsPerHour="107.85271587911274" departLane="free"/>
  <flow id="JF278292" begin="0" fromJunction="J0" toJunction="J5" end="60" vehsPerHour="60.26660122370723" departLane="free"/>
  <flow id="JF278293" begin="0" fromJunction="J3" toJunction="J7" end="60" vehsPerHour="34.113213062015454" departLane="free"/>
  <flow id="JF278294" begin="0" fromJunction="J3" toJunction="J6" end="60" vehsPerHour="56.556045956321086" departLane="free"/>
  <flow id="JF278295" begin="0" fromJunction="J3" toJunction="J4" end="60" vehsPerHour="29.10153976062459" departLane="free"/>
  <flow id="JF278296" begin="0" fromJunction="J3" toJunction="J5" end="60" vehsPerHour="23.599534655189213" departLane="free"/>
  <flow id="JF278297" begin="0" fromJunction="J7" toJunction="J6" end="60" vehsPerHour="0.6910470846754376" departLane="free"/>
  <flow id="JF278298" begin="0" fromJunction="J7" toJunction="J4" end="60" vehsPerHour="15.520663067987385" departLane="free"/>
  <flow id="JF278299" begin="0" fromJunction="J7" toJunction="J5" end="60" vehsPerHour="1.8605273605793615" departLane="free"/>
  <flow id="JF278300" begin="0" fromJunction="J6" toJunction="J7" end="60" vehsPerHour="11.806130295904266" departLane="free"/>
  <flow id="JF278301" begin="0" fromJunction="J6" toJunction="J4" end="60" vehsPerHour="31.521905440519475" departLane="free"/>
  <flow id="JF278302" begin="0" fromJunction="J6" toJunction="J5" end="60" vehsPerHour="9.211076493668259" departLane="free"/>
  <flow id="JF278303" begin="0" fromJunction="J4" toJunction="J7" end="60" vehsPerHour="29.50316885432512" departLane="free"/>
  <flow id="JF278304" begin="0" fromJunction="J4" toJunction="J6" end="60" vehsPerHour="21.434767640598253" departLane="free"/>
  <flow id="JF278305" begin="0" fromJunction="J4" toJunction="J5" end="60" vehsPerHour="40.57988513590466" departLane="free"/>
  <flow id="JF278306" begin="0" fromJunction="J5" toJunction="J7" end="60" vehsPerHour="3.7446688759458175" departLane="free"/>
  <flow id="JF278307" begin="0" fromJunction="J5" toJunction="J6" end="60" vehsPerHour="61.93687779278533" departLane="free"/>
  <flow id="JF278308" begin="0" fromJunction="J5" toJunction="J4" end="60" vehsPerHour="1.4169267662959226" departLane="free"/>
  <flow id="JF278309" begin="0" fromJunction="J7" toJunction="J0" end="60" vehsPerHour="8.18120365959983" departLane="free"/>
  <flow id="JF278310" begin="0" fromJunction="J7" toJunction="J3" end="60" vehsPerHour="4.11359390987738" departLane="free"/>
  <flow id="JF278311" begin="0" fromJunction="J6" toJunction="J0" end="60" vehsPerHour="30.115907070538782" departLane="free"/>
  <flow id="JF278312" begin="0" fromJunction="J6" toJunction="J3" end="60" vehsPerHour="2.4326606784102465" departLane="free"/>
  <flow id="JF278313" begin="0" fromJunction="J4" toJunction="J0" end="60" vehsPerHour="30.12196548532421" departLane="free"/>
  <flow id="JF278314" begin="0" fromJunction="J4" toJunction="J3" end="60" vehsPerHour="13.172847073671468" departLane="free"/>
  <flow id="JF278315" begin="0" fromJunction="J5" toJunction="J0" end="60" vehsPerHour="1.0855065649650115" departLane="free"/>
  <flow id="JF278316" begin="0" fromJunction="J5" toJunction="J3" end="60" vehsPerHour="5.943608968230283" departLane="free"/>
  <flow id="JF278317" begin="60" fromJunction="J0" toJunction="J3" end="120" vehsPerHour="523.7361916686924" departLane="free"/>
  <flow id="JF278318" begin="60" fromJunction="J3" toJunction="J0" end="120" vehsPerHour="178.4967122209996" departLane="free"/>
  <flow id="JF278319" begin="60" fromJunction="J0" toJunction="J7" end="120" vehsPerHour="45.47536779077539" departLane="free"/>
  <flow id="JF278320" begin="60" fromJunction="J0" toJunction="J6" end="120" vehsPerHour="78.9861361963314" departLane="free"/>
  <flow id="JF278321" begin="60" fromJunction="J0" toJunction="J4" end="120" vehsPerHour="22.484135989882493" departLane="free"/>
  <flow id="JF278322" begin="60" fromJunction="J0" toJunction="J5" end="120" vehsPerHour="78.98211359160638" departLane="free"/>
  <flow id="JF278323" begin="60" fromJunction="J3" toJunction="J7" end="120" vehsPerHour="87.08826179696395" departLane="free"/>
  <flow id="JF278324" begin="60" fromJunction="J3" toJunction="J6" end="120" vehsPerHour="61.16008305419571" departLane="free"/>
  <flow id="JF278325" begin="60" fromJunction="J3" toJunction="J4" end="120" vehsPerHour="18.005027750413614" departLane="free"/>
  <flow id="JF278326" begin="60" fromJunction="J3" toJunction="J5" end="120" vehsPerHour="33.279227420920044" departLane="free"/>
  <flow id="JF278327" begin="120" fromJunction="J0" toJunction="J3" end="180" vehsPerHour="340.8411117275348" departLane="free"/>
  <flow id="JF278328" begin="120" fromJunction="J3" toJunction="J0" end="180" vehsPerHour="221.2042478132406" departLane="free"/>
  <flow id="JF278329" begin="120" fromJunction="J0" toJunction="J7" end="180" vehsPerHour="8.765509336880934" departLane="free"/>
  <flow id="JF278330" begin="120" fromJunction="J0" toJunction="J6" end="180" vehsPerHour="5.687296331635875" departLane="free"/>
  <flow id="JF278331" begin="120" fromJunction="J0" toJunction="J4" end="180" vehsPerHour="28.436709262073073" departLane="free"/>
  <flow id="JF278332" begin="120" fromJunction="J0" toJunction="J5" end="180" vehsPerHour="124.88971914098624" departLane="free"/>
  <flow id="JF278333" begin="120" fromJunction="J3" toJunction="J7" end="180" vehsPerHour="11.97012854303427" departLane="free"/>
  <flow id="JF278334" begin="120" fromJunction="J3" toJunction="J6" end="180" vehsPerHour="99.16841588299626" departLane="free"/>
  <flow id="JF278335" begin="120" fromJunction="J3" toJunction="J4" end="180" vehsPerHour="23.02056499160987" departLane="free"/>
  <flow id="JF278336" begin="120" fromJunction="J3" toJunction="J5" end="180" vehsPerHour="49.282111172323916" departLane="free"/>
  <flow id="JF278337" begin="120" fromJunction="J7" toJunction="J6" end="180" vehsPerHour="10.071725423279245" departLane="free"/>
  <flow id="JF278338" begin="120" fromJunction="J7" toJunction="J4" end="180" vehsPerHour="5.284059894021305" departLane="free"/>
  <flow id="JF278339" begin="120" fromJunction="J7" toJunction="J5" end="180" vehsPerHour="33.69837038205522" departLane="free"/>
  <flow id="JF278340" begin="120" fromJunction="J6" toJunction="J7" end="180" vehsPerHour="47.04652777247504" departLane="free"/>
  <flow id="JF278341" begin="120" fromJunction="J6" toJunction="J4" end="180" vehsPerHour="4.4597297998317025" departLane="free"/>
  <flow id="JF278342" begin="120" fromJunction="J6" toJunction="J5" end="180" vehsPerHour="5.254983229573535" departLane="free"/>
  <flow id="JF278343" begin="120" fromJunction="J4" toJunction="J7" end="180" vehsPerHour="67.28986600983457" departLane="free"/>
  <flow id="JF278344" begin="120" fromJunction="J4" toJunction="J6" end="180" vehsPerHour="46.22733194491903" departLane="free"/>
  <flow id="JF278345" begin="120" fromJunction="J4" toJunction="J5" end="180" vehsPerHour="52.64759924979602" departLane="free"/>
  <flow id="JF278346" begin="120" fromJunction="J5" toJunction="J7" end="180" vehsPerHour="61.8536097407814" departLane="free"/>
  <flow id="JF278347" begin="120" fromJunction="J5" toJunction="J6" end="180" vehsPerHour="17.51119463043586" departLane="free"/>
  <flow id="JF278348" begin="120" fromJunction="J5" toJunction="J4" end="180" vehsPerHour="24.721493924615782" departLane="free"/>
  <flow id="JF278349" begin="120" fromJunction="J7" toJunction="J0" end="180" vehsPerHour="27.77444343307459" departLane="free"/>
  <flow id="JF278350" begin="120" fromJunction="J7" toJunction="J3" end="180" vehsPerHour="31.207848958504115" departLane="free"/>
  <flow id="JF278351" begin="120" fromJunction="J6" toJunction="J0" end="180" vehsPerHour="29.63928415482252" departLane="free"/>
  <flow id="JF278352" begin="120" fromJunction="J6" toJunction="J3" end="180" vehsPerHour="7.521915650527546" departLane="free"/>
  <flow id="JF278353" begin="120" fromJunction="J4" toJunction="J0" end="180" vehsPerHour="12.253626574324585" departLane="free"/>
  <flow id="JF278354" begin="120" fromJunction="J4" toJunction="J3" end="180" vehsPerHour="13.686122832445877" departLane="free"/>
  <flow id="JF278355" begin="120" fromJunction="J5" toJunction="J0" end="180" vehsPerHour="18.425017574897424" departLane="free"/>
  <flow id="JF278356" begin="120" fromJunction="J5" toJunction="J3" end="180" vehsPerHour="28.231495528663142" departLane="free"/>
  <flow id="JF278357" begin="180" fromJunction="J0" toJunction="J3" end="240" vehsPerHour="149.88655749336047" departLane="free"/>
  <flow id="JF278358" begin="180" fromJunction="J3" toJunction="J0" end="240" vehsPerHour="264.3816348824003" departLane="free"/>
  <flow id="JF278359" begin="180" fromJunction="J0" toJunction="J7" end="240" vehsPerHour="9.047940062571149" departLane="free"/>
  <flow id="JF278360" begin="180" fromJunction="J0" toJunction="J6" end="240" vehsPerHour="114.4632020447314" departLane="free"/>
  <flow id="JF278361" begin="180" fromJunction="J0" toJunction="J4" end="240" vehsPerHour="61.67382888757554" departLane="free"/>
  <flow id="JF278362" begin="180" fromJunction="J0" toJunction="J5" end="240" vehsPerHour="99.16070519123626" departLane="free"/>
  <flow id="JF278363" begin="180" fromJunction="J3" toJunction="J7" end="240" vehsPerHour="8.27946053336303" departLane="free"/>
  <flow id="JF278364" begin="180" fromJunction="J3" toJunction="J6" end="240" vehsPerHour="107.79103621252604" departLane="free"/>
  <flow id="JF278365" begin="180" fromJunction="J3" toJunction="J4" end="240" vehsPerHour="98.25418842446683" departLane="free"/>
  <flow id="JF278366" begin="180" fromJunction="J3" toJunction="J5" end="240" vehsPerHour="81.19513400992771" departLane="free"/>
  <flow id="JF278367" begin="180" fromJunction="J7" toJunction="J6" end="240" vehsPerHour="28.71601069702807" departLane="free"/>
  <flow id="JF278368" begin="180" fromJunction="J7" toJunction="J4" end="240" vehsPerHour="29.980541922015295" departLane="free"/>
  <flow id="JF278369" begin="180" fromJunction="J7" toJunction="J5" end="240" vehsPerHour="17.363201087443187" departLane="free"/>
  <flow id="JF278370" begin="180" fromJunction="J6" toJunction="J7" end="240" vehsPerHour="43.59132348774519" departLane="free"/>
  <flow id="JF278371" begin="180" fromJunction="J6" toJunction="J4" end="240" vehsPerHour="11.986145589405742" departLane="free"/>
  <flow id="JF278372" begin="180" fromJunction="J6" toJunction="J5" end="240" vehsPerHour="17.91101151887512" departLane="free"/>
  <flow id="JF278373" begin="180" fromJunction="J4" toJunction="J7" end="240" vehsPerHour="10.056469733614467" departLane="free"/>
  <flow id="JF278374" begin="180" fromJunction="J4" toJunction="J6" end="240" vehsPerHour="61.22093511675465" departLane="free"/>
  <flow id="JF278375" begin="180" fromJunction="J4" toJunction="J5" end="240" vehsPerHour="61.16264829524459" departLane="free"/>
  <flow id="JF278376" begin="180" fromJunction="J5" toJunction="J7" end="240" vehsPerHour="54.28761355507089" departLane="free"/>
  <flow id="JF278377" begin="180" fromJunction="J5" toJunction="J6" end="240" vehsPerHour="2.6130379788630065" departLane="free"/>
  <flow id="JF278378" begin="180" fromJunction="J5" toJunction="J4" end="240" vehsPerHour="14.788575662593887" departLane="free"/>
  <flow id="JF278379" begin="180" fromJunction="J7" toJunction="J0" end="240" vehsPerHour="15.144301933904144" departLane="free"/>
  <flow id="JF278380" begin="180" fromJunction="J7" toJunction="J3" end="240" vehsPerHour="34.17996031737362" departLane="free"/>
  <flow id="JF278381" begin="180" fromJunction="J6" toJunction="J0" end="240" vehsPerHour="27.07513311327575" departLane="free"/>
  <flow id="JF278382" begin="180" fromJunction="J6" toJunction="J3" end="240" vehsPerHour="34.3460876495006" departLane="free"/>
  <flow id="JF278383" begin="180" fromJunction="J4" toJunction="J0" end="240" vehsPerHour="3.384535679053953" departLane="free"/>
  <flow id="JF278384" begin="180" fromJunction="J4" toJunction="J3" end="240" vehsPerHour="1.5315438268919925" departLane="free"/>
  <flow id="JF278385" begin="180" fromJunction="J5" toJunction="J0" end="240" vehsPerHour="18.55689203686025" departLane="free"/>
  <flow id="JF278386" begin="180" fromJunction="J5" toJunction="J3" end="240" vehsPerHour="26.393986333106014" departLane="free"/>
  <flow id="JF278387" begin="240" fromJunction="J0" toJunction="J3" end="300" vehsPerHour="362.44701984074413" departLane="free"/>
  <flow id="JF278388" begin="240" fromJunction="J3" toJunction="J0" end="300" vehsPerHour="178.12161093897143" departLane="free"/>
  <flow id="JF278389" begin="240" fromJunction="J0" toJunction="J7" end="300" vehsPerHour="15.822529875529447" departLane="free"/>
  <flow id="JF278390" begin="240" fromJunction="J0" toJunction="J6" end="300" vehsPerHour="43.19855627930078" departLane="free"/>
  <flow id="JF278391" begin="240" fromJunction="J0" toJunction="J4" end="300" vehsPerHour="20.89442716930841" departLane="free"/>
  <flow id="JF278392" begin="240" fromJunction="J0" toJunction="J5" end="300" vehsPerHour="0.04273463169522904" departLane="free"/>
  <flow id="JF278393" begin="240" fromJunction="J3" toJunction="J7" end="300" vehsPerHour="137.29616203354928" departLane="free"/>
  <flow id="JF278394" begin="240" fromJunction="J3" toJunction="J6" end="300" vehsPerHour="67.45081296606187" departLane="free"/>
  <flow id="JF278395" begin="240" fromJunction="J3" toJunction="J4" end="300" vehsPerHour="66.46332240312533" departLane="free"/>
  <flow id="JF278396" begin="240" fromJunction="J3" toJunction="J5" end="300" vehsPerHour="55.48145548894029" departLane="free"/>
  <flow id="JF278397" begin="300" fromJunction="J0" toJunction="J3" end="360" vehsPerHour="49.54575977776415" departLane="free"/>
  <flow id="JF278398" begin="300" fromJunction="J3" toJunction="J0" end="360" vehsPerHour="181.11616850169665" departLane="free"/>
  <flow id="JF278399" begin="300" fromJunction="J0" toJunction="J7" end="360" vehsPerHour="92.5549173009402" departLane="free"/>
  <flow id="JF278400" begin="300" fromJunction="J0" toJunction="J6" end="360" vehsPerHour="129.34973664845384" departLane="free"/>
  <flow id="JF278401" begin="300" fromJunction="J0" toJunction="J4" end="360" vehsPerHour="109.09600975347787" departLane="free"/>
  <flow id="JF278402" begin="300" fromJunction="J0" toJunction="J5" end="360" vehsPerHour="122.33595033071927" departLane="free"/>
  <flow id="JF278403" begin="300" fromJunction="J3" toJunction="J7" end="360" vehsPerHour="64.54524126177884" departLane="free"/>
  <flow id="JF278404" begin="300" fromJunction="J3" toJunction="J6" end="360" vehsPerHour="35.186015756354585" departLane="free"/>
  <flow id="JF278405" begin="300" fromJunction="J3" toJunction="J4" end="360" vehsPerHour="102.59779212560797" departLane="free"/>
  <flow id="JF278406" begin="300" fromJunction="J3" toJunction="J5" end="360" vehsPerHour="68.58044769616616" departLane="free"/>
  <flow id="JF278407" begin="300" fromJunction="J7" toJunction="J6" end="360" vehsPerHour="22.39761225080265" departLane="free"/>
  <flow id="JF278408" begin="300" fromJunction="J7" toJunction="J4" end="360" vehsPerHour="14.356858008361016" departLane="free"/>
  <flow id="JF278409" begin="300" fromJunction="J7" toJunction="J5" end="360" vehsPerHour="24.73086315799787" departLane="free"/>
  <flow id="JF278410" begin="300" fromJunction="J6" toJunction="J7" end="360" vehsPerHour="53.70697983181887" departLane="free"/>
  <flow id="JF278411" begin="300" fromJunction="J6" toJunction="J4" end="360" vehsPerHour="9.565325556035345" departLane="free"/>
  <flow id="JF278412" begin="300" fromJunction="J6" toJunction="J5" end="360" vehsPerHour="24.667544384546222" departLane="free"/>
  <flow id="JF278413" begin="300" fromJunction="J4" toJunction="J7" end="360" vehsPerHour="64.68088188363191" departLane="free"/>
  <flow id="JF278414" begin="300" fromJunction="J4" toJunction="J6" end="360" vehsPerHour="31.90878831643684" departLane="free"/>
  <flow id="JF278415" begin="300" fromJunction="J4" toJunction="J5" end="360" vehsPerHour="42.66486126561182" departLane="free"/>
  <flow id="JF278416" begin="300" fromJunction="J5" toJunction="J7" end="360" vehsPerHour="29.287571083914656" departLane="free"/>
  <flow id="JF278417" begin="300" fromJunction="J5" toJunction="J6" end="360" vehsPerHour="10.992989002541979" departLane="free"/>
  <flow id="JF278418" begin="300" fromJunction="J5" toJunction="J4" end="360" vehsPerHour="8.744312266229672" departLane="free"/>
  <flow id="JF278419" begin="300" fromJunction="J7" toJunction="J0" end="360" vehsPerHour="4.680978156129326" departLane="free"/>
  <flow id="JF278420" begin="300" fromJunction="J7" toJunction="J3" end="360" vehsPerHour="2.095308660025717" departLane="free"/>
  <flow id="JF278421" begin="300" fromJunction="J6" toJunction="J0" end="360" vehsPerHour="26.5678646941922" departLane="free"/>
  <flow id="JF278422" begin="300" fromJunction="J6" toJunction="J3" end="360" vehsPerHour="28.292678940332113" departLane="free"/>
  <flow id="JF278423" begin="300" fromJunction="J4" toJunction="J0" end="360" vehsPerHour="25.922643085069353" departLane="free"/>
  <flow id="JF278424" begin="300" fromJunction="J4" toJunction="J3" end="360" vehsPerHour="14.164732073682789" departLane="free"/>
  <flow id="JF278425" begin="300" fromJunction="J5" toJunction="J0" end="360" vehsPerHour="21.761904588876227" departLane="free"/>
  <flow id="JF278426" begin="300" fromJunction="J5" toJunction="J3" end="360" vehsPerHour="20.27775806144396" departLane="free"/>
  <flow id="JF278427" begin="360" fromJunction="J0" toJunction="J3" end="420" vehsPerHour="262.1162368427268" departLane="free"/>
  <flow id="JF278428" begin="360" fromJunction="J3" toJunction="J0" end="420" vehsPerHour="204.3713582872611" departLane="free"/>
  <flow id="JF278429" begin="360" fromJunction="J0" toJunction="J7" end="420" vehsPerHour="132.71318497459228" departLane="free"/>
  <flow id="JF278430" begin="360" fromJunction="J0" toJunction="J6" end="420" vehsPerHour="106.23577984582785" departLane="free"/>
  <flow id="JF278431" begin="360" fromJunction="J0" toJunction="J4" end="420" vehsPerHour="137.00247014422638" departLane="free"/>
  <flow id="JF278432" begin="360" fromJunction="J0" toJunction="J5" end="420" vehsPerHour="41.17787332680177" departLane="free"/>
  <flow id="JF278433" begin="360" fromJunction="J3" toJunction="J7" end="420" vehsPerHour="94.27898250094745" departLane="free"/>
  <flow id="JF278434" begin="360" fromJunction="J3" toJunction="J6" end="420" vehsPerHour="80.12542990065816" departLane="free"/>
  <flow id="JF278435" begin="360" fromJunction="J3" toJunction="J4" end="420" vehsPerHour="95.10180453517499" departLane="free"/>
  <flow id="JF278436" begin="360" fromJunction="J3" toJunction="J5" end="420" vehsPerHour="56.77329077034938" departLane="free"/>
  <flow id="JF278437" begin="420" fromJunction="J0" toJunction="J3" end="480" vehsPerHour="476.96932489847427" departLane="free"/>
  <flow id="JF278438" begin="420" fromJunction="J3" toJunction="J0" end="480" vehsPerHour="253.03372485354706" departLane="free"/>
  <flow id="JF278439" begin="420" fromJunction="J0" toJunction="J7" end="480" vehsPerHour="28.156592423316717" departLane="free"/>
  <flow id="JF278440" begin="420" fromJunction="J0" toJunction="J6" end="480" vehsPerHour="102.94079015150201" departLane="free"/>
  <flow id="JF278441" begin="420" fromJunction="J0" toJunction="J4" end="480" vehsPerHour="9.234065436776337" departLane="free"/>
  <flow id="JF278442" begin="420" fromJunction="J0" toJunction="J5" end="480" vehsPerHour="73.45269431811728" departLane="free"/>
  <flow id="JF278443" begin="420" fromJunction="J3" toJunction="J7" end="480" vehsPerHour="68.18747269468122" departLane="free"/>
  <flow id="JF278444" begin="420" fromJunction="J3" toJunction="J6" end="480" vehsPerHour="7.530076708245795" departLane="free"/>
  <flow id="JF278445" begin="420" fromJunction="J3" toJunction="J4" end="480" vehsPerHour="107.60976385185504" departLane="free"/>
  <flow id="JF278446" begin="420" fromJunction="J3" toJunction="J5" end="480" vehsPerHour="89.42456917660493" departLane="free"/>
  <flow id="JF278447" begin="480" fromJunction="J0" toJunction="J3" end="540" vehsPerHour="11.715025697750804" departLane="free"/>
  <flow id="JF278448" begin="480" fromJunction="J3" toJunction="J0" end="540" vehsPerHour="35.91826983429757" departLane="free"/>
  <flow id="JF278449" begin="480" fromJunction="J0" toJunction="J7" end="540" vehsPerHour="3.9650778331657435" departLane="free"/>
  <flow id="JF278450" begin="480" fromJunction="J0" toJunction="J6" end="540" vehsPerHour="110.08185647841479" departLane="free"/>
  <flow id="JF278451" begin="480" fromJunction="J0" toJunction="J4" end="540" vehsPerHour="11.0481507817441" departLane="free"/>
  <flow id="JF278452" begin="480" fromJunction="J0" toJunction="J5" end="540" vehsPerHour="57.618538458158824" departLane="free"/>
  <flow id="JF278453" begin="480" fromJunction="J3" toJunction="J7" end="540" vehsPerHour="129.6522077722641" departLane="free"/>
  <flow id="JF278454" begin="480" fromJunction="J3" toJunction="J6" end="540" vehsPerHour="30.033120716053066" departLane="free"/>
  <flow id="JF278455" begin="480" fromJunction="J3" toJunction="J4" end="540" vehsPerHour="112.44712875122715" departLane="free"/>
  <flow id="JF278456" begin="480" fromJunction="J3" toJunction="J5" end="540" vehsPerHour="110.71370510205013" departLane="free"/>
  <flow id="JF278457" begin="480" fromJunction="J7" toJunction="J6" end="540" vehsPerHour="4.791392685085069" departLane="free"/>
  <flow id="JF278458" begin="480" fromJunction="J7" toJunction="J4" end="540" vehsPerHour="33.52071815977069" departLane="free"/>
  <flow id="JF278459" begin="480" fromJunction="J7" toJunction="J5" end="540" vehsPerHour="20.700334574747963" departLane="free"/>
  <flow id="JF278460" begin="480" fromJunction="J6" toJunction="J7" end="540" vehsPerHour="64.03838826706425" departLane="free"/>
  <flow id="JF278461" begin="480" fromJunction="J6" toJunction="J4" end="540" vehsPerHour="1.7092806807801226" departLane="free"/>
  <flow id="JF278462" begin="480" fromJunction="J6" toJunction="J5" end="540" vehsPerHour="18.181067295522276" departLane="free"/>
  <flow id="JF278463" begin="480" fromJunction="J4" toJunction="J7" end="540" vehsPerHour="7.36953182233682" departLane="free"/>
  <flow id="JF278464" begin="480" fromJunction="J4" toJunction="J6" end="540" vehsPerHour="31.37593063611762" departLane="free"/>
  <flow id="JF278465" begin="480" fromJunction="J4" toJunction="J5" end="540" vehsPerHour="7.02099601759564" departLane="free"/>
  <flow id="JF278466" begin="480" fromJunction="J5" toJunction="J7" end="540" vehsPerHour="44.178752137696364" departLane="free"/>
  <flow id="JF278467" begin="480" fromJunction="J5" toJunction="J6" end="540" vehsPerHour="15.672155158890154" departLane="free"/>
  <flow id="JF278468" begin="480" fromJunction="J5" toJunction="J4" end="540" vehsPerHour="14.150034863437504" departLane="free"/>
  <flow id="JF278469" begin="480" fromJunction="J7" toJunction="J0" end="540" vehsPerHour="22.41845254463437" departLane="free"/>
  <flow id="JF278470" begin="480" fromJunction="J7" toJunction="J3" end="540" vehsPerHour="6.622467927429025" departLane="free"/>
  <flow id="JF278471" begin="480" fromJunction="J6" toJunction="J0" end="540" vehsPerHour="17.290780080202357" departLane="free"/>
  <flow id="JF278472" begin="480" fromJunction="J6" toJunction="J3" end="540" vehsPerHour="29.916864618683764" departLane="free"/>
  <flow id="JF278473" begin="480" fromJunction="J4" toJunction="J0" end="540" vehsPerHour="8.22175698425816" departLane="free"/>
  <flow id="JF278474" begin="480" fromJunction="J4" toJunction="J3" end="540" vehsPerHour="31.028078233330266" departLane="free"/>
  <flow id="JF278475" begin="480" fromJunction="J5" toJunction="J0" end="540" vehsPerHour="14.240672688265544" departLane="free"/>
  <flow id="JF278476" begin="480" fromJunction="J5" toJunction="J3" end="540" vehsPerHour="32.92237876202875" departLane="free"/>
  <flow id="JF278477" begin="540" fromJunction="J0" toJunction="J3" end="600" vehsPerHour="371.0305675015764" departLane="free"/>
  <flow id="JF278478" begin="540" fromJunction="J3" toJunction="J0" end="600" vehsPerHour="7.0383233148288795" departLane="free"/>
  <flow id="JF278479" begin="540" fromJunction="J0" toJunction="J7" end="600" vehsPerHour="134.58549306812125" departLane="free"/>
  <flow id="JF278480" begin="540" fromJunction="J0" toJunction="J6" end="600" vehsPerHour="39.9591649639936" departLane="free"/>
  <flow id="JF278481" begin="540" fromJunction="J0" toJunction="J4" end="600" vehsPerHour="110.70595801106364" departLane="free"/>
  <flow id="JF278482" begin="540" fromJunction="J0" toJunction="J5" end="600" vehsPerHour="36.331217791895085" departLane="free"/>
  <flow id="JF278483" begin="540" fromJunction="J3" toJunction="J7" end="600" vehsPerHour="71.40915817212552" departLane="free"/>
  <flow id="JF278484" begin="540" fromJunction="J3" toJunction="J6" end="600" vehsPerHour="97.40009655566794" departLane="free"/>
  <flow id="JF278485" begin="540" fromJunction="J3" toJunction="J4" end="600" vehsPerHour="2.4557653282785177" departLane="free"/>
  <flow id="JF278486" begin="540" fromJunction="J3" toJunction="J5" end="600" vehsPerHour="126.46581519715207" departLane="free"/>
  <flow id="JF278487" begin="540" fromJunction="J7" toJunction="J6" end="600" vehsPerHour="28.082382314680622" departLane="free"/>
  <flow id="JF278488" begin="540" fromJunction="J7" toJunction="J4" end="600" vehsPerHour="10.22098911999929" departLane="free"/>
  <flow id="JF278489" begin="540" fromJunction="J7" toJunction="J5" end="600" vehsPerHour="26.51214675113626" departLane="free"/>
  <flow id="JF278490" begin="540" fromJunction="J6" toJunction="J7" end="600" vehsPerHour="45.4876384637619" departLane="free"/>
  <flow id="JF278491" begin="540" fromJunction="J6" toJunction="J4" end="600" vehsPerHour="24.991834661081704" departLane="free"/>
  <flow id="JF278492" begin="540" fromJunction="J6" toJunction="J5" end="600" vehsPerHour="13.433949756415638" departLane="free"/>
  <flow id="JF278493" begin="540" fromJunction="J4" toJunction="J7" end="600" vehsPerHour="20.692842965449973" departLane="free"/>
  <flow id="JF278494" begin="540" fromJunction="J4" toJunction="J6" end="600" vehsPerHour="54.208432407265335" departLane="free"/>
  <flow id="JF278495" begin="540" fromJunction="J4" toJunction="J5" end="600" vehsPerHour="2.9620222036506445" departLane="free"/>
  <flow id="JF278496" begin="540" fromJunction="J5" toJunction="J7" end="600" vehsPerHour="60.100951712914394" departLane="free"/>
  <flow id="JF278497" begin="540" fromJunction="J5" toJunction="J6" end="600" vehsPerHour="57.09969184683" departLane="free"/>
  <flow id="JF278498" begin="540" fromJunction="J5" toJunction="J4" end="600" vehsPerHour="19.783129770161185" departLane="free"/>
  <flow id="JF278499" begin="540" fromJunction="J7" toJunction="J0" end="600" vehsPerHour="7.9357299459533275" departLane="free"/>
  <flow id="JF278500" begin="540" fromJunction="J7" toJunction="J3" end="600" vehsPerHour="4.775271253823341" departLane="free"/>
  <flow id="JF278501" begin="540" fromJunction="J6" toJunction="J0" end="600" vehsPerHour="31.956654334057706" departLane="free"/>
  <flow id="JF278502" begin="540" fromJunction="J6" toJunction="J3" end="600" vehsPerHour="20.153283280665022" departLane="free"/>
  <flow id="JF278503" begin="540" fromJunction="J4" toJunction="J0" end="600" vehsPerHour="6.456468822697044" departLane="free"/>
  <flow id="JF278504" begin="540" fromJunction="J4" toJunction="J3" end="600" vehsPerHour="30.99608372781126" departLane="free"/>
  <flow id="JF278505" begin="540" fromJunction="J5" toJunction="J0" end="600" vehsPerHour="15.213738483650447" departLane="free"/>
  <flow id="JF278506" begin="540" fromJunction="J5" toJunction="J3" end="600" vehsPerHour="24.97764675917945" departLane="free"/>
  <flow id="JF278507" begin="600" fromJunction="J0" toJunction="J3" end="660" vehsPerHour="282.6896991351767" departLane="free"/>
  <flow id="JF278508" begin="600" fromJunction="J3" toJunction="J0" end="660" vehsPerHour="21.959150745960862" departLane="free"/>
  <flow id="JF278509" begin="600" fromJunction="J0" toJunction="J7" end="660" vehsPerHour="95.74301438608374" departLane="free"/>
  <flow id="JF278510" begin="600" fromJunction="J0" toJunction="J6" end="660" vehsPerHour="116.51452567596452" departLane="free"/>
  <flow id="JF278511" begin="600" fromJunction="J0" toJunction="J4" end="660" vehsPerHour="67.69804020811559" departLane="free"/>
  <flow id="JF278512" begin="600" fromJunction="J0" toJunction="J5" end="660" vehsPerHour="48.638931991261465" departLane="free"/>
  <flow id="JF278513" begin="600" fromJunction="J3" toJunction="J7" end="660" vehsPerHour="131.0850350688969" departLane="free"/>
  <flow id="JF278514" begin="600" fromJunction="J3" toJunction="J6" end="660" vehsPerHour="7.034885653314609" departLane="free"/>
  <flow id="JF278515" begin="600" fromJunction="J3" toJunction="J4" end="660" vehsPerHour="47.84758820446238" departLane="free"/>