<?xml version="1.0" encoding="UTF-8"?>
<routes xmlns:xsi="http://www.w3.org/2001/XMLSchema-instance" xsi:noNamespaceSchemaLocation="http://sumo.dlr.de/xsd/routes_file.xsd">
  <flow id="JF286227" begin="0" fromJunction="J0" toJunction="J3" end="60" vehsPerHour="223.03223072665685" departLane="free"/>
  <flow id="JF286228" begin="0" fromJunction="J3" toJunction="J0" end="60" vehsPerHour="28.555309376089347" departLane="free"/>
  <flow id="JF286229" begin="0" fromJunction="J0" toJunction="J7" end="60" vehsPerHour="6.1464743807241025" departLane="free"/>
  <flow id="JF286230" begin="0" fromJunction="J0" toJunction="J6" end="60" vehsPerHour="68.93331969449761" departLane="free"/>
  <flow id="JF286231" begin="0" fromJunction="J0" toJunction="J4" end="60" vehsPerHour="61.59900956811812" departLane="free"/>
  <flow id="JF286232" begin="0" fromJunction="J0" toJunction="J5" end="60" vehsPerHour="82.3903865406516" departLane="free"/>
  <flow id="JF286233" begin="0" fromJunction="J3" toJunction="J7" end="60" vehsPerHour="85.58405469473544" departLane="free"/>
  <flow id="JF286234" begin="0" fromJunction="J3" toJunction="J6" end="60" vehsPerHour="29.21346610500442" departLane="free"/>
  <flow id="JF286235" begin="0" fromJunction="J3" toJunction="J4" end="60" vehsPerHour="5.801877029449454" departLane="free"/>
  <flow id="JF286236" begin="0" fromJunction="J3" toJunction="J5" end="60" vehsPerHour="127.22791464341044" departLane="free"/>
  <flow id="JF286237" begin="60" fromJunction="J0" toJunction="J3" end="120" vehsPerHour="346.1352920084848" departLane="free"/>
  <flow id="JF286238" begin="60" fromJunction="J3" toJunction="J0" end="120" vehsPerHour="146.3705056699742" departLane="free"/>
  <flow id="JF286239" begin="60" fromJunction="J0" toJunction="J7" end="120" vehsPerHour="42.453857340533915" departLane="free"/>
  <flow id="JF286240" begin="60" fromJunction="J0" toJunction="J6" end="120" vehsPerHour="136.5347463961227" departLane="free"/>
  <flow id="JF286241" begin="60" fromJunction="J0" toJunction="J4" end="120" vehsPerHour="0.730937426366497" departLane="free"/>
  <flow id="JF286242" begin="60" fromJunction="J0" toJunction="J5" end="120" vehsPerHour="13.94083672385452" departLane="free"/>
  <flow id="JF286243" begin="60" fromJunction="J3" toJunction="J7" end="120" vehsPerHour="111.96433464454586" departLane="free"/>
  <flow id="JF286244" begin="60" fromJunction="J3" toJunction="J6" end="120" vehsPerHour="97.03534258407454" departLane="free"/>
  <flow id="JF286245" begin="60" fromJunction="J3" toJunction="J4" end="120" vehsPerHour="70.7326594233793" departLane="free"/>
  <flow id="JF286246" begin="60" fromJunction="J3" toJunction="J5" end="120" vehsPerHour="27.45808821529115" departLane="free"/>
  <flow id="JF286247" begin="60" fromJunction="J7" toJunction="J6" end="120" vehsPerHour="6.551002226759015" departLane="free"/>
  <flow id="JF286248" begin="60" fromJunction="J7" toJunction="J4" end="120" vehsPerHour="15.684730605250854" departLane="free"/>
  <flow id="JF286249" begin="60" fromJunction="J7" toJunction="J5" end="120" vehsPerHour="6.077320120833357" departLane="free"/>
  <flow id="JF286250" begin="60" fromJunction="J6" toJunction="J7" end="120" vehsPerHour="52.96581962902402" departLane="free"/>
  <flow id="JF286251" begin="60" fromJunction="J6" toJunction="J4" end="120" vehsPerHour="11.926413379628242" departLane="free"/>
  <flow id="JF286252" begin="60" fromJunction="J6" toJunction="J5" end="120" vehsPerHour="6.609748104492588" departLane="free"/>
  <flow id="JF286253" begin="60" fromJunction="J4" toJunction="J7" end="120" vehsPerHour="27.85348052076228" departLane="free"/>
  <flow id="JF286254" begin="60" fromJunction="J4" toJunction="J6" end="120" vehsPerHour="56.38835802285548" departLane="free"/>
  <flow id="JF286255" begin="60" fromJunction="J4" toJunction="J5" end="120" vehsPerHour="28.437212455578713" departLane="free"/>
  <flow id="JF286256" begin="60" fromJunction="J5" toJunction="J7" end="120" vehsPerHour="49.28614785805756" departLane="free"/>
  <flow id="JF286257" begin="60" fromJunction="J5" toJunction="J6" end="120" vehsPerHour="30.835737029879652" departLane="free"/>
  <flow id="JF286258" begin="60" fromJunction="J5" toJunction="J4" end="120" vehsPerHour="19.185150216868163" departLane="free"/>
  <flow id="JF286259" begin="60" fromJunction="J7" toJunction="J0" end="120" vehsPerHour="9.043961329917357" departLane="free"/>
  <flow id="JF286260" begin="60" fromJunction="J7" toJunction="J3" end="120" vehsPerHour="3.6286320044715676" departLane="free"/>
  <flow id="JF286261" begin="60" fromJunction="J6" toJunction="J0" end="120" vehsPerHour="32.63039010278932" departLane="free"/>
  <flow id="JF286262" begin="60" fromJunction="J6" toJunction="J3" end="120" vehsPerHour="6.504618687421459" departLane="free"/>
  <flow id="JF286263" begin="60" fromJunction="J4" toJunction="J0" end="120" vehsPerHour="33.03166028363002" departLane="free"/>
  <flow id="JF286264" begin="60" fromJunction="J4" toJunction="J3" end="120" vehsPerHour="17.802707747047933" departLane="free"/>
  <flow id="JF286265" begin="60" fromJunction="J5" toJunction="J0" end="120" vehsPerHour="2.2692901881269174" departLane="free"/>
  <flow id="JF286266" begin="60" fromJunction="J5" toJunction="J3" end="120" vehsPerHour="5.90069525733834" departLane="free"/>
  <flow id="JF286267" begin="120" fromJunction="J0" toJunction="J3" end="180" vehsPerHour="398.98574150272054" departLane="free"/>
  <flow id="JF286268" begin="120" fromJunction="J3" toJunction="J0" end="180" vehsPerHour="239.71868729388314" departLane="free"/>
  <flow id="JF286269" begin="120" fromJunction="J0" toJunction="J7" end="180" vehsPerHour="70.13830606588218" departLane="free"/>
  <flow id="JF286270" begin="120" fromJunction="J0" toJunction="J6" end="180" vehsPerHour="76.11922760801784" departLane="free"/>
  <flow id="JF286271" begin="120" fromJunction="J0" toJunction="J4" end="180" vehsPerHour="29.710754992974078" departLane="free"/>
  <flow id="JF286272" begin="120" fromJunction="J0" toJunction="J5" end="180" vehsPerHour="53.912873528263354" departLane="free"/>
  <flow id="JF286273" begin="120" fromJunction="J3" toJunction="J7" end="180" vehsPerHour="79.18490596446277" departLane="free"/>
  <flow id="JF286274" begin="120" fromJunction="J3" toJunction="J6" end="180" vehsPerHour="40.784476514628096" departLane="free"/>
  <flow id="JF286275" begin="120" fromJunction="J3" toJunction="J4" end="180" vehsPerHour="63.88195706409521" departLane="free"/>
  <flow id="JF286276" begin="120" fromJunction="J3" toJunction="J5" end="180" vehsPerHour="51.22018256071135" departLane="free"/>
  <flow id="JF286277" begin="120" fromJunction="J7" toJunction="J6" end="180" vehsPerHour="16.2010346668392" departLane="free"/>
  <flow id="JF286278" begin="120" fromJunction="J7" toJunction="J4" end="180" vehsPerHour="18.455649951873234" departLane="free"/>
  <flow id="JF286279" begin="120" fromJunction="J7" toJunction="J5" end="180" vehsPerHour="3.6965254748896004" departLane="free"/>
  <flow id="JF286280" begin="120" fromJunction="J6" toJunction="J7" end="180" vehsPerHour="64.38599070843892" departLane="free"/>
  <flow id="JF286281" begin="120" fromJunction="J6" toJunction="J4" end="180" vehsPerHour="2.3451905761944145" departLane="free"/>
  <flow id="JF286282" begin="120" fromJunction="J6" toJunction="J5" end="180" vehsPerHour="22.07248554319366" departLane="free"/>
  <flow id="JF286283" begin="120" fromJunction="J4" toJunction="J7" end="180" vehsPerHour="43.07999186630454" departLane="free"/>
  <flow id="JF286284" begin="120" fromJunction="J4" toJunction="J6" end="180" vehsPerHour="2.110312784861414" departLane="free"/>
  <flow id="JF286285" begin="120" fromJunction="J4" toJunction="J5" end="180" vehsPerHour="27.629732378612896" departLane="free"/>
  <flow id="JF286286" begin="120" fromJunction="J5" toJunction="J7" end="180" vehsPerHour="5.6902181324918235" departLane="free"/>
  <flow id="JF286287" begin="120" fromJunction="J5" toJunction="J6" end="180" vehsPerHour="50.71565928529889" departLane="free"/>
  <flow id="JF286288" begin="120" fromJunction="J5" toJunction="J4" end="180" vehsPerHour="21.130426806232727" departLane="free"/>
  <flow id="JF286289" begin="120" fromJunction="J7" toJunction="J0" end="180" vehsPerHour="3.3251127692109406" departLane="free"/>
  <flow id="JF286290" begin="120" fromJunction="J7" toJunction="J3" end="180" vehsPerHour="28.495089063374134" departLane="free"/>
  <flow id="JF286291" begin="120" fromJunction="J6" toJunction="J0" end="180" vehsPerHour="29.99786412182442" departLane="free"/>
  <flow id="JF286292" begin="120" fromJunction="J6" toJunction="J3" end="180" vehsPerHour="15.202238366915735" departLane="free"/>
  <flow id="JF286293" begin="120" fromJunction="J4" toJunction="J0" end="180" vehsPerHour="8.678135964185891" departLane="free"/>
  <flow id="JF286294" begin="120" fromJunction="J4" toJunction="J3" end="180" vehsPerHour="17.791936681004664" departLane="free"/>
  <flow id="JF286295" begin="120" fromJunction="J5" toJunction="J0" end="180" vehsPerHour="26.0163760547991" departLane="free"/>
  <flow id="JF286296" begin="120" fromJunction="J5" toJunction="J3" end="180" vehsPerHour="5.014150523472259" departLane="free"/>
  <flow id="JF286297" begin="180" fromJunction="J0" toJunction="J3" end="240" vehsPerHour="439.41323617623726" departLane="free"/>
  <flow id="JF286298" begin="180" fromJunction="J3" toJunction="J0" end="240" vehsPerHour="92.79836552963603" departLane="free"/>
  <flow id="JF286299" begin="180" fromJunction="J0" toJunction="J7" end="240" vehsPerHour="86.50647489860431" departLane="free"/>
  <flow id="JF286300" begin="180" fromJunction="J0" toJunction="J6" end="240" vehsPerHour="12.07435681678672" departLane="free"/>
  <flow id="JF286301" begin="180" fromJunction="J0" toJunction="J4" end="240" vehsPerHour="14.854447736685136" departLane="free"/>
  <flow id="JF286302" begin="180" fromJunction="J0" toJunction="J5" end="240" vehsPerHour="137.16235946699294" departLane="free"/>
  <flow id="JF286303" begin="180" fromJunction="J3" toJunction="J7" end="240" vehsPerHour="67.53893800921388" departLane="free"/>
  <flow id="JF286304" begin="180" fromJunction="J3" toJunction="J6" end="240" vehsPerHour="35.932244639563024" departLane="free"/>
  <flow id="JF286305" begin="180" fromJunction="J3" toJunction="J4" end="240" vehsPerHour="75.11994785890872" departLane="free"/>
  <flow id="JF286306" begin="180" fromJunction="J3" toJunction="J5" end="240" vehsPerHour="93.69499273464372" departLane="free"/>
  <flow id="JF286307" begin="240" fromJunction="J0" toJunction="J3" end="300" vehsPerHour="295.9198534302987" departLane="free"/>
  <flow id="JF286308" begin="240" fromJunction="J3" toJunction="J0" end="300" vehsPerHour="70.07098953258631" departLane="free"/>
  <flow id="JF286309" begin="240" fromJunction="J0" toJunction="J7" end="300" vehsPerHour="2.4060350937019948" departLane="free"/>
  <flow id="JF286310" begin="240" fromJunction="J0" toJunction="J6" end="300" vehsPerHour="48.91943347659276" departLane="free"/>
  <flow id="JF286311" begin="240" fromJunction="J0" toJunction="J4" end="300" vehsPerHour="20.431728737119133" departLane="free"/>
  <flow id="JF286312" begin="240" fromJunction="J0" toJunction="J5" end="300" vehsPerHour="94.24395208787246" departLane="free"/>
  <flow id="JF286313" begin="240" fromJunction="J3" toJunction="J7" end="300" vehsPerHour="132.7182303904354" departLane="free"/>
  <flow id="JF286314" begin="240" fromJunction="J3" toJunction="J6" end="300" vehsPerHour="95.98970866613858" departLane="free"/>
  <flow id="JF286315" begin="240" fromJunction="J3" toJunction="J4" end="300" vehsPerHour="23.11429366021427" departLane="free"/>
  <flow id="JF286316" begin="240" fromJunction="J3" toJunction="J5" end="300" vehsPerHour="82.78787816871763" departLane="free"/>
  <flow id="JF286317" begin="300" fromJunction="J0" toJunction="J3" end="360" vehsPerHour="342.52769178571276" departLane="free"/>
  <flow id="JF286318" begin="300" fromJunction="J3" toJunction="J0" end="360" vehsPerHour="222.60437584252668" departLane="free"/>
  <flow id="JF286319" begin="300" fromJunction="J0" toJunction="J7" end="360" vehsPerHour="133.97825751148983" departLane="free"/>
  <flow id="JF286320" begin="300" fromJunction="J0" toJunction="J6" end="360" vehsPerHour="3.797236599092185" departLane="free"/>
  <flow id="JF286321" begin="300" fromJunction="J0" toJunction="J4" end="360" vehsPerHour="62.1335135654464" departLane="free"/>
  <flow id="JF286322" begin="300" fromJunction="J0" toJunction="J5" end="360" vehsPerHour="29.2791977026989" departLane="free"/>
  <flow id="JF286323" begin="300" fromJunction="J3" toJunction="J7" end="360" vehsPerHour="60.76948881341391" departLane="free"/>
  <flow id="JF286324" begin="300" fromJunction="J3" toJunction="J6" end="360" vehsPerHour="10.126126596174137" departLane="free"/>
  <flow id="JF286325" begin="300" fromJunction="J3" toJunction="J4" end="360" vehsPerHour="14.331266037888344" departLane="free"/>
  <flow id="JF286326" begin="300" fromJunction="J3" toJunction="J5" end="360" vehsPerHour="75.9593596403084" departLane="free"/>
  <flow id="JF286327" begin="360" fromJunction="J0" toJunction="J3" end="420" vehsPerHour="155.3377761922216" departLane="free"/>
  <flow id="JF286328" begin="360" fromJunction="J3" toJunction="J0" end="420" vehsPerHour="205.54222876372734" departLane="free"/>
  <flow id="JF286329" begin="360" fromJunction="J0" toJunction="J7" end="420" vehsPerHour="77.16568682979708" departLane="free"/>
  <flow id="JF286330" begin="360" fromJunction="J0" toJunction="J6" end="420" vehsPerHour="27.571836915990495" departLane="free"/>
  <flow id="JF286331" begin="360" fromJunction="J0" toJunction="J4" end="420" vehsPerHour="118.88575803801865" departLane="free"/>
  <flow id="JF286332" begin="360" fromJunction="J0" toJunction="J5" end="420" vehsPerHour="124.43247714057175" departLane="free"/>
  <flow id="JF286333" begin="360" fromJunction="J3" toJunction="J7" end="420" vehsPerHour="105.54987517441043" departLane="free"/>
  <flow id="JF286334" begin="360" fromJunction="J3" toJunction="J6" end="420" vehsPerHour="5.023127343831576" departLane="free"/>
  <flow id="JF286335" begin="360" fromJunction="J3" toJunction="J4" end="420" vehsPerHour="62.62410393870165" departLane="free"/>
  <flow id="JF286336" begin="360" fromJunction="J3" toJunction="J5" end="420" vehsPerHour="39.34174818570545" departLane="free"/>
  <flow id="JF286337" begin="360" fromJunction="J7" toJunction="J6" end="420" vehsPerHour="14.065252158696453" departLane="free"/>
  <flow id="JF286338" begin="360" fromJunction="J7" toJunction="J4" end="420" vehsPerHour="3.28415723755766" departLane="free"/>
  <flow id="JF286339" begin="360" fromJunction="J7" toJunction="J5" end="420" vehsPerHour="14.271305356020486" departLane="free"/>
  <flow id="JF286340" begin="360" fromJunction="J6" toJunction="J7" end="420" vehsPerHour="19.13322396529663" departLane="free"/>
  <flow id="JF286341" begin="360" fromJunction="J6" toJunction="J4" end="420" vehsPerHour="2.47947309347004" departLane="free"/>
  <flow id="JF286342" begin="360" fromJunction="J6" toJunction="J5" end="420" vehsPerHour="16.89493570555972" departLane="free"/>
  <flow id="JF286343" begin="360" fromJunction="J4" toJunction="J7" end="420" vehsPerHour="44.338415395461546" departLane="free"/>
  <flow id="JF286344" begin="360" fromJunction="J4" toJunction="J6" end="420" vehsPerHour="62.496970341223815" departLane="free"/>
  <flow id="JF286345" begin="360" fromJunction="J4" toJunction="J5" end="420" vehsPerHour="4.239606164421742" departLane="free"/>
  <flow id="JF286346" begin="360" fromJunction="J5" toJunction="J7" end="420" vehsPerHour="54.85816920157888" departLane="free"/>
  <flow id="JF286347" begin="360" fromJunction="J5" toJunction="J6" end="420" vehsPerHour="0.05826239503096686" departLane="free"/>
  <flow id="JF286348" begin="360" fromJunction="J5" toJunction="J4" end="420" vehsPerHour="12.94987612356896" departLane="free"/>
  <flow id="JF286349" begin="360" fromJunction="J7" toJunction="J0" end="420" vehsPerHour="5.653214859785302" departLane="free"/>
  <flow id="JF286350" begin="360" fromJunction="J7" toJunction="J3" end="420" vehsPerHour="30.11231465864174" departLane="free"/>
  <flow id="JF286351" begin="360" fromJunction="J6" toJunction="J0" end="420" vehsPerHour="20.09247216052046" departLane="free"/>
  <flow id="JF286352" begin="360" fromJunction="J6" toJunction="J3" end="420" vehsPerHour="1.3562133387496738" departLane="free"/>
  <flow id="JF286353" begin="360" fromJunction="J4" toJunction="J0" end="420" vehsPerHour="5.592115279565129" departLane="free"/>
  <flow id="JF286354" begin="360" fromJunction="J4" toJunction="J3" end="420" vehsPerHour="27.350813133320674" departLane="free"/>
  <flow id="JF286355" begin="360" fromJunction="J5" toJunction="J0" end="420" vehsPerHour="29.975798240027327" departLane="free"/>
  <flow id="JF286356" begin="360" fromJunction="J5" toJunction="J3" end="420" vehsPerHour="7.6496602867213825" departLane="free"/>
  <flow id="JF286357" begin="420" fromJunction="J0" toJunction="J3" end="480" vehsPerHour="381.04883038693066" departLane="free"/>
  <flow id="JF286358" begin="420" fromJunction="J3" toJunction="J0" end="480" vehsPerHour="6.491749843805721" departLane="free"/>
  <flow id="JF286359" begin="420" fromJunction="J0" toJunction="J7" end="480" vehsPerHour="73.23228806224752" departLane="free"/>
  <flow id="JF286360" begin="420" fromJunction="J0" toJunction="J6" end="480" vehsPerHour="98.90330928112441" departLane="free"/>
  <flow id="JF286361" begin="420" fromJunction="J0" toJunction="J4" end="480" vehsPerHour="73.43949151174385" departLane="free"/>
  <flow id="JF286362" begin="420" fromJunction="J0" toJunction="J5" end="480" vehsPerHour="18.03836376585906" departLane="free"/>
  <flow id="JF286363" begin="420" fromJunction="J3" toJunction="J7" end="480" vehsPerHour="68.3238960245448" departLane="free"/>
  <flow id="JF286364" begin="420" fromJunction="J3" toJunction="J6" end="480" vehsPerHour="122.49081828745146" departLane="free"/>
  <flow id="JF286365" begin="420" fromJunction="J3" toJunction="J4" end="480" vehsPerHour="49.75850000553975" departLane="free"/>
  <flow id="JF286366" begin="420" fromJunction="J3" toJunction="J5" end="480" vehsPerHour="107.46406058258782" departLane="free"/>
  <flow id="JF286367" begin="420" fromJunction="J7" toJunction="J6" end="480" vehsPerHour="13.245654914830903" departLane="free"/>
  <flow id="JF286368" begin="420" fromJunction="J7" toJunction="J4" end="480" vehsPerHour="16.126863447804947" departLane="free"/>
  <flow id="JF286369" begin="420" fromJunction="J7" toJunction="J5" end="480" vehsPerHour="8.233389428994656" departLane="free"/>
  <flow id="JF286370" begin="420" fromJunction="J6" toJunction="J7" end="480" vehsPerHour="32.91825879622065" departLane="free"/>
  <flow id="JF286371" begin="420" fromJunction="J6" toJunction="J4" end="480" vehsPerHour="25.49307496715882" departLane="free"/>
  <flow id="JF286372" begin="420" fromJunction="J6" toJunction="J5" end="480" vehsPerHour="19.45555834160025" departLane="free"/>
  <flow id="JF286373" begin="420" fromJunction="J4" toJunction="J7" end="480" vehsPerHour="24.088261018603056" departLane="free"/>
  <flow id="JF286374" begin="420" fromJunction="J4" toJunction="J6" end="480" vehsPerHour="33.278041998539365" departLane="free"/>
  <flow id="JF286375" begin="420" fromJunction="J4" toJunction="J5" end="480" vehsPerHour="1.2809188483496134" departLane="free"/>
  <flow id="JF286376" begin="420" fromJunction="J5" toJunction="J7" end="480" vehsPerHour="34.354107458850095" departLane="free"/>
  <flow id="JF286377" begin="420" fromJunction="J5" toJunction="J6" end="480" vehsPerHour="8.141176504715142" departLane="free"/>
  <flow id="JF286378" begin="420" fromJunction="J5" toJunction="J4" end="480" vehsPerHour="7.871640412254698" departLane="free"/>
  <flow id="JF286379" begin="420" fromJunction="J7" toJunction="J0" end="480" vehsPerHour="27.570809047445973" departLane="free"/>
  <flow id="JF286380" begin="420" fromJunction="J7" toJunction="J3" end="480" vehsPerHour="30.69837498846364" departLane="free"/>
  <flow id="JF286381" begin="420" fromJunction="J6" toJunction="J0" end="480" vehsPerHour="0.07693666476536888" departLane="free"/>
  <flow id="JF286382" begin="420" fromJunction="J6" toJunction="J3" end="480" vehsPerHour="2.3387226088919366" departLane="free"/>
  <flow id="JF286383" begin="420" fromJunction="J4" toJunction="J0" end="480" vehsPerHour="0.43363446459202315" departLane="free"/>
  <flow id="JF286384" begin="420" fromJunction="J4" toJunction="J3" end="480" vehsPerHour="24.476323008535186" departLane="free"/>
  <flow id="JF286385" begin="420" fromJunction="J5" toJunction="J0" end="480" vehsPerHour="22.581180885325832" departLane="free"/>
  <flow id="JF286386" begin="420" fromJunction="J5" toJunction="J3" end="480" vehsPerHour="33.31818001649553" departLane="free"/>
  <flow id="JF286387" begin="480" fromJunction="J0" toJunction="J3" end="540" vehsPerHour="509.23270041834655" departLane="free"/>
  <flow id="JF286388" begin="480" fromJunction="J3" toJunction="J0" end="540" vehsPerHour="144.3096093588966" departLane="free"/>
  <flow id="JF286389" begin="480" fromJunction="J0" toJunction="J7" end="540" vehsPerHour="25.40780329557757" departLane="free"/>
  <flow id="JF286390" begin="480" fromJunction="J0" toJunction="J6" end="540" vehsPerHour="26.71642959008327" departLane="free"/>
  <flow id="JF286391" begin="480" fromJunction="J0" toJunction="J4" end="540" vehsPerHour="37.66829801950748" departLane="free"/>
  <flow id="JF286392" begin="480" fromJunction="J0" toJunction="J5" end="540" vehsPerHour="51.204424391696996" departLane="free"/>
  <flow id="JF286393" begin="480" fromJunction="J3" toJunction="J7" end="540" vehsPerHour="94.28372737988587" departLane="free"/>
  <flow id="JF286394" begin="480" fromJunction="J3" toJunction="J6" end="540" vehsPerHour="60.40300832413938" departLane="free"/>
  <flow id="JF286395" begin="480" fromJunction="J3" toJunction="J4" end="540" vehsPerHour="70.9782939596702" departLane="free"/>
  <flow id="JF286396" begin="480" fromJunction="J3" toJunction="J5" end="540" vehsPerHour="128.2035454325724" departLane="free"/>
  <flow id="JF286397" begin="540" fromJunction="J0" toJunction="J3" end="600" vehsPerHour="5.893137477577018" departLane="free"/>
  <flow id="JF286398" begin="540" fromJunction="J3" toJunction="J0" end="600" vehsPerHour="62.50081583831671" departLane="free"/>
  <flow id="JF286399" begin="540" fromJunction="J0" toJunction="J7" end="600" vehsPerHour="103.12818986343767" departLane="free"/>
  <flow id="JF286400" begin="540" fromJunction="J0" toJunction="J6" end="600" vehsPerHour="18.899890800964354" departLane="free"/>
  <flow id="JF286401" begin="540" fromJunction="J0" toJunction="J4" end="600" vehsPerHour="133.03024716261" departLane="free"/>
  <flow id="JF286402" begin="540" fromJunction="J0" toJunction="J5" end="600" vehsPerHour="52.37343645936215" departLane="free"/>
  <flow id="JF286403" begin="540" fromJunction="J3" toJunction="J7" end="600" vehsPerHour="112.38412846624507" departLane="free"/>
  <flow id="JF286404" begin="540" fromJunction="J3" toJunction="J6" end="600" vehsPerHour="68.11104948727983" departLane="free"/>
  <flow id="JF286405" begin="540" fromJunction="J3" toJunction="J4" end="600" vehsPerHour="82.1582804039392" departLane="free"/>
  <flow id="JF286406" begin="540" fromJunction="J3" toJunction="J5" end="600" vehsPerHour="79.28670976078625" departLane="free"/>
  <flow id="JF286407" begin="540" fromJunction="J7" toJunction="J6" end="600" vehsPerHour="21.621737815826698" departLane="free"/>
  <flow id="JF286408" begin="540" fromJunction="J7" toJunction="J4" end="600" vehsPerHour="15.278368010704959" departLane="free"/>
  <flow id="JF286409" begin="540" fromJunction="J7" toJunction="J5" end="600" vehsPerHour="20.42952179296172" departLane="free"/>
  <flow id="JF286410" begin="540" fromJunction="J6" toJunction="J7" end="600" vehsPerHour="46.63062727134809" departLane="free"/>
  <flow id="JF286411" begin="540" fromJunction="J6" toJunction="J4" end="600" vehsPerHour="21.269374632671298" departLane="free"/>
  <flow id="JF286412" begin="540" fromJunction="J6" toJunction="J5" end="600" vehsPerHour="25.221034710930525" departLane="free"/>
  <flow id="JF286413" begin="540" fromJunction="J4" toJunction="J7" end="600" vehsPerHour="57.408308216405764" departLane="free"/>
  <flow id="JF286414" begin="540" fromJunction="J4" toJunction="J6" end="600" vehsPerHour="50.29547502777931" departLane="free"/>
  <flow id="JF286415" begin="540" fromJunction="J4" toJunction="J5" end="600" vehsPerHour="48.12454882581888" departLane="free"/>
  <flow id="JF286416" begin="540" fromJunction="J5" toJunction="J7" end="600" vehsPerHour="29.451156140172237" departLane="free"/>
  <flow id="JF286417" begin="540" fromJunction="J5" toJunction="J6" end="600" vehsPerHour="65.32039971823836" departLane="free"/>
  <flow id="JF286418" begin="540" fromJunction="J5" toJunction="J4" end="600" vehsPerHour="25.81213165534186" departLane="free"/>
  <flow id="JF286419" begin="540" fromJunction="J7" toJunction="J0" end="600" vehsPerHour="6.943863832792018" departLane="free"/>
  <flow id="JF286420" begin="540" fromJunction="J7" toJunction="J3" end="600" vehsPerHour="28.49499098190413" departLane="free"/>
  <flow id="JF286421" begin="540" fromJunction="J6" toJunction="J0" end="600" vehsPerHour="33.10968827117133" departLane="free"/>
  <flow id="JF286422" begin="540" fromJunction="J6" toJunction="J3" end="600" vehsPerHour="27.877878106289923" departLane="free"/>
  <flow id="JF286423" begin="540" fromJunction="J4" toJunction="J0" end="600" vehsPerHour="23.61020081079057" departLane="free"/>
  <flow id="JF286424" begin="540" fromJunction="J4" toJunction="J3" end="600" vehsPerHour="0.15096095014898434" departLane="free"/>
  <flow id="JF286425" begin="540" fromJunction="J5" toJunction="J0" end="600" vehsPerHour="20.570661211364133" departLane="free"/>
  <flow id="JF286426" begin="540" fromJunction="J5" toJunction="J3" end="600" vehsPerHour="18.428135397336252" departLane="free"/>
  <flow id="JF286427" begin="600" fromJunction="J0" toJunction="J3" end="660" vehsPerHour="210.0275364252364" departLane="free"/>
  <flow id="JF286428" begin="600" fromJunction="J3" toJunction="J0" end="660" vehsPerHour="107.95350435068846" departLane="free"/>
  <flow id="JF286429" begin="600" fromJunction="J0" toJunction="J7" end="660" vehsPerHour="13.03140266396693" departLane="free"/>
  <flow id="JF286430" begin="600" fromJunction="J0" toJunction="J6" end="660" vehsPerHour="8.521342673225075" departLane="free"/>
  <flow id="JF286431" begin="600" fromJunction="J0" toJunction="J4" end="660" vehsPerHour="98.89228471289789" departLane="free"/>
  <flow id="JF286432" begin="600" fromJunction="J0" toJunction="J5" end="660" vehsPerHour="78.02126608071552" departLane="free"/>
  <flow id="JF286433" begin="600" fromJunction="J3" toJunction="J7" end="660" vehsPerHour="136.4551052711186" departLane="free"/>
  <flow id="JF286434" begin="600" fromJunction="J3" toJunction="J6" end="660" vehsPerHour="34.278467387222946" departLane="free"/>
  <flow id="JF286435" begin="600" fromJunction="J3" toJunction="J4" end="660" vehsPerHour="75.39194844592976" departLane="free"/>
  <flow id="JF286436" begin="600" fromJunction="J3" toJunction="J5" end="660" vehsPerHour="41.690493997886875" departLane="free"/>
  <flow id="JF286437" begin="660" fromJunction="J0" toJunction="J3" end="720" vehsPerHour="60.69242662550534" departLane="free"/>
  <flow id="JF286438" begin="660" fromJunction="J3" toJunction="J0" end="720" vehsPerHour="147.35315364206733" departLane="free"/>
  <flow id="JF286439" begin="660" fromJunction="J0" toJunction="J7" end="720" vehsPerHour="43.09343631049894" departLane="free"/>
  <flow id="JF286440" begin="660" fromJunction="J0" toJunction="J6" end="720" vehsPerHour="38.38344641401521" departLane="free"/>
  <flow id="JF286441" begin="660" fromJunction="J0" toJunction="J4" end="720" vehsPerHour="130.08650453087478" departLane="free"/>
  <flow id="JF286442" begin="660" fromJunction="J0" toJunction="J5" end="720" vehsPerHour="16.46797483461683" departLane="free"/>
  <flow id="JF286443" begin="660" fromJunction="J3" toJunction="J7" end="720" vehsPerHour="89.8108742248425" departLane="free"/>
  <flow id="JF286444" begin="660" fromJunction="J3" toJunction="J6" end="720" vehsPerHour="86.4339637439877" departLane="free"/>
  <flow id="JF286445" begin="660" fromJunction="J3" toJunction="J4" end="720" vehsPerHour="18.530491023563158" departLane="free"/>
  <flow id="JF286446" begin="660" fromJunction="J3" toJunction="J5" end="720" vehsPerHour="89.26911644592121" departLane="free"/>
  <flow id="JF286447" begin="660" fromJunction="J7" toJunction="J6" end="720" vehsPerHour="27.49869679952292" departLane="free"/>
  <flow id="JF286448" begin="660" fromJunction="J7" toJunction="J4" end="720" vehsPerHour="3.9064020055508615" departLane="free"/>
  <flow id="JF286449" begin="660" fromJunction="J7" toJunction="J5" end="720" vehsPerHour="26.503269869660866" departLane="free"/>
  <flow id="JF286450" begin="660" fromJunction="J6" toJunction="J7" end="720" vehsPerHour="21.133026707957686" departLane="free"/>
  <flow id="JF286451" begin="660" fromJunction="J6" toJunction="J4" end="720" vehsPerHour="25.540615284775356" departLane="free"/>
  <flow id="JF286452" begin="660" fromJunction="J6" toJunction="J5" end="720" vehsPerHour="28.88851796260068" departLane="free"/>
  <flow id="JF286453" begin="660" fromJunction="J4" toJunction="J7" end="720" vehsPerHour="5.337369993545925" departLane="free"/>
  <flow id="JF286454" begin="660" fromJunction="J4" toJunction="J6" end="720" vehsPerHour="33.38311206180487" departLane="free"/>
  <flow id="JF286455" begin="660" fromJunction="J4" toJunction="J5" end="720" vehsPerHour="62.361548477904" departLane="free"/>