<?xml version="1.0" encoding="UTF-8"?>
<routes xmlns:xsi="http://www.w3.org/2001/XMLSchema-instance" xsi:noNamespaceSchemaLocation="http://sumo.dlr.de/xsd/routes_file.xsd">
  <flow id="JF442940" begin="0" fromJunction="J3" toJunction="J0" end="5000" vehsPerHour="888.9940090492676" departLane="free"/>
  <flow id="JF442941" begin="0" fromJunction="J0" toJunction="J3" end="5000" vehsPerHour="1157.8111837131223" departLane="free"/>
  <flow id="JF442942" begin="0" fromJunction="J3" toJunction="J6" end="5000" vehsPerHour="419.18018909752027" departLane="free"/>
  <flow id="JF442943" begin="0" fromJunction="J3" toJunction="J5" end="5000" vehsPerHour="379.55781025125" departLane="free"/>
  <flow id="JF442944" begin="0" fromJunction="J3" toJunction="J4" end="5000" vehsPerHour="40.03814811280483" departLane="free"/>
  <flow id="JF442945" begin="0" fromJunction="J3" toJunction="J7" end="5000" vehsPerHour="147.72644270158852" departLane="free"/>
  <flow id="JF442946" begin="0" fromJunction="J0" toJunction="J6" end="5000" vehsPerHour="81.78078450967368" departLane="free"/>
  <flow id="JF442947" begin="0" fromJunction="J0" toJunction="J5" end="5000" vehsPerHour="370.9385078997538" departLane="free"/>
  <flow id="JF442948" begin="0" fromJunction="J0" toJunction="J4" end="5000" vehsPerHour="538.450829005495" departLane="free"/>
  <flow id="JF442949" begin="0" fromJunction="J0" toJunction="J7" end="5000" vehsPerHour="376.3723531030896" departLane="free"/>
  <flow id="JF442950" begin="0" fromJunction="J6" toJunction="J5" end="5000" vehsPerHour="8.363507233944805" departLane="free"/>
  <flow id="JF442951" begin="0" fromJunction="J6" toJunction="J4" end="5000" vehsPerHour="213.6488160949224" departLane="free"/>
  <flow id="JF442952" begin="0" fromJunction="J6" toJunction="J7" end="5000" vehsPerHour="258.2063383471184" departLane="free"/>
  <flow id="JF442953" begin="0" fromJunction="J5" toJunction="J6" end="5000" vehsPerHour="82.66535272273264" departLane="free"/>
  <flow id="JF442954" begin="0" fromJunction="J5" toJunction="J4" end="5000" vehsPerHour="245.09152352762635" departLane="free"/>
  <flow id="JF442955" begin="0" fromJunction="J5" toJunction="J7" end="5000" vehsPerHour="107.46481645084233" departLane="free"/>
  <flow id="JF442956" begin="0" fromJunction="J4" toJunction="J6" end="5000" vehsPerHour="79.50737627216961" departLane="free"/>
  <flow id="JF442957" begin="0" fromJunction="J4" toJunction="J5" end="5000" vehsPerHour="245.58695360994895" departLane="free"/>
  <flow id="JF442958" begin="0" fromJunction="J4" toJunction="J7" end="5000" vehsPerHour="246.55578067039443" departLane="free"/>
  <flow id="JF442959" begin="0" fromJunction="J7" toJunction="J6" end="5000" vehsPerHour="211.3357716133218" departLane="free"/>
  <flow id="JF442960" begin="0" fromJunction="J7" toJunction="J5" end="5000" vehsPerHour="96.9891368250361" departLane="free"/>
  <flow id="JF442961" begin="0" fromJunction="J7" toJunction="J4" end="5000" vehsPerHour="231.68758069977315" departLane="free"/>
  <flow id="JF442962" begin="0" fromJunction="J6" toJunction="J3" end="5000" vehsPerHour="146.49044991473073" departLane="free"/>
  <flow id="JF442963" begin="0" fromJunction="J6" toJunction="J0" end="5000" vehsPerHour="193.40003987147634" departLane="free"/>
  <flow id="JF442964" begin="0" fromJunction="J5" toJunction="J3" end="5000" vehsPerHour="185.43643511339434" departLane="free"/>
  <flow id="JF442965" begin="0" fromJunction="J5" toJunction="J0" end="5000" vehsPerHour="148.6624839678311" departLane="free"/>
  <flow id="JF442966" begin="0" fromJunction="J4" toJunction="J3" end="5000" vehsPerHour="169.39252661211464" departLane="free"/>
  <flow id="JF442967" begin="0" fromJunction="J4" toJunction="J0" end="5000" vehsPerHour="171.42767795093843" departLane="free"/>
  <flow id="JF442968" begin="0" fromJunction="J7" toJunction="J3" end="5000" vehsPerHour="29.559540336704504" departLane="free"/>
  <flow id="JF442969" begin="0" fromJunction="J7" toJunction="J0" end="5000" vehsPerHour="35.16689205298968" departLane="free"/>
  <flow id="JF442970" begin="5000" fromJunction="J0" toJunction="J3" end="5060" vehsPerHour="297.4054710262134" departLane="free"/>
  <flow id="JF442971" begin="5000" fromJunction="J0" toJunction="J6" end="5060" vehsPerHour="80.18394668047173" departLane="free"/>
  <flow id="JF442972" begin="5000" fromJunction="J3" toJunction="J4" end="5060" vehsPerHour="85.10576153559877" departLane="free"/>
  <flow id="JF442973" begin="5000" fromJunction="J3" toJunction="J5" end="5060" vehsPerHour="422.02426293339227" departLane="free"/>
  <flow id="JF442974" begin="5000" fromJunction="J3" toJunction="J6" end="5060" vehsPerHour="38.85251071108872" departLane="free"/>
  <flow id="JF442975" begin="5000" fromJunction="J4" toJunction="J0" end="5060" vehsPerHour="9.21849296597064" departLane="free"/>
  <flow id="JF442976" begin="5000" fromJunction="J4" toJunction="J3" end="5060" vehsPerHour="197.07333372865503" departLane="free"/>
  <flow id="JF442977" begin="5000" fromJunction="J4" toJunction="J5" end="5060" vehsPerHour="253.39924317402085" departLane="free"/>
  <flow id="JF442978" begin="5000" fromJunction="J4" toJunction="J6" end="5060" vehsPerHour="83.11532901557733" departLane="free"/>
  <flow id="JF442979" begin="5000" fromJunction="J4" toJunction="J7" end="5060" vehsPerHour="87.39310450944222" departLane="free"/>
  <flow id="JF442980" begin="5000" fromJunction="J5" toJunction="J0" end="5060" vehsPerHour="224.38496084604736" departLane="free"/>
  <flow id="JF442981" begin="5000" fromJunction="J5" toJunction="J4" end="5060" vehsPerHour="226.59005272035384" departLane="free"/>
  <flow id="JF442982" begin="5000" fromJunction="J6" toJunction="J0" end="5060" vehsPerHour="94.72680026743643" departLane="free"/>
  <flow id="JF442983" begin="5000" fromJunction="J6" toJunction="J4" end="5060" vehsPerHour="140.60122461358768" departLane="free"/>
  <flow id="JF442984" begin="5000" fromJunction="J6" toJunction="J5" end="5060" vehsPerHour="190.59360271499645" departLane="free"/>
  <flow id="JF442985" begin="5000" fromJunction="J7" toJunction="J0" end="5060" vehsPerHour="272.2322261695287" departLane="free"/>
  <flow id="JF442986" begin="5000" fromJunction="J7" toJunction="J3" end="5060" vehsPerHour="255.15013715352958" departLane="free"/>
  <flow id="JF442987" begin="5000" fromJunction="J7" toJunction="J4" end="5060" vehsPerHour="272.8691497826475" departLane="free"/>
  <flow id="JF442988" begin="5000" fromJunction="J7" toJunction="J5" end="5060" vehsPerHour="148.70828778920156" departLane="free"/>
  <flow id="JF442989" begin="5000" fromJunction="J7" toJunction="J6" end="5060" vehsPerHour="83.00568937268423" departLane="free"/>
  <flow id="JF442990" begin="5060" fromJunction="J0" toJunction="J4" end="5120" vehsPerHour="436.2668394713114" departLane="free"/>
  <flow id="JF442991" begin="5060" fromJunction="J0" toJunction="J5" end="5120" vehsPerHour="403.5488789374935" departLane="free"/>
  <flow id="JF442992" begin="5060" fromJunction="J0" toJunction="J7" end="5120" vehsPerHour="288.0959862511117" departLane="free"/>
  <flow id="JF442993" begin="5060" fromJunction="J3" toJunction="J0" end="5120" vehsPerHour="218.4645169829902" departLane="free"/>
  <flow id="JF442994" begin="5060" fromJunction="J3" toJunction="J4" end="5120" vehsPerHour="431.8690124751454" departLane="free"/>
  <flow id="JF442995" begin="5060" fromJunction="J3" toJunction="J5" end="5120" vehsPerHour="269.3967241867988" departLane="free"/>
  <flow id="JF442996" begin="5060" fromJunction="J3" toJunction="J6" end="5120" vehsPerHour="342.78488291660193" departLane="free"/>
  <flow id="JF442997" begin="5060" fromJunction="J3" toJunction="J7" end="5120" vehsPerHour="463.46788561904214" departLane="free"/>
  <flow id="JF442998" begin="5060" fromJunction="J4" toJunction="J3" end="5120" vehsPerHour="256.6796415157364" departLane="free"/>
  <flow id="JF442999" begin="5060" fromJunction="J4" toJunction="J5" end="5120" vehsPerHour="87.15610610101031" departLane="free"/>
  <flow id="JF443000" begin="5060" fromJunction="J4" toJunction="J7" end="5120" vehsPerHour="187.57532410477506" departLane="free"/>
  <flow id="JF443001" begin="5060" fromJunction="J5" toJunction="J0" end="5120" vehsPerHour="43.23543342378008" departLane="free"/>
  <flow id="JF443002" begin="5060" fromJunction="J5" toJunction="J4" end="5120" vehsPerHour="251.50279775280768" departLane="free"/>
  <flow id="JF443003" begin="5060" fromJunction="J5" toJunction="J7" end="5120" vehsPerHour="235.83281659362123" departLane="free"/>
  <flow id="JF443004" begin="5060" fromJunction="J6" toJunction="J0" end="5120" vehsPerHour="116.93243994321482" departLane="free"/>
  <flow id="JF443005" begin="5060" fromJunction="J6" toJunction="J4" end="5120" vehsPerHour="12.064304593174107" departLane="free"/>
  <flow id="JF443006" begin="5060" fromJunction="J6" toJunction="J5" end="5120" vehsPerHour="95.85220908238702" departLane="free"/>
  <flow id="JF443007" begin="5060" fromJunction="J7" toJunction="J0" end="5120" vehsPerHour="98.84521077795068" departLane="free"/>
  <flow id="JF443008" begin="5060" fromJunction="J7" toJunction="J3" end="5120" vehsPerHour="87.44363829579534" departLane="free"/>
  <flow id="JF443009" begin="5060" fromJunction="J7" toJunction="J5" end="5120" vehsPerHour="250.22363458785304" departLane="free"/>
  <flow id="JF443010" begin="5060" fromJunction="J7" toJunction="J6" end="5120" vehsPerHour="218.7911538150609" departLane="free"/>
  <flow id="JF443011" begin="5120" fromJunction="J0" toJunction="J3" end="5180" vehsPerHour="189.31617032586269" departLane="free"/>
  <flow id="JF443012" begin="5120" fromJunction="J0" toJunction="J4" end="5180" vehsPerHour="439.8601265716384" departLane="free"/>
  <flow id="JF443013" begin="5120" fromJunction="J0" toJunction="J5" end="5180" vehsPerHour="10.016726377031565" departLane="free"/>
  <flow id="JF443014" begin="5120" fromJunction="J0" toJunction="J6" end="5180" vehsPerHour="436.9808101130189" departLane="free"/>
  <flow id="JF443015" begin="5120" fromJunction="J0" toJunction="J7" end="5180" vehsPerHour="309.87537969134104" departLane="free"/>
  <flow id="JF443016" begin="5120" fromJunction="J3" toJunction="J0" end="5180" vehsPerHour="459.5159171796061" departLane="free"/>
  <flow id="JF443017" begin="5120" fromJunction="J3" toJunction="J5" end="5180" vehsPerHour="463.9492144271305" departLane="free"/>
  <flow id="JF443018" begin="5120" fromJunction="J3" toJunction="J7" end="5180" vehsPerHour="162.23231179506902" departLane="free"/>
  <flow id="JF443019" begin="5120" fromJunction="J4" toJunction="J3" end="5180" vehsPerHour="101.95932400624918" departLane="free"/>
  <flow id="JF443020" begin="5120" fromJunction="J4" toJunction="J6" end="5180" vehsPerHour="125.15148309436826" departLane="free"/>
  <flow id="JF443021" begin="5120" fromJunction="J4" toJunction="J7" end="5180" vehsPerHour="256.63890980662126" departLane="free"/>
  <flow id="JF443022" begin="5120" fromJunction="J5" toJunction="J0" end="5180" vehsPerHour="191.5942330857916" departLane="free"/>
  <flow id="JF443023" begin="5120" fromJunction="J5" toJunction="J3" end="5180" vehsPerHour="220.42550598540257" departLane="free"/>
  <flow id="JF443024" begin="5120" fromJunction="J5" toJunction="J6" end="5180" vehsPerHour="108.153373636901" departLane="free"/>
  <flow id="JF443025" begin="5120" fromJunction="J5" toJunction="J7" end="5180" vehsPerHour="175.5526689138096" departLane="free"/>
  <flow id="JF443026" begin="5120" fromJunction="J6" toJunction="J3" end="5180" vehsPerHour="209.66184867318682" departLane="free"/>
  <flow id="JF443027" begin="5120" fromJunction="J6" toJunction="J4" end="5180" vehsPerHour="36.88842819319023" departLane="free"/>
  <flow id="JF443028" begin="5120" fromJunction="J6" toJunction="J5" end="5180" vehsPerHour="25.870674824881558" departLane="free"/>
  <flow id="JF443029" begin="5120" fromJunction="J6" toJunction="J7" end="5180" vehsPerHour="192.99249326620725" departLane="free"/>
  <flow id="JF443030" begin="5120" fromJunction="J7" toJunction="J0" end="5180" vehsPerHour="109.33181951078147" departLane="free"/>
  <flow id="JF443031" begin="5120" fromJunction="J7" toJunction="J3" end="5180" vehsPerHour="49.059986286814556" departLane="free"/>
  <flow id="JF443032" begin="5120" fromJunction="J7" toJunction="J5" end="5180" vehsPerHour="98.65454952872827" departLane="free"/>
  <flow id="JF443033" begin="5120" fromJunction="J7" toJunction="J6" end="5180" vehsPerHour="47.8236730805794" departLane="free"/>
  <flow id="JF443034" begin="5180" fromJunction="J0" toJunction="J4" end="5240" vehsPerHour="323.694159865839" departLane="free"/>
  <flow id="JF443035" begin="5180" fromJunction="J0" toJunction="J5" end="5240" vehsPerHour="159.09225899807743" departLane="free"/>
  <flow id="JF443036" begin="5180" fromJunction="J0" toJunction="J6" end="5240" vehsPerHour="279.1605910587778" departLane="free"/>
  <flow id="JF443037" begin="5180" fromJunction="J3" toJunction="J0" end="5240" vehsPerHour="347.4812997500339" departLane="free"/>
  <flow id="JF443038" begin="5180" fromJunction="J3" toJunction="J5" end="5240" vehsPerHour="27.149985334792582" departLane="free"/>
  <flow id="JF443039" begin="5180" fromJunction="J3" toJunction="J6" end="5240" vehsPerHour="67.719378394668" departLane="free"/>
  <flow id="JF443040" begin="5180" fromJunction="J3" toJunction="J7" end="5240" vehsPerHour="409.1793853951681" departLane="free"/>
  <flow id="JF443041" begin="5180" fromJunction="J4" toJunction="J0" end="5240" vehsPerHour="97.23260803480238" departLane="free"/>
  <flow id="JF443042" begin="5180" fromJunction="J4" toJunction="J3" end="5240" vehsPerHour="125.53181176002067" departLane="free"/>
  <flow id="JF443043" begin="5180" fromJunction="J4" toJunction="J6" end="5240" vehsPerHour="254.2396468023722" departLane="free"/>
  <flow id="JF443044" begin="5180" fromJunction="J5" toJunction="J0" end="5240" vehsPerHour="27.899312328423452" departLane="free"/>
  <flow id="JF443045" begin="5180" fromJunction="J5" toJunction="J4" end="5240" vehsPerHour="166.1350841796152" departLane="free"/>
  <flow id="JF443046" begin="5180" fromJunction="J5" toJunction="J7" end="5240" vehsPerHour="132.31760845974543" departLane="free"/>
  <flow id="JF443047" begin="5180" fromJunction="J6" toJunction="J0" end="5240" vehsPerHour="203.02034821326527" departLane="free"/>
  <flow id="JF443048" begin="5180" fromJunction="J6" toJunction="J3" end="5240" vehsPerHour="105.59147352350455" departLane="free"/>
  <flow id="JF443049" begin="5180" fromJunction="J6" toJunction="J4" end="5240" vehsPerHour="116.84441920769514" departLane="free"/>
  <flow id="JF443050" begin="5180" fromJunction="J6" toJunction="J5" end="5240" vehsPerHour="222.3358872038193" departLane="free"/>
  <flow id="JF443051" begin="5180" fromJunction="J6" toJunction="J7" end="5240" vehsPerHour="186.70702674562673" departLane="free"/>
  <flow id="JF443052" begin="5180" fromJunction="J7" toJunction="J4" end="5240" vehsPerHour="64.55051137816137" departLane="free"/>
  <flow id="JF443053" begin="5180" fromJunction="J7" toJunction="J5" end="5240" vehsPerHour="77.42830276904189" departLane="free"/>
  <flow id="JF443054" begin="5240" fromJunction="J0" toJunction="J3" end="5300" vehsPerHour="157.32674703052388" departLane="free"/>
  <flow id="JF443055" begin="5240" fromJunction="J0" toJunction="J4" end="5300" vehsPerHour="152.8466035827254" departLane="free"/>
  <flow id="JF443056" begin="5240" fromJunction="J0" toJunction="J5" end="5300" vehsPerHour="256.03152794243556" departLane="free"/>
  <flow id="JF443057" begin="5240" fromJunction="J0" toJunction="J6" end="5300" vehsPerHour="494.5966533785688" departLane="free"/>
  <flow id="JF443058" begin="5240" fromJunction="J0" toJunction="J7" end="5300" vehsPerHour="197.50227998881172" departLane="free"/>
  <flow id="JF443059" begin="5240" fromJunction="J3" toJunction="J0" end="5300" vehsPerHour="120.75118726452064" departLane="free"/>
  <flow id="JF443060" begin="5240" fromJunction="J3" toJunction="J4" end="5300" vehsPerHour="399.7806646413868" departLane="free"/>
  <flow id="JF443061" begin="5240" fromJunction="J3" toJunction="J5" end="5300" vehsPerHour="353.49081237989975" departLane="free"/>
  <flow id="JF443062" begin="5240" fromJunction="J3" toJunction="J6" end="5300" vehsPerHour="115.76251316129839" departLane="free"/>
  <flow id="JF443063" begin="5240" fromJunction="J4" toJunction="J0" end="5300" vehsPerHour="147.82213663706264" departLane="free"/>
  <flow id="JF443064" begin="5240" fromJunction="J4" toJunction="J6" end="5300" vehsPerHour="226.48835072042422" departLane="free"/>
  <flow id="JF443065" begin="5240" fromJunction="J4" toJunction="J7" end="5300" vehsPerHour="98.06645254557318" departLane="free"/>
  <flow id="JF443066" begin="5240" fromJunction="J5" toJunction="J0" end="5300" vehsPerHour="41.19921825101253" departLane="free"/>
  <flow id="JF443067" begin="5240" fromJunction="J5" toJunction="J3" end="5300" vehsPerHour="162.59882784053104" departLane="free"/>
  <flow id="JF443068" begin="5240" fromJunction="J5" toJunction="J6" end="5300" vehsPerHour="30.094986963675222" departLane="free"/>
  <flow id="JF443069" begin="5240" fromJunction="J5" toJunction="J7" end="5300" vehsPerHour="225.86504320350974" departLane="free"/>
  <flow id="JF443070" begin="5240" fromJunction="J6" toJunction="J0" end="5300" vehsPerHour="81.75274393917933" departLane="free"/>
  <flow id="JF443071" begin="5240" fromJunction="J6" toJunction="J3" end="5300" vehsPerHour="197.6146148695363" departLane="free"/>
  <flow id="JF443072" begin="5240" fromJunction="J6" toJunction="J4" end="5300" vehsPerHour="102.49054719405741" departLane="free"/>
  <flow id="JF443073" begin="5240" fromJunction="J6" toJunction="J5" end="5300" vehsPerHour="231.58894065122013" departLane="free"/>
  <flow id="JF443074" begin="5240" fromJunction="J6" toJunction="J7" end="5300" vehsPerHour="250.96488314006461" departLane="free"/>
  <flow id="JF443075" begin="5240" fromJunction="J7" toJunction="J0" end="5300" vehsPerHour="206.3840716809368" departLane="free"/>
  <flow id="JF443076" begin="5240" fromJunction="J7" toJunction="J3" end="5300" vehsPerHour="58.12147394586026" departLane="free"/>
  <flow id="JF443077" begin="5240" fromJunction="J7" toJunction="J5" end="5300" vehsPerHour="137.41464513093754" departLane="free"/>
  <flow id="JF443078" begin="5240" fromJunction="J7" toJunction="J6" end="5300" vehsPerHour="181.5102320053977" departLane="free"/>
  <flow id="JF443079" begin="5300" fromJunction="J0" toJunction="J3" end="5360" vehsPerHour="537.0454667740524" departLane="free"/>
  <flow id="JF443080" begin="5300" fromJunction="J0" toJunction="J4" end="5360" vehsPerHour="388.7114981861691" departLane="free"/>
  <flow id="JF443081" begin="5300" fromJunction="J0" toJunction="J6" end="5360" vehsPerHour="296.20922900553603" departLane="free"/>
  <flow id="JF443082" begin="5300" fromJunction="J3" toJunction="J0" end="5360" vehsPerHour="369.2534118033089" departLane="free"/>
  <flow id="JF443083" begin="5300" fromJunction="J3" toJunction="J4" end="5360" vehsPerHour="393.60394207140985" departLane="free"/>
  <flow id="JF443084" begin="5300" fromJunction="J3" toJunction="J6" end="5360" vehsPerHour="324.62097539263164" departLane="free"/>
  <flow id="JF443085" begin="5300" fromJunction="J3" toJunction="J7" end="5360" vehsPerHour="286.2931456900712" departLane="free"/>
  <flow id="JF443086" begin="5300" fromJunction="J4" toJunction="J0" end="5360" vehsPerHour="182.38961102019087" departLane="free"/>
  <flow id="JF443087" begin="5300" fromJunction="J4" toJunction="J5" end="5360" vehsPerHour="144.96142216736737" departLane="free"/>
  <flow id="JF443088" begin="5300" fromJunction="J4" toJunction="J7" end="5360" vehsPerHour="269.5598764496838" departLane="free"/>
  <flow id="JF443089" begin="5300" fromJunction="J5" toJunction="J0" end="5360" vehsPerHour="6.799989039903687" departLane="free"/>
  <flow id="JF443090" begin="5300" fromJunction="J5" toJunction="J6" end="5360" vehsPerHour="30.208371488224028" departLane="free"/>
  <flow id="JF443091" begin="5300" fromJunction="J6" toJunction="J3" end="5360" vehsPerHour="50.33030264646528" departLane="free"/>
  <flow id="JF443092" begin="5300" fromJunction="J6" toJunction="J4" end="5360" vehsPerHour="264.3455555022355" departLane="free"/>
  <flow id="JF443093" begin="5300" fromJunction="J6" toJunction="J5" end="5360" vehsPerHour="208.2048495487998" departLane="free"/>
  <flow id="JF443094" begin="5300" fromJunction="J6" toJunction="J7" end="5360" vehsPerHour="55.368647555994855" departLane="free"/>
  <flow id="JF443095" begin="5300" fromJunction="J7" toJunction="J0" end="5360" vehsPerHour="4.838835129933435" departLane="free"/>
  <flow id="JF443096" begin="5360" fromJunction="J0" toJunction="J3" end="5420" vehsPerHour="357.23865941584035" departLane="free"/>
  <flow id="JF443097" begin="5360" fromJunction="J0" toJunction="J5" end="5420" vehsPerHour="280.2289511274381" departLane="free"/>
  <flow id="JF443098" begin="5360" fromJunction="J0" toJunction="J6" end="5420" vehsPerHour="71.92564393978691" departLane="free"/>
  <flow id="JF443099" begin="5360" fromJunction="J3" toJunction="J4" end="5420" vehsPerHour="98.1001308619447" departLane="free"/>
  <flow id="JF443100" begin="5360" fromJunction="J3" toJunction="J5" end="5420" vehsPerHour="427.142293952705" departLane="free"/>
  <flow id="JF443101" begin="5360" fromJunction="J3" toJunction="J6" end="5420" vehsPerHour="341.6375773344245" departLane="free"/>
  <flow id="JF443102" begin="5360" fromJunction="J4" toJunction="J6" end="5420" vehsPerHour="54.84355630987161" departLane="free"/>
  <flow id="JF443103" begin="5360" fromJunction="J5" toJunction="J0" end="5420" vehsPerHour="106.84950100197344" departLane="free"/>
  <flow id="JF443104" begin="5360" fromJunction="J5" toJunction="J3" end="5420" vehsPerHour="145.69302498000624" departLane="free"/>
  <flow id="JF443105" begin="5360" fromJunction="J5" toJunction="J4" end="5420" vehsPerHour="202.52740443836106" departLane="free"/>
  <flow id="JF443106" begin="5360" fromJunction="J5" toJunction="J6" end="5420" vehsPerHour="128.21113889768245" departLane="free"/>
  <flow id="JF443107" begin="5360" fromJunction="J5" toJunction="J7" end="5420" vehsPerHour="189.5611080969394" departLane="free"/>
  <flow id="JF443108" begin="5360" fromJunction="J6" toJunction="J0" end="5420" vehsPerHour="86.76346709091547" departLane="free"/>
  <flow id="JF443109" begin="5360" fromJunction="J6" toJunction="J3" end="5420" vehsPerHour="126.48101720916439" departLane="free"/>
  <flow id="JF443110" begin="5360" fromJunction="J6" toJunction="J4" end="5420" vehsPerHour="44.91274376097747" departLane="free"/>
  <flow id="JF443111" begin="5360" fromJunction="J6" toJunction="J5" end="5420" vehsPerHour="136.30916453615117" departLane="free"/>
  <flow id="JF443112" begin="5360" fromJunction="J6" toJunction="J7" end="5420" vehsPerHour="182.693023450634" departLane="free"/>
  <flow id="JF443113" begin="5360" fromJunction="J7" toJunction="J3" end="5420" vehsPerHour="264.2516639589187" departLane="free"/>
  <flow id="JF443114" begin="5360" fromJunction="J7" toJunction="J5" end="5420" vehsPerHour="208.5322967822407" departLane="free"/>
  <flow id="JF443115" begin="5420" fromJunction="J0" toJunction="J3" end="5480" vehsPerHour="299.26229040850404" departLane="free"/>
  <flow id="JF443116" begin="5420" fromJunction="J0" toJunction="J5" end="5480" vehsPerHour="24.93435466085528" departLane="free"/>
  <flow id="JF443117" begin="5420" fromJunction="J0" toJunction="J6" end="5480" vehsPerHour="274.7887343571611" departLane="free"/>
  <flow id="JF443118" begin="5420" fromJunction="J3" toJunction="J5" end="5480" vehsPerHour="224.95066741967787" departLane="free"/>
  <flow id="JF443119" begin="5420" fromJunction="J3" toJunction="J6" end="5480" vehsPerHour="231.6594381340214" departLane="free"/>
  <flow id="JF443120" begin="5420" fromJunction="J4" toJunction="J3" end="5480" vehsPerHour="135.15805048230905" departLane="free"/>
  <flow id="JF443121" begin="5420" fromJunction="J4" toJunction="J5" end="5480" vehsPerHour="80.49243354450518" departLane="free"/>
  <flow id="JF443122" begin="5420" fromJunction="J4" toJunction="J6" end="5480" vehsPerHour="107.90785004061132" departLane="free"/>
  <flow id="JF443123" begin="5420" fromJunction="J5" toJunction="J0" end="5480" vehsPerHour="16.826317905994475" departLane="free"/>
  <flow id="JF443124" begin="5420" fromJunction="J5" toJunction="J3" end="5480" vehsPerHour="12.88859654829396" departLane="free"/>
  <flow id="JF443125" begin="5420" fromJunction="J5" toJunction="J4" end="5480" vehsPerHour="241.4443304475629" departLane="free"/>
  <flow id="JF443126" begin="5420" fromJunction="J5" toJunction="J6" end="5480" vehsPerHour="156.4211077427988" departLane="free"/>
  <flow id="JF443127" begin="5420" fromJunction="J5" toJunction="J7" end="5480" vehsPerHour="18.607509281188502" departLane="free"/>
  <flow id="JF443128" begin="5420" fromJunction="J6" toJunction="J0" end="5480" vehsPerHour="145.80563643629586" departLane="free"/>
  <flow id="JF443129" begin="5420" fromJunction="J6" toJunction="J3" end="5480" vehsPerHour="166.7907512533657" departLane="free"/>
  <flow id="JF443130" begin="5420" fromJunction="J6" toJunction="J4" end="5480" vehsPerHour="14.048221191145542" departLane="free"/>
  <flow id="JF443131" begin="5420" fromJunction="J6" toJunction="J5" end="5480" vehsPerHour="222.3798931598186" departLane="free"/>
  <flow id="JF443132" begin="5420" fromJunction="J6" toJunction="J7" end="5480" vehsPerHour="54.941928632096044" departLane="free"/>
  <flow id="JF443133" begin="5420" fromJunction="J7" toJunction="J0" end="5480" vehsPerHour="29.355074092232716" departLane="free"/>
  <flow id="JF443134" begin="5420" fromJunction="J7" toJunction="J6" end="5480" vehsPerHour="19.772088572584238" departLane="free"/>
  <flow id="JF443135" begin="5480" fromJunction="J0" toJunction="J3" end="5540" vehsPerHour="277.7909466991585" departLane="free"/>
  <flow id="JF443136" begin="5480" fromJunction="J0" toJunction="J4" end="5540" vehsPerHour="500.60257594554554" departLane="free"/>
  <flow id="JF443137" begin="5480" fromJunction="J0" toJunction="J5" end="5540" vehsPerHour="500.82999175130874" departLane="free"/>
  <flow id="JF443138" begin="5480" fromJunction="J3" toJunction="J4" end="5540" vehsPerHour="135.47167321141376" departLane="free"/>
  <flow id="JF443139" begin="5480" fromJunction="J3" toJunction="J6" end="5540" vehsPerHour="542.011860511257" departLane="free"/>
  <flow id="JF443140" begin="5480" fromJunction="J4" toJunction="J0" end="5540" vehsPerHour="163.9101514689196" departLane="free"/>
  <flow id="JF443141" begin="5480" fromJunction="J4" toJunction="J3" end="5540" vehsPerHour="45.88502962136856" departLane="free"/>
  <flow id="JF443142" begin="5480" fromJunction="J4" toJunction="J5" end="5540" vehsPerHour="158.06931260824388" departLane="free"/>
  <flow id="JF443143" begin="5480" fromJunction="J5" toJunction="J3" end="5540" vehsPerHour="270.92050330558794" departLane="free"/>
  <flow id="JF443144" begin="5480" fromJunction="J5" toJunction="J4" end="5540" vehsPerHour="19.802642669441504" departLane="free"/>
  <flow id="JF443145" begin="5480" fromJunction="J5" toJunction="J6" end="5540" vehsPerHour="23.32483069354533" departLane="free"/>
  <flow id="JF443146" begin="5480" fromJunction="J6" toJunction="J0" end="5540" vehsPerHour="87.05912902428912" departLane="free"/>
  <flow id="JF443147" begin="5480" fromJunction="J6" toJunction="J4" end="5540" vehsPerHour="190.2853287181669" departLane="free"/>
  <flow id="JF443148" begin="5480" fromJunction="J6" toJunction="J5" end="5540" vehsPerHour="149.61441664537003" departLane="free"/>
  <flow id="JF443149" begin="5480" fromJunction="J6" toJunction="J7" end="5540" vehsPerHour="154.03744588783894" departLane="free"/>
  <flow id="JF443150" begin="5480" fromJunction="J7" toJunction="J0" end="5540" vehsPerHour="215.46244545640852" departLane="free"/>
  <flow id="JF443151" begin="5480" fromJunction="J7" toJunction="J3" end="5540" vehsPerHour="238.43185056179485" departLane="free"/>
  <flow id="JF443152" begin="5480" fromJunction="J7" toJunction="J4" end="5540" vehsPerHour="251.65552073116476" departLane="free"/>
  <flow id="JF443153" begin="5540" fromJunction="J0" toJunction="J3" end="5600" vehsPerHour="490.9879077289061" departLane="free"/>
  <flow id="JF443154" begin="5540" fromJunction="J0" toJunction="J4" end="5600" vehsPerHour="191.45112936155428" departLane="free"/>
  <flow id="JF443155" begin="5540" fromJunction="J0" toJunction="J5" end="5600" vehsPerHour="454.47589130529127" departLane="free"/>
  <flow id="JF443156" begin="5540" fromJunction="J0" toJunction="J6" end="5600" vehsPerHour="129.64168797101263" departLane="free"/>
  <flow id="JF443157" begin="5540" fromJunction="J0" toJunction="J7" end="5600" vehsPerHour="536.5083318164504" departLane="free"/>
  <flow id="JF443158" begin="5540" fromJunction="J3" toJunction="J4" end="5600" vehsPerHour="316.56253564779684" departLane="free"/>
  <flow id="JF443159" begin="5540" fromJunction="J3" toJunction="J5" end="5600" vehsPerHour="477.28090190428816" departLane="free"/>
  <flow id="JF443160" begin="5540" fromJunction="J3" toJunction="J7" end="5600" vehsPerHour="367.1223918510186" departLane="free"/>
  <flow id="JF443161" begin="5540" fromJunction="J4" toJunction="J0" end="5600" vehsPerHour="61.796269863697745" departLane="free"/>
  <flow id="JF443162" begin="5540" fromJunction="J4" toJunction="J3" end="5600" vehsPerHour="74.1621104071686" departLane="free"/>
  <flow id="JF443163" begin="5540" fromJunction="J4" toJunction="J7" end="5600" vehsPerHour="23.57456481947482" departLane="free"/>
  <flow id="JF443164" begin="5540" fromJunction="J5" toJunction="J0" end="5600" vehsPerHour="178.25843756277857" departLane="free"/>