<?xml version="1.0" encoding="UTF-8"?>
<routes xmlns:xsi="http://www.w3.org/2001/XMLSchema-instance" xsi:noNamespaceSchemaLocation="http://sumo.dlr.de/xsd/routes_file.xsd">
  <flow id="JF435882" begin="0" fromJunction="J3" toJunction="J0" end="5000" vehsPerHour="416.5981810261185" departLane="free"/>
  <flow id="JF435883" begin="0" fromJunction="J0" toJunction="J3" end="5000" vehsPerHour="329.96135319497324" departLane="free"/>
  <flow id="JF435884" begin="0" fromJunction="J3" toJunction="J6" end="5000" vehsPerHour="312.9724821564063" departLane="free"/>
  <flow id="JF435885" begin="0" fromJunction="J3" toJunction="J5" end="5000" vehsPerHour="412.9110270502819" departLane="free"/>
  <flow id="JF435886" begin="0" fromJunction="J3" toJunction="J4" end="5000" vehsPerHour="386.1521240190532" departLane="free"/>
  <flow id="JF435887" begin="0" fromJunction="J3" toJunction="J7" end="5000" vehsPerHour="174.76237025070947" departLane="free"/>
  <flow id="JF435888" begin="0" fromJunction="J0" toJunction="J6" end="5000" vehsPerHour="240.75126031175407" departLane="free"/>
  <flow id="JF435889" begin="0" fromJunction="J0" toJunction="J5" end="5000" vehsPerHour="434.11459041369943" departLane="free"/>
  <flow id="JF435890" begin="0" fromJunction="J0" toJunction="J4" end="5000" vehsPerHour="417.2683039610298" departLane="free"/>
  <flow id="JF435891" begin="0" fromJunction="J0" toJunction="J7" end="5000" vehsPerHour="83.76347875733886" departLane="free"/>
  <flow id="JF435892" begin="0" fromJunction="J6" toJunction="J5" end="5000" vehsPerHour="0.4401523393941798" departLane="free"/>
  <flow id="JF435893" begin="0" fromJunction="J6" toJunction="J4" end="5000" vehsPerHour="239.35487985914938" departLane="free"/>
  <flow id="JF435894" begin="0" fromJunction="J6" toJunction="J7" end="5000" vehsPerHour="180.51268543265542" departLane="free"/>
  <flow id="JF435895" begin="0" fromJunction="J5" toJunction="J6" end="5000" vehsPerHour="171.50705714107374" departLane="free"/>
  <flow id="JF435896" begin="0" fromJunction="J5" toJunction="J4" end="5000" vehsPerHour="267.49037750072057" departLane="free"/>
  <flow id="JF435897" begin="0" fromJunction="J5" toJunction="J7" end="5000" vehsPerHour="164.965772940516" departLane="free"/>
  <flow id="JF435898" begin="0" fromJunction="J4" toJunction="J6" end="5000" vehsPerHour="20.909766486478464" departLane="free"/>
  <flow id="JF435899" begin="0" fromJunction="J4" toJunction="J5" end="5000" vehsPerHour="201.260004520959" departLane="free"/>
  <flow id="JF435900" begin="0" fromJunction="J4" toJunction="J7" end="5000" vehsPerHour="17.24156786896765" departLane="free"/>
  <flow id="JF435901" begin="0" fromJunction="J7" toJunction="J6" end="5000" vehsPerHour="173.64841797737722" departLane="free"/>
  <flow id="JF435902" begin="0" fromJunction="J7" toJunction="J5" end="5000" vehsPerHour="88.24049217680755" departLane="free"/>
  <flow id="JF435903" begin="0" fromJunction="J7" toJunction="J4" end="5000" vehsPerHour="91.07110632184336" departLane="free"/>
  <flow id="JF435904" begin="0" fromJunction="J6" toJunction="J3" end="5000" vehsPerHour="177.86403818906072" departLane="free"/>
  <flow id="JF435905" begin="0" fromJunction="J6" toJunction="J0" end="5000" vehsPerHour="219.32747370277434" departLane="free"/>
  <flow id="JF435906" begin="0" fromJunction="J5" toJunction="J3" end="5000" vehsPerHour="198.86587916870587" departLane="free"/>
  <flow id="JF435907" begin="0" fromJunction="J5" toJunction="J0" end="5000" vehsPerHour="96.56929115505307" departLane="free"/>
  <flow id="JF435908" begin="0" fromJunction="J4" toJunction="J3" end="5000" vehsPerHour="149.6856569358585" departLane="free"/>
  <flow id="JF435909" begin="0" fromJunction="J4" toJunction="J0" end="5000" vehsPerHour="21.288544584336158" departLane="free"/>
  <flow id="JF435910" begin="0" fromJunction="J7" toJunction="J3" end="5000" vehsPerHour="64.71327660804397" departLane="free"/>
  <flow id="JF435911" begin="0" fromJunction="J7" toJunction="J0" end="5000" vehsPerHour="162.22478471443887" departLane="free"/>
  <flow id="JF435912" begin="5000" fromJunction="J0" toJunction="J3" end="5060" vehsPerHour="45.78864606728285" departLane="free"/>
  <flow id="JF435913" begin="5000" fromJunction="J0" toJunction="J4" end="5060" vehsPerHour="31.425846944890445" departLane="free"/>
  <flow id="JF435914" begin="5000" fromJunction="J0" toJunction="J7" end="5060" vehsPerHour="361.97365986741863" departLane="free"/>
  <flow id="JF435915" begin="5000" fromJunction="J3" toJunction="J0" end="5060" vehsPerHour="170.85357776453415" departLane="free"/>
  <flow id="JF435916" begin="5000" fromJunction="J3" toJunction="J4" end="5060" vehsPerHour="24.88915719989929" departLane="free"/>
  <flow id="JF435917" begin="5000" fromJunction="J3" toJunction="J5" end="5060" vehsPerHour="423.6188113574847" departLane="free"/>
  <flow id="JF435918" begin="5000" fromJunction="J3" toJunction="J6" end="5060" vehsPerHour="459.98974522673944" departLane="free"/>
  <flow id="JF435919" begin="5000" fromJunction="J3" toJunction="J7" end="5060" vehsPerHour="74.44430809681403" departLane="free"/>
  <flow id="JF435920" begin="5000" fromJunction="J4" toJunction="J0" end="5060" vehsPerHour="169.79317760254074" departLane="free"/>
  <flow id="JF435921" begin="5000" fromJunction="J4" toJunction="J3" end="5060" vehsPerHour="55.98915932654351" departLane="free"/>
  <flow id="JF435922" begin="5000" fromJunction="J4" toJunction="J6" end="5060" vehsPerHour="202.24808175403248" departLane="free"/>
  <flow id="JF435923" begin="5000" fromJunction="J4" toJunction="J7" end="5060" vehsPerHour="192.29033646987557" departLane="free"/>
  <flow id="JF435924" begin="5000" fromJunction="J5" toJunction="J0" end="5060" vehsPerHour="243.91324442858053" departLane="free"/>
  <flow id="JF435925" begin="5000" fromJunction="J5" toJunction="J3" end="5060" vehsPerHour="272.1519550941728" departLane="free"/>
  <flow id="JF435926" begin="5000" fromJunction="J5" toJunction="J4" end="5060" vehsPerHour="152.82291218203025" departLane="free"/>
  <flow id="JF435927" begin="5000" fromJunction="J5" toJunction="J6" end="5060" vehsPerHour="137.66185801014853" departLane="free"/>
  <flow id="JF435928" begin="5000" fromJunction="J5" toJunction="J7" end="5060" vehsPerHour="151.90701731052044" departLane="free"/>
  <flow id="JF435929" begin="5000" fromJunction="J6" toJunction="J0" end="5060" vehsPerHour="80.96046371042515" departLane="free"/>
  <flow id="JF435930" begin="5000" fromJunction="J6" toJunction="J3" end="5060" vehsPerHour="104.08790563046523" departLane="free"/>
  <flow id="JF435931" begin="5000" fromJunction="J6" toJunction="J4" end="5060" vehsPerHour="64.66821022611163" departLane="free"/>
  <flow id="JF435932" begin="5000" fromJunction="J6" toJunction="J5" end="5060" vehsPerHour="162.3213514515823" departLane="free"/>
  <flow id="JF435933" begin="5000" fromJunction="J6" toJunction="J7" end="5060" vehsPerHour="171.03888556981022" departLane="free"/>
  <flow id="JF435934" begin="5000" fromJunction="J7" toJunction="J0" end="5060" vehsPerHour="210.9129909299274" departLane="free"/>
  <flow id="JF435935" begin="5000" fromJunction="J7" toJunction="J3" end="5060" vehsPerHour="149.4123182059168" departLane="free"/>
  <flow id="JF435936" begin="5000" fromJunction="J7" toJunction="J4" end="5060" vehsPerHour="49.344891735454674" departLane="free"/>
  <flow id="JF435937" begin="5000" fromJunction="J7" toJunction="J5" end="5060" vehsPerHour="246.39847780863064" departLane="free"/>
  <flow id="JF435938" begin="5060" fromJunction="J0" toJunction="J3" end="5120" vehsPerHour="453.03938755138427" departLane="free"/>
  <flow id="JF435939" begin="5060" fromJunction="J0" toJunction="J6" end="5120" vehsPerHour="19.662362970116853" departLane="free"/>
  <flow id="JF435940" begin="5060" fromJunction="J3" toJunction="J5" end="5120" vehsPerHour="54.133271997949706" departLane="free"/>
  <flow id="JF435941" begin="5060" fromJunction="J3" toJunction="J7" end="5120" vehsPerHour="280.44648290688684" departLane="free"/>
  <flow id="JF435942" begin="5060" fromJunction="J4" toJunction="J0" end="5120" vehsPerHour="35.73271505023532" departLane="free"/>
  <flow id="JF435943" begin="5060" fromJunction="J4" toJunction="J3" end="5120" vehsPerHour="91.6226575927384" departLane="free"/>
  <flow id="JF435944" begin="5060" fromJunction="J4" toJunction="J6" end="5120" vehsPerHour="11.09724768207434" departLane="free"/>
  <flow id="JF435945" begin="5060" fromJunction="J4" toJunction="J7" end="5120" vehsPerHour="180.08788550325428" departLane="free"/>
  <flow id="JF435946" begin="5060" fromJunction="J5" toJunction="J0" end="5120" vehsPerHour="45.34117844548665" departLane="free"/>
  <flow id="JF435947" begin="5060" fromJunction="J5" toJunction="J4" end="5120" vehsPerHour="27.418654541377894" departLane="free"/>
  <flow id="JF435948" begin="5060" fromJunction="J5" toJunction="J6" end="5120" vehsPerHour="197.00230684352587" departLane="free"/>
  <flow id="JF435949" begin="5060" fromJunction="J5" toJunction="J7" end="5120" vehsPerHour="117.76880617634167" departLane="free"/>
  <flow id="JF435950" begin="5060" fromJunction="J6" toJunction="J0" end="5120" vehsPerHour="254.78866464147671" departLane="free"/>
  <flow id="JF435951" begin="5060" fromJunction="J6" toJunction="J3" end="5120" vehsPerHour="31.712390622996878" departLane="free"/>
  <flow id="JF435952" begin="5060" fromJunction="J6" toJunction="J4" end="5120" vehsPerHour="71.77046989814727" departLane="free"/>
  <flow id="JF435953" begin="5060" fromJunction="J6" toJunction="J5" end="5120" vehsPerHour="76.99995641710524" departLane="free"/>
  <flow id="JF435954" begin="5060" fromJunction="J7" toJunction="J0" end="5120" vehsPerHour="251.16224252312628" departLane="free"/>
  <flow id="JF435955" begin="5060" fromJunction="J7" toJunction="J3" end="5120" vehsPerHour="120.80580997316248" departLane="free"/>
  <flow id="JF435956" begin="5060" fromJunction="J7" toJunction="J4" end="5120" vehsPerHour="11.911798517557097" departLane="free"/>
  <flow id="JF435957" begin="5060" fromJunction="J7" toJunction="J5" end="5120" vehsPerHour="256.1757388050634" departLane="free"/>
  <flow id="JF435958" begin="5060" fromJunction="J7" toJunction="J6" end="5120" vehsPerHour="162.41507199723029" departLane="free"/>
  <flow id="JF435959" begin="5120" fromJunction="J0" toJunction="J3" end="5180" vehsPerHour="521.3787846989977" departLane="free"/>
  <flow id="JF435960" begin="5120" fromJunction="J0" toJunction="J4" end="5180" vehsPerHour="13.329852967362532" departLane="free"/>
  <flow id="JF435961" begin="5120" fromJunction="J0" toJunction="J5" end="5180" vehsPerHour="24.43012418539875" departLane="free"/>
  <flow id="JF435962" begin="5120" fromJunction="J0" toJunction="J6" end="5180" vehsPerHour="445.3019010728317" departLane="free"/>
  <flow id="JF435963" begin="5120" fromJunction="J0" toJunction="J7" end="5180" vehsPerHour="329.11368908115145" departLane="free"/>
  <flow id="JF435964" begin="5120" fromJunction="J3" toJunction="J0" end="5180" vehsPerHour="189.76895066393786" departLane="free"/>
  <flow id="JF435965" begin="5120" fromJunction="J3" toJunction="J4" end="5180" vehsPerHour="412.76353858688236" departLane="free"/>
  <flow id="JF435966" begin="5120" fromJunction="J4" toJunction="J0" end="5180" vehsPerHour="171.4525991419378" departLane="free"/>
  <flow id="JF435967" begin="5120" fromJunction="J4" toJunction="J3" end="5180" vehsPerHour="226.39034845802374" departLane="free"/>
  <flow id="JF435968" begin="5120" fromJunction="J4" toJunction="J7" end="5180" vehsPerHour="40.528058633477805" departLane="free"/>
  <flow id="JF435969" begin="5120" fromJunction="J5" toJunction="J0" end="5180" vehsPerHour="127.79844382755873" departLane="free"/>
  <flow id="JF435970" begin="5120" fromJunction="J5" toJunction="J4" end="5180" vehsPerHour="223.17856058877763" departLane="free"/>
  <flow id="JF435971" begin="5120" fromJunction="J5" toJunction="J6" end="5180" vehsPerHour="259.2100296112595" departLane="free"/>
  <flow id="JF435972" begin="5120" fromJunction="J5" toJunction="J7" end="5180" vehsPerHour="33.47060516913715" departLane="free"/>
  <flow id="JF435973" begin="5120" fromJunction="J6" toJunction="J3" end="5180" vehsPerHour="66.90620017338432" departLane="free"/>
  <flow id="JF435974" begin="5120" fromJunction="J6" toJunction="J4" end="5180" vehsPerHour="166.29613149656402" departLane="free"/>
  <flow id="JF435975" begin="5120" fromJunction="J7" toJunction="J3" end="5180" vehsPerHour="49.823874760780846" departLane="free"/>
  <flow id="JF435976" begin="5120" fromJunction="J7" toJunction="J4" end="5180" vehsPerHour="136.278078975766" departLane="free"/>
  <flow id="JF435977" begin="5120" fromJunction="J7" toJunction="J5" end="5180" vehsPerHour="177.97219209179102" departLane="free"/>
  <flow id="JF435978" begin="5120" fromJunction="J7" toJunction="J6" end="5180" vehsPerHour="218.6144399326201" departLane="free"/>
  <flow id="JF435979" begin="5180" fromJunction="J0" toJunction="J4" end="5240" vehsPerHour="17.616597421407455" departLane="free"/>
  <flow id="JF435980" begin="5180" fromJunction="J0" toJunction="J7" end="5240" vehsPerHour="103.44579260635166" departLane="free"/>
  <flow id="JF435981" begin="5180" fromJunction="J3" toJunction="J0" end="5240" vehsPerHour="66.36559646352367" departLane="free"/>
  <flow id="JF435982" begin="5180" fromJunction="J3" toJunction="J4" end="5240" vehsPerHour="28.781267722648895" departLane="free"/>
  <flow id="JF435983" begin="5180" fromJunction="J3" toJunction="J5" end="5240" vehsPerHour="67.92377100744852" departLane="free"/>
  <flow id="JF435984" begin="5180" fromJunction="J3" toJunction="J6" end="5240" vehsPerHour="364.4971162847762" departLane="free"/>
  <flow id="JF435985" begin="5180" fromJunction="J3" toJunction="J7" end="5240" vehsPerHour="513.188854521836" departLane="free"/>
  <flow id="JF435986" begin="5180" fromJunction="J4" toJunction="J0" end="5240" vehsPerHour="131.467571891966" departLane="free"/>
  <flow id="JF435987" begin="5180" fromJunction="J4" toJunction="J3" end="5240" vehsPerHour="188.88086023882803" departLane="free"/>
  <flow id="JF435988" begin="5180" fromJunction="J4" toJunction="J5" end="5240" vehsPerHour="212.19096112921127" departLane="free"/>
  <flow id="JF435989" begin="5180" fromJunction="J4" toJunction="J6" end="5240" vehsPerHour="210.35019158704193" departLane="free"/>
  <flow id="JF435990" begin="5180" fromJunction="J5" toJunction="J0" end="5240" vehsPerHour="64.57896861795345" departLane="free"/>
  <flow id="JF435991" begin="5180" fromJunction="J5" toJunction="J3" end="5240" vehsPerHour="76.81399181275866" departLane="free"/>
  <flow id="JF435992" begin="5180" fromJunction="J5" toJunction="J6" end="5240" vehsPerHour="42.13856865216088" departLane="free"/>
  <flow id="JF435993" begin="5180" fromJunction="J5" toJunction="J7" end="5240" vehsPerHour="177.62100008560986" departLane="free"/>
  <flow id="JF435994" begin="5180" fromJunction="J6" toJunction="J0" end="5240" vehsPerHour="262.98227036152974" departLane="free"/>
  <flow id="JF435995" begin="5180" fromJunction="J6" toJunction="J3" end="5240" vehsPerHour="146.41070191425186" departLane="free"/>
  <flow id="JF435996" begin="5180" fromJunction="J6" toJunction="J4" end="5240" vehsPerHour="264.04569962833386" departLane="free"/>
  <flow id="JF435997" begin="5180" fromJunction="J6" toJunction="J5" end="5240" vehsPerHour="255.66954122224993" departLane="free"/>
  <flow id="JF435998" begin="5180" fromJunction="J7" toJunction="J0" end="5240" vehsPerHour="270.8128704473187" departLane="free"/>
  <flow id="JF435999" begin="5180" fromJunction="J7" toJunction="J3" end="5240" vehsPerHour="56.90772385229485" departLane="free"/>
  <flow id="JF436000" begin="5180" fromJunction="J7" toJunction="J4" end="5240" vehsPerHour="238.37471927849296" departLane="free"/>
  <flow id="JF436001" begin="5180" fromJunction="J7" toJunction="J6" end="5240" vehsPerHour="4.063724260025638" departLane="free"/>
  <flow id="JF436002" begin="5240" fromJunction="J0" toJunction="J3" end="5300" vehsPerHour="347.6715695044697" departLane="free"/>
  <flow id="JF436003" begin="5240" fromJunction="J0" toJunction="J4" end="5300" vehsPerHour="195.75293373120047" departLane="free"/>
  <flow id="JF436004" begin="5240" fromJunction="J0" toJunction="J6" end="5300" vehsPerHour="66.7337919039693" departLane="free"/>
  <flow id="JF436005" begin="5240" fromJunction="J3" toJunction="J0" end="5300" vehsPerHour="380.68356784822" departLane="free"/>
  <flow id="JF436006" begin="5240" fromJunction="J3" toJunction="J4" end="5300" vehsPerHour="293.7298433969066" departLane="free"/>
  <flow id="JF436007" begin="5240" fromJunction="J3" toJunction="J6" end="5300" vehsPerHour="165.72727377054343" departLane="free"/>
  <flow id="JF436008" begin="5240" fromJunction="J3" toJunction="J7" end="5300" vehsPerHour="412.4650905283172" departLane="free"/>
  <flow id="JF436009" begin="5240" fromJunction="J4" toJunction="J0" end="5300" vehsPerHour="188.19673886880796" departLane="free"/>
  <flow id="JF436010" begin="5240" fromJunction="J4" toJunction="J3" end="5300" vehsPerHour="9.50513542044429" departLane="free"/>
  <flow id="JF436011" begin="5240" fromJunction="J4" toJunction="J5" end="5300" vehsPerHour="135.90755812479554" departLane="free"/>
  <flow id="JF436012" begin="5240" fromJunction="J4" toJunction="J7" end="5300" vehsPerHour="21.202106119301135" departLane="free"/>
  <flow id="JF436013" begin="5240" fromJunction="J5" toJunction="J0" end="5300" vehsPerHour="119.59707913133913" departLane="free"/>
  <flow id="JF436014" begin="5240" fromJunction="J5" toJunction="J3" end="5300" vehsPerHour="67.06015596988544" departLane="free"/>
  <flow id="JF436015" begin="5240" fromJunction="J6" toJunction="J0" end="5300" vehsPerHour="181.93882028742482" departLane="free"/>
  <flow id="JF436016" begin="5240" fromJunction="J6" toJunction="J3" end="5300" vehsPerHour="67.83304592744963" departLane="free"/>
  <flow id="JF436017" begin="5240" fromJunction="J6" toJunction="J7" end="5300" vehsPerHour="197.62291286621945" departLane="free"/>
  <flow id="JF436018" begin="5240" fromJunction="J7" toJunction="J0" end="5300" vehsPerHour="148.06347605697437" departLane="free"/>
  <flow id="JF436019" begin="5240" fromJunction="J7" toJunction="J4" end="5300" vehsPerHour="135.38867469648443" departLane="free"/>
  <flow id="JF436020" begin="5300" fromJunction="J0" toJunction="J3" end="5360" vehsPerHour="145.8182658724512" departLane="free"/>
  <flow id="JF436021" begin="5300" fromJunction="J0" toJunction="J5" end="5360" vehsPerHour="115.92705577103474" departLane="free"/>
  <flow id="JF436022" begin="5300" fromJunction="J0" toJunction="J7" end="5360" vehsPerHour="187.52673611731504" departLane="free"/>
  <flow id="JF436023" begin="5300" fromJunction="J3" toJunction="J0" end="5360" vehsPerHour="268.7778263505851" departLane="free"/>
  <flow id="JF436024" begin="5300" fromJunction="J3" toJunction="J5" end="5360" vehsPerHour="235.93408482335062" departLane="free"/>
  <flow id="JF436025" begin="5300" fromJunction="J3" toJunction="J6" end="5360" vehsPerHour="267.6760281122625" departLane="free"/>
  <flow id="JF436026" begin="5300" fromJunction="J3" toJunction="J7" end="5360" vehsPerHour="29.248042329403514" departLane="free"/>
  <flow id="JF436027" begin="5300" fromJunction="J4" toJunction="J0" end="5360" vehsPerHour="253.76740171512634" departLane="free"/>
  <flow id="JF436028" begin="5300" fromJunction="J4" toJunction="J3" end="5360" vehsPerHour="72.36964231784131" departLane="free"/>
  <flow id="JF436029" begin="5300" fromJunction="J5" toJunction="J3" end="5360" vehsPerHour="110.7039894905751" departLane="free"/>
  <flow id="JF436030" begin="5300" fromJunction="J5" toJunction="J4" end="5360" vehsPerHour="94.9749326046375" departLane="free"/>
  <flow id="JF436031" begin="5300" fromJunction="J5" toJunction="J7" end="5360" vehsPerHour="242.54788397212937" departLane="free"/>
  <flow id="JF436032" begin="5300" fromJunction="J6" toJunction="J0" end="5360" vehsPerHour="155.6392842244135" departLane="free"/>
  <flow id="JF436033" begin="5300" fromJunction="J6" toJunction="J4" end="5360" vehsPerHour="2.2843456612912503" departLane="free"/>
  <flow id="JF436034" begin="5300" fromJunction="J6" toJunction="J5" end="5360" vehsPerHour="140.89743705094028" departLane="free"/>
  <flow id="JF436035" begin="5300" fromJunction="J6" toJunction="J7" end="5360" vehsPerHour="250.7680652193984" departLane="free"/>
  <flow id="JF436036" begin="5300" fromJunction="J7" toJunction="J4" end="5360" vehsPerHour="187.23934414322704" departLane="free"/>
  <flow id="JF436037" begin="5300" fromJunction="J7" toJunction="J5" end="5360" vehsPerHour="183.3296502638739" departLane="free"/>
  <flow id="JF436038" begin="5360" fromJunction="J0" toJunction="J4" end="5420" vehsPerHour="156.49323394620444" departLane="free"/>
  <flow id="JF436039" begin="5360" fromJunction="J0" toJunction="J5" end="5420" vehsPerHour="193.97565250630657" departLane="free"/>
  <flow id="JF436040" begin="5360" fromJunction="J0" toJunction="J7" end="5420" vehsPerHour="254.91518460775762" departLane="free"/>
  <flow id="JF436041" begin="5360" fromJunction="J3" toJunction="J0" end="5420" vehsPerHour="467.92418584615376" departLane="free"/>
  <flow id="JF436042" begin="5360" fromJunction="J3" toJunction="J4" end="5420" vehsPerHour="392.4360930137325" departLane="free"/>
  <flow id="JF436043" begin="5360" fromJunction="J3" toJunction="J5" end="5420" vehsPerHour="296.6066131841948" departLane="free"/>
  <flow id="JF436044" begin="5360" fromJunction="J3" toJunction="J6" end="5420" vehsPerHour="166.49493610861495" departLane="free"/>
  <flow id="JF436045" begin="5360" fromJunction="J3" toJunction="J7" end="5420" vehsPerHour="93.48635163924486" departLane="free"/>
  <flow id="JF436046" begin="5360" fromJunction="J4" toJunction="J0" end="5420" vehsPerHour="59.79936995445017" departLane="free"/>
  <flow id="JF436047" begin="5360" fromJunction="J4" toJunction="J3" end="5420" vehsPerHour="96.72761190601506" departLane="free"/>
  <flow id="JF436048" begin="5360" fromJunction="J4" toJunction="J5" end="5420" vehsPerHour="26.739896527277978" departLane="free"/>
  <flow id="JF436049" begin="5360" fromJunction="J5" toJunction="J0" end="5420" vehsPerHour="63.1930732630789" departLane="free"/>
  <flow id="JF436050" begin="5360" fromJunction="J5" toJunction="J3" end="5420" vehsPerHour="111.4262969032776" departLane="free"/>
  <flow id="JF436051" begin="5360" fromJunction="J5" toJunction="J4" end="5420" vehsPerHour="152.0914714976077" departLane="free"/>
  <flow id="JF436052" begin="5360" fromJunction="J5" toJunction="J6" end="5420" vehsPerHour="132.55064710197775" departLane="free"/>
  <flow id="JF436053" begin="5360" fromJunction="J5" toJunction="J7" end="5420" vehsPerHour="39.72030658502951" departLane="free"/>
  <flow id="JF436054" begin="5360" fromJunction="J6" toJunction="J0" end="5420" vehsPerHour="8.294111327799236" departLane="free"/>
  <flow id="JF436055" begin="5360" fromJunction="J6" toJunction="J3" end="5420" vehsPerHour="153.44066083252955" departLane="free"/>
  <flow id="JF436056" begin="5360" fromJunction="J6" toJunction="J4" end="5420" vehsPerHour="89.18859484196186" departLane="free"/>
  <flow id="JF436057" begin="5360" fromJunction="J6" toJunction="J7" end="5420" vehsPerHour="104.15866353043273" departLane="free"/>
  <flow id="JF436058" begin="5360" fromJunction="J7" toJunction="J0" end="5420" vehsPerHour="85.7006416899758" departLane="free"/>
  <flow id="JF436059" begin="5360" fromJunction="J7" toJunction="J3" end="5420" vehsPerHour="11.181617405958143" departLane="free"/>
  <flow id="JF436060" begin="5360" fromJunction="J7" toJunction="J5" end="5420" vehsPerHour="246.04892249427596" departLane="free"/>
  <flow id="JF436061" begin="5360" fromJunction="J7" toJunction="J6" end="5420" vehsPerHour="247.5689810887091" departLane="free"/>
  <flow id="JF436062" begin="5420" fromJunction="J0" toJunction="J5" end="5480" vehsPerHour="173.96648512999514" departLane="free"/>
  <flow id="JF436063" begin="5420" fromJunction="J0" toJunction="J6" end="5480" vehsPerHour="164.69391626017747" departLane="free"/>
  <flow id="JF436064" begin="5420" fromJunction="J0" toJunction="J7" end="5480" vehsPerHour="415.60946430634095" departLane="free"/>
  <flow id="JF436065" begin="5420" fromJunction="J3" toJunction="J5" end="5480" vehsPerHour="140.71428838046066" departLane="free"/>
  <flow id="JF436066" begin="5420" fromJunction="J3" toJunction="J6" end="5480" vehsPerHour="484.3624666662958" departLane="free"/>
  <flow id="JF436067" begin="5420" fromJunction="J3" toJunction="J7" end="5480" vehsPerHour="4.565692942479736" departLane="free"/>
  <flow id="JF436068" begin="5420" fromJunction="J4" toJunction="J3" end="5480" vehsPerHour="209.20515342797074" departLane="free"/>
  <flow id="JF436069" begin="5420" fromJunction="J4" toJunction="J5" end="5480" vehsPerHour="172.52897433394307" departLane="free"/>
  <flow id="JF436070" begin="5420" fromJunction="J4" toJunction="J6" end="5480" vehsPerHour="137.81756809171645" departLane="free"/>
  <flow id="JF436071" begin="5420" fromJunction="J5" toJunction="J0" end="5480" vehsPerHour="260.5116719347074" departLane="free"/>
  <flow id="JF436072" begin="5420" fromJunction="J5" toJunction="J3" end="5480" vehsPerHour="108.62209234131447" departLane="free"/>
  <flow id="JF436073" begin="5420" fromJunction="J5" toJunction="J6" end="5480" vehsPerHour="86.93579694331383" departLane="free"/>
  <flow id="JF436074" begin="5420" fromJunction="J6" toJunction="J0" end="5480" vehsPerHour="94.44653726029635" departLane="free"/>
  <flow id="JF436075" begin="5420" fromJunction="J6" toJunction="J4" end="5480" vehsPerHour="182.51677161714198" departLane="free"/>
  <flow id="JF436076" begin="5420" fromJunction="J6" toJunction="J5" end="5480" vehsPerHour="85.73370374158664" departLane="free"/>
  <flow id="JF436077" begin="5420" fromJunction="J6" toJunction="J7" end="5480" vehsPerHour="216.7116693765265" departLane="free"/>
  <flow id="JF436078" begin="5420" fromJunction="J7" toJunction="J4" end="5480" vehsPerHour="127.54195727430704" departLane="free"/>
  <flow id="JF436079" begin="5420" fromJunction="J7" toJunction="J6" end="5480" vehsPerHour="81.23456895130961" departLane="free"/>
  <flow id="JF436080" begin="5480" fromJunction="J0" toJunction="J3" end="5540" vehsPerHour="316.3352858602625" departLane="free"/>
  <flow id="JF436081" begin="5480" fromJunction="J0" toJunction="J5" end="5540" vehsPerHour="325.3734679325095" departLane="free"/>
  <flow id="JF436082" begin="5480" fromJunction="J0" toJunction="J6" end="5540" vehsPerHour="9.337295217123797" departLane="free"/>
  <flow id="JF436083" begin="5480" fromJunction="J3" toJunction="J0" end="5540" vehsPerHour="89.90513926979784" departLane="free"/>
  <flow id="JF436084" begin="5480" fromJunction="J3" toJunction="J4" end="5540" vehsPerHour="226.62149230395568" departLane="free"/>
  <flow id="JF436085" begin="5480" fromJunction="J3" toJunction="J5" end="5540" vehsPerHour="472.28470960085605" departLane="free"/>
  <flow id="JF436086" begin="5480" fromJunction="J3" toJunction="J6" end="5540" vehsPerHour="192.87901895543132" departLane="free"/>
  <flow id="JF436087" begin="5480" fromJunction="J4" toJunction="J0" end="5540" vehsPerHour="138.26158232525881" departLane="free"/>
  <flow id="JF436088" begin="5480" fromJunction="J4" toJunction="J3" end="5540" vehsPerHour="178.979299172163" departLane="free"/>
  <flow id="JF436089" begin="5480" fromJunction="J4" toJunction="J5" end="5540" vehsPerHour="59.80630269725258" departLane="free"/>
  <flow id="JF436090" begin="5480" fromJunction="J4" toJunction="J6" end="5540" vehsPerHour="55.34031303461905" departLane="free"/>
  <flow id="JF436091" begin="5480" fromJunction="J4" toJunction="J7" end="5540" vehsPerHour="145.1493604526896" departLane="free"/>
  <flow id="JF436092" begin="5480" fromJunction="J5" toJunction="J0" end="5540" vehsPerHour="128.61944032869837" departLane="free"/>
  <flow id="JF436093" begin="5480" fromJunction="J5" toJunction="J3" end="5540" vehsPerHour="73.42935695289324" departLane="free"/>
  <flow id="JF436094" begin="5480" fromJunction="J5" toJunction="J4" end="5540" vehsPerHour="119.39882469573568" departLane="free"/>
  <flow id="JF436095" begin="5480" fromJunction="J5" toJunction="J6" end="5540" vehsPerHour="205.70906756818601" departLane="free"/>
  <flow id="JF436096" begin="5480" fromJunction="J5" toJunction="J7" end="5540" vehsPerHour="170.26095901691818" departLane="free"/>
  <flow id="JF436097" begin="5480" fromJunction="J6" toJunction="J0" end="5540" vehsPerHour="256.3629207754872" departLane="free"/>
  <flow id="JF436098" begin="5480" fromJunction="J6" toJunction="J3" end="5540" vehsPerHour="159.06136634344142" departLane="free"/>
  <flow id="JF436099" begin="5480" fromJunction="J6" toJunction="J5" end="5540" vehsPerHour="80.68833815963329" departLane="free"/>
  <flow id="JF436100" begin="5480" fromJunction="J6" toJunction="J7" end="5540" vehsPerHour="23.92695710002582" departLane="free"/>
  <flow id="JF436101" begin="5480" fromJunction="J7" toJunction="J0" end="5540" vehsPerHour="69.16364662544079" departLane="free"/>
  <flow id="JF436102" begin="5480" fromJunction="J7" toJunction="J5" end="5540" vehsPerHour="209.74294102127416" departLane="free"/>
  <flow id="JF436103" begin="5480" fromJunction="J7" toJunction="J6" end="5540" vehsPerHour="232.99094115048342" departLane="free"/>
  <flow id="JF436104" begin="5540" fromJunction="J0" toJunction="J3" end="5600" vehsPerHour="14.33638433546409" departLane="free"/>
  <flow id="JF436105" begin="5540" fromJunction="J0" toJunction="J6" end="5600" vehsPerHour="100.14478625500205" departLane="free"/>
  <flow id="JF436106" begin="5540" fromJunction="J0" toJunction="J7" end="5600" vehsPerHour="85.70499197828288" departLane="free"/>