<?xml version="1.0" encoding="UTF-8"?>
<routes xmlns:xsi="http://www.w3.org/2001/XMLSchema-instance" xsi:noNamespaceSchemaLocation="http://sumo.dlr.de/xsd/routes_file.xsd">
  <flow id="JF441190" begin="0" fromJunction="J3" toJunction="J0" end="5000" vehsPerHour="317.5362916353154" departLane="free"/>
  <flow id="JF441191" begin="0" fromJunction="J0" toJunction="J3" end="5000" vehsPerHour="296.52908635565575" departLane="free"/>
  <flow id="JF441192" begin="0" fromJunction="J3" toJunction="J6" end="5000" vehsPerHour="62.504237573203156" departLane="free"/>
  <flow id="JF441193" begin="0" fromJunction="J3" toJunction="J5" end="5000" vehsPerHour="433.22418167369244" departLane="free"/>
  <flow id="JF441194" begin="0" fromJunction="J3" toJunction="J4" end="5000" vehsPerHour="119.94409801635534" departLane="free"/>
  <flow id="JF441195" begin="0" fromJunction="J3" toJunction="J7" end="5000" vehsPerHour="227.33253405362592" departLane="free"/>
  <flow id="JF441196" begin="0" fromJunction="J0" toJunction="J6" end="5000" vehsPerHour="66.50673227550033" departLane="free"/>
  <flow id="JF441197" begin="0" fromJunction="J0" toJunction="J5" end="5000" vehsPerHour="408.80525533015" departLane="free"/>
  <flow id="JF441198" begin="0" fromJunction="J0" toJunction="J4" end="5000" vehsPerHour="468.9171870732624" departLane="free"/>
  <flow id="JF441199" begin="0" fromJunction="J0" toJunction="J7" end="5000" vehsPerHour="378.11360000417386" departLane="free"/>
  <flow id="JF441200" begin="0" fromJunction="J6" toJunction="J5" end="5000" vehsPerHour="142.00371522415472" departLane="free"/>
  <flow id="JF441201" begin="0" fromJunction="J6" toJunction="J4" end="5000" vehsPerHour="113.51629097500256" departLane="free"/>
  <flow id="JF441202" begin="0" fromJunction="J6" toJunction="J7" end="5000" vehsPerHour="21.23138653499499" departLane="free"/>
  <flow id="JF441203" begin="0" fromJunction="J5" toJunction="J6" end="5000" vehsPerHour="52.92148817390575" departLane="free"/>
  <flow id="JF441204" begin="0" fromJunction="J5" toJunction="J4" end="5000" vehsPerHour="238.5685226158834" departLane="free"/>
  <flow id="JF441205" begin="0" fromJunction="J5" toJunction="J7" end="5000" vehsPerHour="26.132015223663917" departLane="free"/>
  <flow id="JF441206" begin="0" fromJunction="J4" toJunction="J6" end="5000" vehsPerHour="173.50155459309255" departLane="free"/>
  <flow id="JF441207" begin="0" fromJunction="J4" toJunction="J5" end="5000" vehsPerHour="270.25015086383524" departLane="free"/>
  <flow id="JF441208" begin="0" fromJunction="J4" toJunction="J7" end="5000" vehsPerHour="74.80624062235017" departLane="free"/>
  <flow id="JF441209" begin="0" fromJunction="J7" toJunction="J6" end="5000" vehsPerHour="86.92862881728097" departLane="free"/>
  <flow id="JF441210" begin="0" fromJunction="J7" toJunction="J5" end="5000" vehsPerHour="170.87137471729127" departLane="free"/>
  <flow id="JF441211" begin="0" fromJunction="J7" toJunction="J4" end="5000" vehsPerHour="239.38610459004698" departLane="free"/>
  <flow id="JF441212" begin="0" fromJunction="J6" toJunction="J3" end="5000" vehsPerHour="223.7424807105561" departLane="free"/>
  <flow id="JF441213" begin="0" fromJunction="J6" toJunction="J0" end="5000" vehsPerHour="254.8364526085389" departLane="free"/>
  <flow id="JF441214" begin="0" fromJunction="J5" toJunction="J3" end="5000" vehsPerHour="149.84690341997282" departLane="free"/>
  <flow id="JF441215" begin="0" fromJunction="J5" toJunction="J0" end="5000" vehsPerHour="180.3201645285995" departLane="free"/>
  <flow id="JF441216" begin="0" fromJunction="J4" toJunction="J3" end="5000" vehsPerHour="104.0570641186609" departLane="free"/>
  <flow id="JF441217" begin="0" fromJunction="J4" toJunction="J0" end="5000" vehsPerHour="109.14088423688649" departLane="free"/>
  <flow id="JF441218" begin="0" fromJunction="J7" toJunction="J3" end="5000" vehsPerHour="224.06523756379337" departLane="free"/>
  <flow id="JF441219" begin="0" fromJunction="J7" toJunction="J0" end="5000" vehsPerHour="199.06298200247934" departLane="free"/>
  <flow id="JF441220" begin="5000" fromJunction="J0" toJunction="J3" end="5060" vehsPerHour="91.93323714452036" departLane="free"/>
  <flow id="JF441221" begin="5000" fromJunction="J0" toJunction="J4" end="5060" vehsPerHour="227.78402033572087" departLane="free"/>
  <flow id="JF441222" begin="5000" fromJunction="J0" toJunction="J5" end="5060" vehsPerHour="196.61591566316685" departLane="free"/>
  <flow id="JF441223" begin="5000" fromJunction="J0" toJunction="J6" end="5060" vehsPerHour="268.31751189246506" departLane="free"/>
  <flow id="JF441224" begin="5000" fromJunction="J0" toJunction="J7" end="5060" vehsPerHour="304.76789990772755" departLane="free"/>
  <flow id="JF441225" begin="5000" fromJunction="J3" toJunction="J0" end="5060" vehsPerHour="72.18700184930849" departLane="free"/>
  <flow id="JF441226" begin="5000" fromJunction="J3" toJunction="J4" end="5060" vehsPerHour="150.74052713581304" departLane="free"/>
  <flow id="JF441227" begin="5000" fromJunction="J3" toJunction="J6" end="5060" vehsPerHour="252.11379553442248" departLane="free"/>
  <flow id="JF441228" begin="5000" fromJunction="J4" toJunction="J0" end="5060" vehsPerHour="69.77000380908301" departLane="free"/>
  <flow id="JF441229" begin="5000" fromJunction="J4" toJunction="J3" end="5060" vehsPerHour="105.46913619259477" departLane="free"/>
  <flow id="JF441230" begin="5000" fromJunction="J4" toJunction="J6" end="5060" vehsPerHour="262.71858052624583" departLane="free"/>
  <flow id="JF441231" begin="5000" fromJunction="J5" toJunction="J0" end="5060" vehsPerHour="171.48890434260647" departLane="free"/>
  <flow id="JF441232" begin="5000" fromJunction="J5" toJunction="J3" end="5060" vehsPerHour="204.97795938265222" departLane="free"/>
  <flow id="JF441233" begin="5000" fromJunction="J5" toJunction="J4" end="5060" vehsPerHour="62.496469160820396" departLane="free"/>
  <flow id="JF441234" begin="5000" fromJunction="J5" toJunction="J7" end="5060" vehsPerHour="39.720074447534515" departLane="free"/>
  <flow id="JF441235" begin="5000" fromJunction="J6" toJunction="J0" end="5060" vehsPerHour="38.90288379462149" departLane="free"/>
  <flow id="JF441236" begin="5000" fromJunction="J6" toJunction="J3" end="5060" vehsPerHour="89.22990200962533" departLane="free"/>
  <flow id="JF441237" begin="5000" fromJunction="J6" toJunction="J4" end="5060" vehsPerHour="250.0128092612273" departLane="free"/>
  <flow id="JF441238" begin="5000" fromJunction="J6" toJunction="J5" end="5060" vehsPerHour="131.1841333310399" departLane="free"/>
  <flow id="JF441239" begin="5000" fromJunction="J6" toJunction="J7" end="5060" vehsPerHour="115.6237288565532" departLane="free"/>
  <flow id="JF441240" begin="5000" fromJunction="J7" toJunction="J0" end="5060" vehsPerHour="124.81093993990662" departLane="free"/>
  <flow id="JF441241" begin="5000" fromJunction="J7" toJunction="J3" end="5060" vehsPerHour="74.43101712049011" departLane="free"/>
  <flow id="JF441242" begin="5000" fromJunction="J7" toJunction="J4" end="5060" vehsPerHour="262.22246241063783" departLane="free"/>
  <flow id="JF441243" begin="5000" fromJunction="J7" toJunction="J5" end="5060" vehsPerHour="87.69568852863458" departLane="free"/>
  <flow id="JF441244" begin="5060" fromJunction="J0" toJunction="J4" end="5120" vehsPerHour="393.0762648847361" departLane="free"/>
  <flow id="JF441245" begin="5060" fromJunction="J0" toJunction="J6" end="5120" vehsPerHour="445.5262143077862" departLane="free"/>
  <flow id="JF441246" begin="5060" fromJunction="J0" toJunction="J7" end="5120" vehsPerHour="101.74957186700341" departLane="free"/>
  <flow id="JF441247" begin="5060" fromJunction="J3" toJunction="J4" end="5120" vehsPerHour="321.0010229031003" departLane="free"/>
  <flow id="JF441248" begin="5060" fromJunction="J3" toJunction="J5" end="5120" vehsPerHour="347.99027048007775" departLane="free"/>
  <flow id="JF441249" begin="5060" fromJunction="J3" toJunction="J7" end="5120" vehsPerHour="135.42009845346328" departLane="free"/>
  <flow id="JF441250" begin="5060" fromJunction="J4" toJunction="J0" end="5120" vehsPerHour="231.8954467746495" departLane="free"/>
  <flow id="JF441251" begin="5060" fromJunction="J4" toJunction="J3" end="5120" vehsPerHour="69.97211312132308" departLane="free"/>
  <flow id="JF441252" begin="5060" fromJunction="J4" toJunction="J5" end="5120" vehsPerHour="189.54770134231214" departLane="free"/>
  <flow id="JF441253" begin="5060" fromJunction="J4" toJunction="J7" end="5120" vehsPerHour="261.36160636827464" departLane="free"/>
  <flow id="JF441254" begin="5060" fromJunction="J5" toJunction="J3" end="5120" vehsPerHour="271.3851856305973" departLane="free"/>
  <flow id="JF441255" begin="5060" fromJunction="J5" toJunction="J4" end="5120" vehsPerHour="0.7038858568126591" departLane="free"/>
  <flow id="JF441256" begin="5060" fromJunction="J6" toJunction="J0" end="5120" vehsPerHour="51.87404035169802" departLane="free"/>
  <flow id="JF441257" begin="5060" fromJunction="J6" toJunction="J3" end="5120" vehsPerHour="106.78293968123329" departLane="free"/>
  <flow id="JF441258" begin="5060" fromJunction="J6" toJunction="J4" end="5120" vehsPerHour="139.3413803315904" departLane="free"/>
  <flow id="JF441259" begin="5060" fromJunction="J6" toJunction="J5" end="5120" vehsPerHour="204.1203468008353" departLane="free"/>
  <flow id="JF441260" begin="5060" fromJunction="J7" toJunction="J0" end="5120" vehsPerHour="26.593788149966976" departLane="free"/>
  <flow id="JF441261" begin="5060" fromJunction="J7" toJunction="J3" end="5120" vehsPerHour="140.1441965178021" departLane="free"/>
  <flow id="JF441262" begin="5060" fromJunction="J7" toJunction="J4" end="5120" vehsPerHour="41.66478184131789" departLane="free"/>
  <flow id="JF441263" begin="5060" fromJunction="J7" toJunction="J6" end="5120" vehsPerHour="226.27460595095937" departLane="free"/>
  <flow id="JF441264" begin="5120" fromJunction="J0" toJunction="J3" end="5180" vehsPerHour="158.0595723624366" departLane="free"/>
  <flow id="JF441265" begin="5120" fromJunction="J0" toJunction="J7" end="5180" vehsPerHour="296.9720654580606" departLane="free"/>
  <flow id="JF441266" begin="5120" fromJunction="J3" toJunction="J0" end="5180" vehsPerHour="507.2799201224399" departLane="free"/>
  <flow id="JF441267" begin="5120" fromJunction="J3" toJunction="J5" end="5180" vehsPerHour="216.96036174091148" departLane="free"/>
  <flow id="JF441268" begin="5120" fromJunction="J3" toJunction="J7" end="5180" vehsPerHour="385.18554708227396" departLane="free"/>
  <flow id="JF441269" begin="5120" fromJunction="J4" toJunction="J0" end="5180" vehsPerHour="22.977965994838208" departLane="free"/>
  <flow id="JF441270" begin="5120" fromJunction="J4" toJunction="J3" end="5180" vehsPerHour="13.46861455995454" departLane="free"/>
  <flow id="JF441271" begin="5120" fromJunction="J4" toJunction="J5" end="5180" vehsPerHour="163.56301405794912" departLane="free"/>
  <flow id="JF441272" begin="5120" fromJunction="J4" toJunction="J7" end="5180" vehsPerHour="270.92737427290314" departLane="free"/>
  <flow id="JF441273" begin="5120" fromJunction="J5" toJunction="J0" end="5180" vehsPerHour="234.7411637220621" departLane="free"/>
  <flow id="JF441274" begin="5120" fromJunction="J5" toJunction="J3" end="5180" vehsPerHour="129.2649119390266" departLane="free"/>
  <flow id="JF441275" begin="5120" fromJunction="J5" toJunction="J4" end="5180" vehsPerHour="89.07804911399352" departLane="free"/>
  <flow id="JF441276" begin="5120" fromJunction="J5" toJunction="J6" end="5180" vehsPerHour="220.54178354779376" departLane="free"/>
  <flow id="JF441277" begin="5120" fromJunction="J6" toJunction="J0" end="5180" vehsPerHour="76.26312225365666" departLane="free"/>
  <flow id="JF441278" begin="5120" fromJunction="J6" toJunction="J4" end="5180" vehsPerHour="136.82133135063017" departLane="free"/>
  <flow id="JF441279" begin="5120" fromJunction="J6" toJunction="J7" end="5180" vehsPerHour="189.52220407977345" departLane="free"/>
  <flow id="JF441280" begin="5120" fromJunction="J7" toJunction="J3" end="5180" vehsPerHour="65.66625141301726" departLane="free"/>
  <flow id="JF441281" begin="5120" fromJunction="J7" toJunction="J4" end="5180" vehsPerHour="197.16670783407517" departLane="free"/>
  <flow id="JF441282" begin="5120" fromJunction="J7" toJunction="J6" end="5180" vehsPerHour="31.463846143381904" departLane="free"/>
  <flow id="JF441283" begin="5180" fromJunction="J0" toJunction="J3" end="5240" vehsPerHour="329.256378225602" departLane="free"/>
  <flow id="JF441284" begin="5180" fromJunction="J0" toJunction="J7" end="5240" vehsPerHour="370.1634030877825" departLane="free"/>
  <flow id="JF441285" begin="5180" fromJunction="J3" toJunction="J0" end="5240" vehsPerHour="249.77677081578187" departLane="free"/>
  <flow id="JF441286" begin="5180" fromJunction="J3" toJunction="J4" end="5240" vehsPerHour="6.447299111214591" departLane="free"/>
  <flow id="JF441287" begin="5180" fromJunction="J3" toJunction="J5" end="5240" vehsPerHour="232.13333834691812" departLane="free"/>
  <flow id="JF441288" begin="5180" fromJunction="J3" toJunction="J6" end="5240" vehsPerHour="180.26958038583268" departLane="free"/>
  <flow id="JF441289" begin="5180" fromJunction="J4" toJunction="J3" end="5240" vehsPerHour="75.91910462352992" departLane="free"/>
  <flow id="JF441290" begin="5180" fromJunction="J4" toJunction="J5" end="5240" vehsPerHour="162.16051949877425" departLane="free"/>
  <flow id="JF441291" begin="5180" fromJunction="J4" toJunction="J7" end="5240" vehsPerHour="133.01417415998668" departLane="free"/>
  <flow id="JF441292" begin="5180" fromJunction="J5" toJunction="J0" end="5240" vehsPerHour="40.81518580230151" departLane="free"/>
  <flow id="JF441293" begin="5180" fromJunction="J5" toJunction="J3" end="5240" vehsPerHour="180.01617303498927" departLane="free"/>
  <flow id="JF441294" begin="5180" fromJunction="J5" toJunction="J7" end="5240" vehsPerHour="131.25474960630382" departLane="free"/>
  <flow id="JF441295" begin="5180" fromJunction="J6" toJunction="J3" end="5240" vehsPerHour="36.348320621297006" departLane="free"/>
  <flow id="JF441296" begin="5180" fromJunction="J6" toJunction="J4" end="5240" vehsPerHour="122.97577398409763" departLane="free"/>
  <flow id="JF441297" begin="5180" fromJunction="J6" toJunction="J5" end="5240" vehsPerHour="75.72672075926785" departLane="free"/>
  <flow id="JF441298" begin="5180" fromJunction="J6" toJunction="J7" end="5240" vehsPerHour="136.05294601989957" departLane="free"/>
  <flow id="JF441299" begin="5180" fromJunction="J7" toJunction="J0" end="5240" vehsPerHour="213.12796771564163" departLane="free"/>
  <flow id="JF441300" begin="5180" fromJunction="J7" toJunction="J3" end="5240" vehsPerHour="88.64875169817827" departLane="free"/>
  <flow id="JF441301" begin="5180" fromJunction="J7" toJunction="J4" end="5240" vehsPerHour="272.44834806344664" departLane="free"/>
  <flow id="JF441302" begin="5180" fromJunction="J7" toJunction="J5" end="5240" vehsPerHour="98.10320768086784" departLane="free"/>
  <flow id="JF441303" begin="5240" fromJunction="J0" toJunction="J3" end="5300" vehsPerHour="482.2438734062035" departLane="free"/>
  <flow id="JF441304" begin="5240" fromJunction="J0" toJunction="J4" end="5300" vehsPerHour="349.38306513154515" departLane="free"/>
  <flow id="JF441305" begin="5240" fromJunction="J0" toJunction="J5" end="5300" vehsPerHour="257.02717669870975" departLane="free"/>
  <flow id="JF441306" begin="5240" fromJunction="J0" toJunction="J6" end="5300" vehsPerHour="41.02496428437919" departLane="free"/>
  <flow id="JF441307" begin="5240" fromJunction="J3" toJunction="J0" end="5300" vehsPerHour="227.06399501343327" departLane="free"/>
  <flow id="JF441308" begin="5240" fromJunction="J3" toJunction="J5" end="5300" vehsPerHour="254.00303192657069" departLane="free"/>
  <flow id="JF441309" begin="5240" fromJunction="J3" toJunction="J6" end="5300" vehsPerHour="445.0124267011316" departLane="free"/>
  <flow id="JF441310" begin="5240" fromJunction="J3" toJunction="J7" end="5300" vehsPerHour="122.86773335350676" departLane="free"/>
  <flow id="JF441311" begin="5240" fromJunction="J4" toJunction="J0" end="5300" vehsPerHour="197.7823489358764" departLane="free"/>
  <flow id="JF441312" begin="5240" fromJunction="J4" toJunction="J3" end="5300" vehsPerHour="110.84155879279683" departLane="free"/>
  <flow id="JF441313" begin="5240" fromJunction="J4" toJunction="J6" end="5300" vehsPerHour="117.81156740136556" departLane="free"/>
  <flow id="JF441314" begin="5240" fromJunction="J4" toJunction="J7" end="5300" vehsPerHour="42.851927505003786" departLane="free"/>
  <flow id="JF441315" begin="5240" fromJunction="J5" toJunction="J0" end="5300" vehsPerHour="153.94294868595924" departLane="free"/>
  <flow id="JF441316" begin="5240" fromJunction="J5" toJunction="J3" end="5300" vehsPerHour="117.28895197981124" departLane="free"/>
  <flow id="JF441317" begin="5240" fromJunction="J5" toJunction="J4" end="5300" vehsPerHour="24.650573207363678" departLane="free"/>
  <flow id="JF441318" begin="5240" fromJunction="J6" toJunction="J0" end="5300" vehsPerHour="192.8669937169027" departLane="free"/>
  <flow id="JF441319" begin="5240" fromJunction="J6" toJunction="J3" end="5300" vehsPerHour="74.20071180166073" departLane="free"/>
  <flow id="JF441320" begin="5240" fromJunction="J6" toJunction="J5" end="5300" vehsPerHour="41.92941649472806" departLane="free"/>
  <flow id="JF441321" begin="5240" fromJunction="J6" toJunction="J7" end="5300" vehsPerHour="67.60309859493807" departLane="free"/>
  <flow id="JF441322" begin="5240" fromJunction="J7" toJunction="J3" end="5300" vehsPerHour="212.5158186472075" departLane="free"/>
  <flow id="JF441323" begin="5240" fromJunction="J7" toJunction="J4" end="5300" vehsPerHour="205.43247221018146" departLane="free"/>
  <flow id="JF441324" begin="5240" fromJunction="J7" toJunction="J5" end="5300" vehsPerHour="19.335284440228744" departLane="free"/>
  <flow id="JF441325" begin="5240" fromJunction="J7" toJunction="J6" end="5300" vehsPerHour="228.08664413114278" departLane="free"/>
  <flow id="JF441326" begin="5300" fromJunction="J0" toJunction="J4" end="5360" vehsPerHour="333.2363222655564" departLane="free"/>
  <flow id="JF441327" begin="5300" fromJunction="J0" toJunction="J5" end="5360" vehsPerHour="181.54628181725542" departLane="free"/>
  <flow id="JF441328" begin="5300" fromJunction="J0" toJunction="J6" end="5360" vehsPerHour="484.85208813913886" departLane="free"/>
  <flow id="JF441329" begin="5300" fromJunction="J0" toJunction="J7" end="5360" vehsPerHour="449.5654833504736" departLane="free"/>
  <flow id="JF441330" begin="5300" fromJunction="J3" toJunction="J0" end="5360" vehsPerHour="173.1485558153889" departLane="free"/>
  <flow id="JF441331" begin="5300" fromJunction="J3" toJunction="J4" end="5360" vehsPerHour="174.2765414139738" departLane="free"/>
  <flow id="JF441332" begin="5300" fromJunction="J3" toJunction="J6" end="5360" vehsPerHour="170.78573862709857" departLane="free"/>
  <flow id="JF441333" begin="5300" fromJunction="J4" toJunction="J0" end="5360" vehsPerHour="67.30077362096775" departLane="free"/>
  <flow id="JF441334" begin="5300" fromJunction="J4" toJunction="J3" end="5360" vehsPerHour="118.24712060800468" departLane="free"/>
  <flow id="JF441335" begin="5300" fromJunction="J4" toJunction="J5" end="5360" vehsPerHour="263.8606793170544" departLane="free"/>
  <flow id="JF441336" begin="5300" fromJunction="J4" toJunction="J6" end="5360" vehsPerHour="224.9553212567975" departLane="free"/>
  <flow id="JF441337" begin="5300" fromJunction="J4" toJunction="J7" end="5360" vehsPerHour="158.07264847598654" departLane="free"/>
  <flow id="JF441338" begin="5300" fromJunction="J5" toJunction="J0" end="5360" vehsPerHour="173.8701679721901" departLane="free"/>
  <flow id="JF441339" begin="5300" fromJunction="J5" toJunction="J4" end="5360" vehsPerHour="82.50125433896987" departLane="free"/>
  <flow id="JF441340" begin="5300" fromJunction="J5" toJunction="J6" end="5360" vehsPerHour="79.19608386237616" departLane="free"/>
  <flow id="JF441341" begin="5300" fromJunction="J5" toJunction="J7" end="5360" vehsPerHour="227.01712081686367" departLane="free"/>
  <flow id="JF441342" begin="5300" fromJunction="J6" toJunction="J0" end="5360" vehsPerHour="187.36217373297512" departLane="free"/>
  <flow id="JF441343" begin="5300" fromJunction="J6" toJunction="J3" end="5360" vehsPerHour="57.03052676309569" departLane="free"/>
  <flow id="JF441344" begin="5300" fromJunction="J6" toJunction="J5" end="5360" vehsPerHour="76.22837616598147" departLane="free"/>
  <flow id="JF441345" begin="5300" fromJunction="J6" toJunction="J7" end="5360" vehsPerHour="132.8147201390618" departLane="free"/>
  <flow id="JF441346" begin="5300" fromJunction="J7" toJunction="J0" end="5360" vehsPerHour="251.13247330380605" departLane="free"/>
  <flow id="JF441347" begin="5300" fromJunction="J7" toJunction="J3" end="5360" vehsPerHour="42.253277192166955" departLane="free"/>
  <flow id="JF441348" begin="5300" fromJunction="J7" toJunction="J4" end="5360" vehsPerHour="245.4274901965269" departLane="free"/>
  <flow id="JF441349" begin="5300" fromJunction="J7" toJunction="J5" end="5360" vehsPerHour="90.3225942022072" departLane="free"/>
  <flow id="JF441350" begin="5300" fromJunction="J7" toJunction="J6" end="5360" vehsPerHour="110.0871671871492" departLane="free"/>
  <flow id="JF441351" begin="5360" fromJunction="J0" toJunction="J4" end="5420" vehsPerHour="163.72376371417076" departLane="free"/>
  <flow id="JF441352" begin="5360" fromJunction="J0" toJunction="J5" end="5420" vehsPerHour="534.849608036685" departLane="free"/>
  <flow id="JF441353" begin="5360" fromJunction="J0" toJunction="J7" end="5420" vehsPerHour="520.4302995252275" departLane="free"/>
  <flow id="JF441354" begin="5360" fromJunction="J3" toJunction="J0" end="5420" vehsPerHour="353.4365552819469" departLane="free"/>
  <flow id="JF441355" begin="5360" fromJunction="J3" toJunction="J4" end="5420" vehsPerHour="404.3247939153541" departLane="free"/>
  <flow id="JF441356" begin="5360" fromJunction="J3" toJunction="J5" end="5420" vehsPerHour="510.00630276347255" departLane="free"/>
  <flow id="JF441357" begin="5360" fromJunction="J3" toJunction="J6" end="5420" vehsPerHour="281.3953161264133" departLane="free"/>
  <flow id="JF441358" begin="5360" fromJunction="J3" toJunction="J7" end="5420" vehsPerHour="434.5727888231791" departLane="free"/>
  <flow id="JF441359" begin="5360" fromJunction="J4" toJunction="J0" end="5420" vehsPerHour="52.72505628631262" departLane="free"/>
  <flow id="JF441360" begin="5360" fromJunction="J4" toJunction="J3" end="5420" vehsPerHour="56.24728929681014" departLane="free"/>
  <flow id="JF441361" begin="5360" fromJunction="J4" toJunction="J5" end="5420" vehsPerHour="59.255768337388275" departLane="free"/>
  <flow id="JF441362" begin="5360" fromJunction="J4" toJunction="J6" end="5420" vehsPerHour="106.70804562601434" departLane="free"/>
  <flow id="JF441363" begin="5360" fromJunction="J4" toJunction="J7" end="5420" vehsPerHour="258.7361320257794" departLane="free"/>
  <flow id="JF441364" begin="5360" fromJunction="J5" toJunction="J3" end="5420" vehsPerHour="103.14903811301765" departLane="free"/>
  <flow id="JF441365" begin="5360" fromJunction="J5" toJunction="J4" end="5420" vehsPerHour="242.73158468915577" departLane="free"/>
  <flow id="JF441366" begin="5360" fromJunction="J5" toJunction="J6" end="5420" vehsPerHour="2.0503753581786053" departLane="free"/>
  <flow id="JF441367" begin="5360" fromJunction="J5" toJunction="J7" end="5420" vehsPerHour="102.9662988440247" departLane="free"/>
  <flow id="JF441368" begin="5360" fromJunction="J6" toJunction="J0" end="5420" vehsPerHour="166.46758997459466" departLane="free"/>
  <flow id="JF441369" begin="5360" fromJunction="J6" toJunction="J4" end="5420" vehsPerHour="158.11102201787477" departLane="free"/>
  <flow id="JF441370" begin="5360" fromJunction="J6" toJunction="J7" end="5420" vehsPerHour="274.76644447241006" departLane="free"/>
  <flow id="JF441371" begin="5360" fromJunction="J7" toJunction="J3" end="5420" vehsPerHour="214.9535991544505" departLane="free"/>
  <flow id="JF441372" begin="5360" fromJunction="J7" toJunction="J4" end="5420" vehsPerHour="173.9796181815331" departLane="free"/>
  <flow id="JF441373" begin="5360" fromJunction="J7" toJunction="J6" end="5420" vehsPerHour="60.94866707439848" departLane="free"/>
  <flow id="JF441374" begin="5420" fromJunction="J0" toJunction="J6" end="5480" vehsPerHour="23.904649316896293" departLane="free"/>
  <flow id="JF441375" begin="5420" fromJunction="J3" toJunction="J5" end="5480" vehsPerHour="339.88322595029547" departLane="free"/>
  <flow id="JF441376" begin="5420" fromJunction="J3" toJunction="J6" end="5480" vehsPerHour="413.89045487998175" departLane="free"/>
  <flow id="JF441377" begin="5420" fromJunction="J3" toJunction="J7" end="5480" vehsPerHour="201.9515720171116" departLane="free"/>
  <flow id="JF441378" begin="5420" fromJunction="J4" toJunction="J0" end="5480" vehsPerHour="46.729903066004894" departLane="free"/>
  <flow id="JF441379" begin="5420" fromJunction="J4" toJunction="J3" end="5480" vehsPerHour="26.44935976265184" departLane="free"/>
  <flow id="JF441380" begin="5420" fromJunction="J4" toJunction="J6" end="5480" vehsPerHour="199.6450388587026" departLane="free"/>
  <flow id="JF441381" begin="5420" fromJunction="J4" toJunction="J7" end="5480" vehsPerHour="247.97856390654687" departLane="free"/>
  <flow id="JF441382" begin="5420" fromJunction="J5" toJunction="J3" end="5480" vehsPerHour="138.06130460147796" departLane="free"/>
  <flow id="JF441383" begin="5420" fromJunction="J5" toJunction="J4" end="5480" vehsPerHour="243.95248258222927" departLane="free"/>
  <flow id="JF441384" begin="5420" fromJunction="J5" toJunction="J6" end="5480" vehsPerHour="193.18760775266517" departLane="free"/>
  <flow id="JF441385" begin="5420" fromJunction="J5" toJunction="J7" end="5480" vehsPerHour="208.20465273288028" departLane="free"/>
  <flow id="JF441386" begin="5420" fromJunction="J6" toJunction="J4" end="5480" vehsPerHour="219.440029477361" departLane="free"/>
  <flow id="JF441387" begin="5420" fromJunction="J6" toJunction="J5" end="5480" vehsPerHour="160.24999822392653" departLane="free"/>
  <flow id="JF441388" begin="5420" fromJunction="J6" toJunction="J7" end="5480" vehsPerHour="190.46508589160445" departLane="free"/>
  <flow id="JF441389" begin="5420" fromJunction="J7" toJunction="J3" end="5480" vehsPerHour="184.57198307247677" departLane="free"/>
  <flow id="JF441390" begin="5420" fromJunction="J7" toJunction="J4" end="5480" vehsPerHour="210.40446315936737" departLane="free"/>
  <flow id="JF441391" begin="5420" fromJunction="J7" toJunction="J5" end="5480" vehsPerHour="175.31180537998105" departLane="free"/>
  <flow id="JF441392" begin="5420" fromJunction="J7" toJunction="J6" end="5480" vehsPerHour="224.62423196912306" departLane="free"/>
  <flow id="JF441393" begin="5480" fromJunction="J0" toJunction="J4" end="5540" vehsPerHour="286.25967438815155" departLane="free"/>
  <flow id="JF441394" begin="5480" fromJunction="J0" toJunction="J6" end="5540" vehsPerHour="263.8511422774398" departLane="free"/>
  <flow id="JF441395" begin="5480" fromJunction="J0" toJunction="J7" end="5540" vehsPerHour="149.2512278031982" departLane="free"/>
  <flow id="JF441396" begin="5480" fromJunction="J3" toJunction="J5" end="5540" vehsPerHour="253.61815883456683" departLane="free"/>
  <flow id="JF441397" begin="5480" fromJunction="J3" toJunction="J7" end="5540" vehsPerHour="2.9818870909309427" departLane="free"/>
  <flow id="JF441398" begin="5480" fromJunction="J4" toJunction="J3" end="5540" vehsPerHour="90.5790548303179" departLane="free"/>
  <flow id="JF441399" begin="5480" fromJunction="J4" toJunction="J5" end="5540" vehsPerHour="9.654652414474407" departLane="free"/>
  <flow id="JF441400" begin="5480" fromJunction="J4" toJunction="J6" end="5540" vehsPerHour="100.01420956748727" departLane="free"/>
  <flow id="JF441401" begin="5480" fromJunction="J4" toJunction="J7" end="5540" vehsPerHour="122.19124790150066" departLane="free"/>
  <flow id="JF441402" begin="5480" fromJunction="J5" toJunction="J0" end="5540" vehsPerHour="108.37269085553537" departLane="free"/>
  <flow id="JF441403" begin="5480" fromJunction="J5" toJunction="J3" end="5540" vehsPerHour="97.50438163888037" departLane="free"/>
  <flow id="JF441404" begin="5480" fromJunction="J5" toJunction="J4" end="5540" vehsPerHour="189.3429611558669" departLane="free"/>
  <flow id="JF441405" begin="5480" fromJunction="J6" toJunction="J0" end="5540" vehsPerHour="32.685835563884986" departLane="free"/>
  <flow id="JF441406" begin="5480" fromJunction="J6" toJunction="J4" end="5540" vehsPerHour="74.1373311169135" departLane="free"/>
  <flow id="JF441407" begin="5480" fromJunction="J6" toJunction="J5" end="5540" vehsPerHour="113.77434686561969" departLane="free"/>
  <flow id="JF441408" begin="5480" fromJunction="J6" toJunction="J7" end="5540" vehsPerHour="152.93527534573266" departLane="free"/>
  <flow id="JF441409" begin="5480" fromJunction="J7" toJunction="J3" end="5540" vehsPerHour="44.003338021200946" departLane="free"/>
  <flow id="JF441410" begin="5480" fromJunction="J7" toJunction="J6" end="5540" vehsPerHour="35.81386110866627" departLane="free"/>
  <flow id="JF441411" begin="5540" fromJunction="J0" toJunction="J4" end="5600" vehsPerHour="420.9753510498683" departLane="free"/>
  <flow id="JF441412" begin="5540" fromJunction="J0" toJunction="J5" end="5600" vehsPerHour="271.12380055098936" departLane="free"/>
  <flow id="JF441413" begin="5540" fromJunction="J0" toJunction="J6" end="5600" vehsPerHour="92.3586086738966" departLane="free"/>
  <flow id="JF441414" begin="5540" fromJunction="J0" toJunction="J7" end="5600" vehsPerHour="446.94887369565055" departLane="free"/>