<?xml version="1.0" encoding="UTF-8"?>
<routes xmlns:xsi="http://www.w3.org/2001/XMLSchema-instance" xsi:noNamespaceSchemaLocation="http://sumo.dlr.de/xsd/routes_file.xsd">
  <flow id="JF437683" begin="0" fromJunction="J3" toJunction="J0" end="5000" vehsPerHour="1079.6197577257349" departLane="free"/>
  <flow id="JF437684" begin="0" fromJunction="J0" toJunction="J3" end="5000" vehsPerHour="397.23806346303553" departLane="free"/>
  <flow id="JF437685" begin="0" fromJunction="J3" toJunction="J6" end="5000" vehsPerHour="58.01284580052947" departLane="free"/>
  <flow id="JF437686" begin="0" fromJunction="J3" toJunction="J5" end="5000" vehsPerHour="167.45391490439332" departLane="free"/>
  <flow id="JF437687" begin="0" fromJunction="J3" toJunction="J4" end="5000" vehsPerHour="219.26941623288695" departLane="free"/>
  <flow id="JF437688" begin="0" fromJunction="J3" toJunction="J7" end="5000" vehsPerHour="17.24514058298029" departLane="free"/>
  <flow id="JF437689" begin="0" fromJunction="J0" toJunction="J6" end="5000" vehsPerHour="265.96743606881955" departLane="free"/>
  <flow id="JF437690" begin="0" fromJunction="J0" toJunction="J5" end="5000" vehsPerHour="452.61899614528284" departLane="free"/>
  <flow id="JF437691" begin="0" fromJunction="J0" toJunction="J4" end="5000" vehsPerHour="298.9197625979439" departLane="free"/>
  <flow id="JF437692" begin="0" fromJunction="J0" toJunction="J7" end="5000" vehsPerHour="487.51082204870283" departLane="free"/>
  <flow id="JF437693" begin="0" fromJunction="J6" toJunction="J5" end="5000" vehsPerHour="234.33399440650572" departLane="free"/>
  <flow id="JF437694" begin="0" fromJunction="J6" toJunction="J4" end="5000" vehsPerHour="64.86390745536858" departLane="free"/>
  <flow id="JF437695" begin="0" fromJunction="J6" toJunction="J7" end="5000" vehsPerHour="262.21646608648797" departLane="free"/>
  <flow id="JF437696" begin="0" fromJunction="J5" toJunction="J6" end="5000" vehsPerHour="204.53320790833942" departLane="free"/>
  <flow id="JF437697" begin="0" fromJunction="J5" toJunction="J4" end="5000" vehsPerHour="201.91043619829145" departLane="free"/>
  <flow id="JF437698" begin="0" fromJunction="J5" toJunction="J7" end="5000" vehsPerHour="103.81643866556696" departLane="free"/>
  <flow id="JF437699" begin="0" fromJunction="J4" toJunction="J6" end="5000" vehsPerHour="133.01469772729007" departLane="free"/>
  <flow id="JF437700" begin="0" fromJunction="J4" toJunction="J5" end="5000" vehsPerHour="255.88450788173085" departLane="free"/>
  <flow id="JF437701" begin="0" fromJunction="J4" toJunction="J7" end="5000" vehsPerHour="153.5557044875244" departLane="free"/>
  <flow id="JF437702" begin="0" fromJunction="J7" toJunction="J6" end="5000" vehsPerHour="221.79622281287402" departLane="free"/>
  <flow id="JF437703" begin="0" fromJunction="J7" toJunction="J5" end="5000" vehsPerHour="158.80592521693583" departLane="free"/>
  <flow id="JF437704" begin="0" fromJunction="J7" toJunction="J4" end="5000" vehsPerHour="48.28864404334754" departLane="free"/>
  <flow id="JF437705" begin="0" fromJunction="J6" toJunction="J3" end="5000" vehsPerHour="219.46121178429584" departLane="free"/>
  <flow id="JF437706" begin="0" fromJunction="J6" toJunction="J0" end="5000" vehsPerHour="86.82408290802526" departLane="free"/>
  <flow id="JF437707" begin="0" fromJunction="J5" toJunction="J3" end="5000" vehsPerHour="270.8947679294037" departLane="free"/>
  <flow id="JF437708" begin="0" fromJunction="J5" toJunction="J0" end="5000" vehsPerHour="216.0649528280425" departLane="free"/>
  <flow id="JF437709" begin="0" fromJunction="J4" toJunction="J3" end="5000" vehsPerHour="101.02618198102753" departLane="free"/>
  <flow id="JF437710" begin="0" fromJunction="J4" toJunction="J0" end="5000" vehsPerHour="41.19350678308137" departLane="free"/>
  <flow id="JF437711" begin="0" fromJunction="J7" toJunction="J3" end="5000" vehsPerHour="216.6889023281198" departLane="free"/>
  <flow id="JF437712" begin="0" fromJunction="J7" toJunction="J0" end="5000" vehsPerHour="247.94754025612392" departLane="free"/>
  <flow id="JF437713" begin="5000" fromJunction="J0" toJunction="J4" end="5060" vehsPerHour="63.31339124665492" departLane="free"/>
  <flow id="JF437714" begin="5000" fromJunction="J0" toJunction="J5" end="5060" vehsPerHour="226.07613492788667" departLane="free"/>
  <flow id="JF437715" begin="5000" fromJunction="J0" toJunction="J7" end="5060" vehsPerHour="187.82075658383698" departLane="free"/>
  <flow id="JF437716" begin="5000" fromJunction="J3" toJunction="J0" end="5060" vehsPerHour="223.3705434814259" departLane="free"/>
  <flow id="JF437717" begin="5000" fromJunction="J3" toJunction="J4" end="5060" vehsPerHour="17.83761179661091" departLane="free"/>
  <flow id="JF437718" begin="5000" fromJunction="J3" toJunction="J5" end="5060" vehsPerHour="160.90831143853407" departLane="free"/>
  <flow id="JF437719" begin="5000" fromJunction="J3" toJunction="J6" end="5060" vehsPerHour="355.8925141024959" departLane="free"/>
  <flow id="JF437720" begin="5000" fromJunction="J3" toJunction="J7" end="5060" vehsPerHour="346.8957807760573" departLane="free"/>
  <flow id="JF437721" begin="5000" fromJunction="J4" toJunction="J0" end="5060" vehsPerHour="88.79674128443227" departLane="free"/>
  <flow id="JF437722" begin="5000" fromJunction="J4" toJunction="J6" end="5060" vehsPerHour="132.67667548589446" departLane="free"/>
  <flow id="JF437723" begin="5000" fromJunction="J5" toJunction="J3" end="5060" vehsPerHour="74.50905757361174" departLane="free"/>
  <flow id="JF437724" begin="5000" fromJunction="J5" toJunction="J4" end="5060" vehsPerHour="111.37441997151299" departLane="free"/>
  <flow id="JF437725" begin="5000" fromJunction="J5" toJunction="J6" end="5060" vehsPerHour="96.3441842095115" departLane="free"/>
  <flow id="JF437726" begin="5000" fromJunction="J6" toJunction="J0" end="5060" vehsPerHour="85.24344859479052" departLane="free"/>
  <flow id="JF437727" begin="5000" fromJunction="J6" toJunction="J4" end="5060" vehsPerHour="199.3085552696335" departLane="free"/>
  <flow id="JF437728" begin="5000" fromJunction="J6" toJunction="J5" end="5060" vehsPerHour="86.0269740696736" departLane="free"/>
  <flow id="JF437729" begin="5000" fromJunction="J6" toJunction="J7" end="5060" vehsPerHour="213.73176285128318" departLane="free"/>
  <flow id="JF437730" begin="5000" fromJunction="J7" toJunction="J3" end="5060" vehsPerHour="154.39590643297612" departLane="free"/>
  <flow id="JF437731" begin="5000" fromJunction="J7" toJunction="J4" end="5060" vehsPerHour="27.49848803536929" departLane="free"/>
  <flow id="JF437732" begin="5000" fromJunction="J7" toJunction="J5" end="5060" vehsPerHour="264.37294568518456" departLane="free"/>
  <flow id="JF437733" begin="5000" fromJunction="J7" toJunction="J6" end="5060" vehsPerHour="151.31272055598873" departLane="free"/>
  <flow id="JF437734" begin="5060" fromJunction="J0" toJunction="J3" end="5120" vehsPerHour="398.3620665189152" departLane="free"/>
  <flow id="JF437735" begin="5060" fromJunction="J0" toJunction="J4" end="5120" vehsPerHour="153.64188704497806" departLane="free"/>
  <flow id="JF437736" begin="5060" fromJunction="J0" toJunction="J7" end="5120" vehsPerHour="535.7462955758429" departLane="free"/>
  <flow id="JF437737" begin="5060" fromJunction="J3" toJunction="J4" end="5120" vehsPerHour="507.70554509323415" departLane="free"/>
  <flow id="JF437738" begin="5060" fromJunction="J3" toJunction="J5" end="5120" vehsPerHour="335.50027844255953" departLane="free"/>
  <flow id="JF437739" begin="5060" fromJunction="J3" toJunction="J7" end="5120" vehsPerHour="231.23214382961163" departLane="free"/>
  <flow id="JF437740" begin="5060" fromJunction="J4" toJunction="J0" end="5120" vehsPerHour="82.04446182242275" departLane="free"/>
  <flow id="JF437741" begin="5060" fromJunction="J4" toJunction="J3" end="5120" vehsPerHour="254.63441972668366" departLane="free"/>
  <flow id="JF437742" begin="5060" fromJunction="J4" toJunction="J5" end="5120" vehsPerHour="209.18591593062652" departLane="free"/>
  <flow id="JF437743" begin="5060" fromJunction="J4" toJunction="J6" end="5120" vehsPerHour="45.78314365846177" departLane="free"/>
  <flow id="JF437744" begin="5060" fromJunction="J4" toJunction="J7" end="5120" vehsPerHour="32.362973288234485" departLane="free"/>
  <flow id="JF437745" begin="5060" fromJunction="J5" toJunction="J0" end="5120" vehsPerHour="63.86322619190189" departLane="free"/>
  <flow id="JF437746" begin="5060" fromJunction="J5" toJunction="J3" end="5120" vehsPerHour="22.40897170881424" departLane="free"/>
  <flow id="JF437747" begin="5060" fromJunction="J5" toJunction="J4" end="5120" vehsPerHour="37.790805015348575" departLane="free"/>
  <flow id="JF437748" begin="5060" fromJunction="J5" toJunction="J7" end="5120" vehsPerHour="111.26215144113279" departLane="free"/>
  <flow id="JF437749" begin="5060" fromJunction="J6" toJunction="J0" end="5120" vehsPerHour="54.370053720016095" departLane="free"/>
  <flow id="JF437750" begin="5060" fromJunction="J6" toJunction="J4" end="5120" vehsPerHour="67.3141143478656" departLane="free"/>
  <flow id="JF437751" begin="5060" fromJunction="J6" toJunction="J7" end="5120" vehsPerHour="233.7113030471879" departLane="free"/>
  <flow id="JF437752" begin="5060" fromJunction="J7" toJunction="J0" end="5120" vehsPerHour="198.73748582850476" departLane="free"/>
  <flow id="JF437753" begin="5060" fromJunction="J7" toJunction="J5" end="5120" vehsPerHour="222.4870631468905" departLane="free"/>
  <flow id="JF437754" begin="5060" fromJunction="J7" toJunction="J6" end="5120" vehsPerHour="27.9832717594574" departLane="free"/>
  <flow id="JF437755" begin="5120" fromJunction="J0" toJunction="J4" end="5180" vehsPerHour="100.21897259970885" departLane="free"/>
  <flow id="JF437756" begin="5120" fromJunction="J0" toJunction="J6" end="5180" vehsPerHour="438.4324980483654" departLane="free"/>
  <flow id="JF437757" begin="5120" fromJunction="J0" toJunction="J7" end="5180" vehsPerHour="10.78960599424286" departLane="free"/>
  <flow id="JF437758" begin="5120" fromJunction="J3" toJunction="J0" end="5180" vehsPerHour="490.4073942729057" departLane="free"/>
  <flow id="JF437759" begin="5120" fromJunction="J3" toJunction="J5" end="5180" vehsPerHour="497.18089883599794" departLane="free"/>
  <flow id="JF437760" begin="5120" fromJunction="J3" toJunction="J6" end="5180" vehsPerHour="254.17125702154087" departLane="free"/>
  <flow id="JF437761" begin="5120" fromJunction="J3" toJunction="J7" end="5180" vehsPerHour="227.92494185760881" departLane="free"/>
  <flow id="JF437762" begin="5120" fromJunction="J4" toJunction="J0" end="5180" vehsPerHour="103.28077082935894" departLane="free"/>
  <flow id="JF437763" begin="5120" fromJunction="J4" toJunction="J3" end="5180" vehsPerHour="184.735913585402" departLane="free"/>
  <flow id="JF437764" begin="5120" fromJunction="J4" toJunction="J5" end="5180" vehsPerHour="77.21492614959688" departLane="free"/>
  <flow id="JF437765" begin="5120" fromJunction="J4" toJunction="J6" end="5180" vehsPerHour="133.67421902596945" departLane="free"/>
  <flow id="JF437766" begin="5120" fromJunction="J4" toJunction="J7" end="5180" vehsPerHour="60.55695352120669" departLane="free"/>
  <flow id="JF437767" begin="5120" fromJunction="J5" toJunction="J6" end="5180" vehsPerHour="136.3334147437498" departLane="free"/>
  <flow id="JF437768" begin="5120" fromJunction="J6" toJunction="J0" end="5180" vehsPerHour="242.9952390610702" departLane="free"/>
  <flow id="JF437769" begin="5120" fromJunction="J6" toJunction="J3" end="5180" vehsPerHour="274.5926070931824" departLane="free"/>
  <flow id="JF437770" begin="5120" fromJunction="J6" toJunction="J4" end="5180" vehsPerHour="208.85640197249182" departLane="free"/>
  <flow id="JF437771" begin="5120" fromJunction="J7" toJunction="J3" end="5180" vehsPerHour="10.02100793657247" departLane="free"/>
  <flow id="JF437772" begin="5120" fromJunction="J7" toJunction="J4" end="5180" vehsPerHour="39.502040909425894" departLane="free"/>
  <flow id="JF437773" begin="5120" fromJunction="J7" toJunction="J5" end="5180" vehsPerHour="88.77659947052639" departLane="free"/>
  <flow id="JF437774" begin="5180" fromJunction="J0" toJunction="J3" end="5240" vehsPerHour="515.0053319315424" departLane="free"/>
  <flow id="JF437775" begin="5180" fromJunction="J0" toJunction="J4" end="5240" vehsPerHour="216.3447281722819" departLane="free"/>
  <flow id="JF437776" begin="5180" fromJunction="J0" toJunction="J7" end="5240" vehsPerHour="351.40139857093044" departLane="free"/>
  <flow id="JF437777" begin="5180" fromJunction="J3" toJunction="J4" end="5240" vehsPerHour="378.4940445431412" departLane="free"/>
  <flow id="JF437778" begin="5180" fromJunction="J4" toJunction="J6" end="5240" vehsPerHour="162.90036907373653" departLane="free"/>
  <flow id="JF437779" begin="5180" fromJunction="J4" toJunction="J7" end="5240" vehsPerHour="43.09098429077371" departLane="free"/>
  <flow id="JF437780" begin="5180" fromJunction="J5" toJunction="J3" end="5240" vehsPerHour="152.76314103346002" departLane="free"/>
  <flow id="JF437781" begin="5180" fromJunction="J5" toJunction="J6" end="5240" vehsPerHour="110.62486687736921" departLane="free"/>
  <flow id="JF437782" begin="5180" fromJunction="J5" toJunction="J7" end="5240" vehsPerHour="212.76017221942217" departLane="free"/>
  <flow id="JF437783" begin="5180" fromJunction="J6" toJunction="J5" end="5240" vehsPerHour="190.57636209019495" departLane="free"/>
  <flow id="JF437784" begin="5180" fromJunction="J6" toJunction="J7" end="5240" vehsPerHour="175.32161475841477" departLane="free"/>
  <flow id="JF437785" begin="5180" fromJunction="J7" toJunction="J0" end="5240" vehsPerHour="257.626093102698" departLane="free"/>
  <flow id="JF437786" begin="5180" fromJunction="J7" toJunction="J4" end="5240" vehsPerHour="142.72949781216224" departLane="free"/>
  <flow id="JF437787" begin="5180" fromJunction="J7" toJunction="J5" end="5240" vehsPerHour="243.09847002836673" departLane="free"/>
  <flow id="JF437788" begin="5240" fromJunction="J0" toJunction="J3" end="5300" vehsPerHour="194.78365558462647" departLane="free"/>
  <flow id="JF437789" begin="5240" fromJunction="J0" toJunction="J4" end="5300" vehsPerHour="319.1330678626829" departLane="free"/>
  <flow id="JF437790" begin="5240" fromJunction="J0" toJunction="J5" end="5300" vehsPerHour="411.29348020267264" departLane="free"/>
  <flow id="JF437791" begin="5240" fromJunction="J0" toJunction="J6" end="5300" vehsPerHour="96.16822889381578" departLane="free"/>
  <flow id="JF437792" begin="5240" fromJunction="J0" toJunction="J7" end="5300" vehsPerHour="275.8751375540855" departLane="free"/>
  <flow id="JF437793" begin="5240" fromJunction="J3" toJunction="J0" end="5300" vehsPerHour="391.07615046174163" departLane="free"/>
  <flow id="JF437794" begin="5240" fromJunction="J3" toJunction="J4" end="5300" vehsPerHour="254.45956507762068" departLane="free"/>
  <flow id="JF437795" begin="5240" fromJunction="J3" toJunction="J7" end="5300" vehsPerHour="130.56803347855097" departLane="free"/>
  <flow id="JF437796" begin="5240" fromJunction="J4" toJunction="J0" end="5300" vehsPerHour="214.43277484019455" departLane="free"/>
  <flow id="JF437797" begin="5240" fromJunction="J4" toJunction="J3" end="5300" vehsPerHour="49.33909131970345" departLane="free"/>
  <flow id="JF437798" begin="5240" fromJunction="J4" toJunction="J7" end="5300" vehsPerHour="176.8301704637223" departLane="free"/>
  <flow id="JF437799" begin="5240" fromJunction="J5" toJunction="J0" end="5300" vehsPerHour="246.1572578426643" departLane="free"/>
  <flow id="JF437800" begin="5240" fromJunction="J5" toJunction="J3" end="5300" vehsPerHour="148.23939564610242" departLane="free"/>
  <flow id="JF437801" begin="5240" fromJunction="J5" toJunction="J6" end="5300" vehsPerHour="169.7875351459005" departLane="free"/>
  <flow id="JF437802" begin="5240" fromJunction="J5" toJunction="J7" end="5300" vehsPerHour="118.70894830728142" departLane="free"/>
  <flow id="JF437803" begin="5240" fromJunction="J6" toJunction="J0" end="5300" vehsPerHour="102.74654006158856" departLane="free"/>
  <flow id="JF437804" begin="5240" fromJunction="J6" toJunction="J3" end="5300" vehsPerHour="156.61837283220737" departLane="free"/>
  <flow id="JF437805" begin="5240" fromJunction="J6" toJunction="J4" end="5300" vehsPerHour="40.39283578074339" departLane="free"/>
  <flow id="JF437806" begin="5240" fromJunction="J6" toJunction="J5" end="5300" vehsPerHour="72.74736151287688" departLane="free"/>
  <flow id="JF437807" begin="5240" fromJunction="J7" toJunction="J0" end="5300" vehsPerHour="1.7005550456723026" departLane="free"/>
  <flow id="JF437808" begin="5240" fromJunction="J7" toJunction="J3" end="5300" vehsPerHour="155.32750569267031" departLane="free"/>
  <flow id="JF437809" begin="5240" fromJunction="J7" toJunction="J5" end="5300" vehsPerHour="144.5076142603768" departLane="free"/>
  <flow id="JF437810" begin="5300" fromJunction="J0" toJunction="J3" end="5360" vehsPerHour="86.73549486825814" departLane="free"/>
  <flow id="JF437811" begin="5300" fromJunction="J0" toJunction="J4" end="5360" vehsPerHour="26.94791844767728" departLane="free"/>
  <flow id="JF437812" begin="5300" fromJunction="J0" toJunction="J5" end="5360" vehsPerHour="530.0919646853255" departLane="free"/>
  <flow id="JF437813" begin="5300" fromJunction="J0" toJunction="J6" end="5360" vehsPerHour="290.57085422848985" departLane="free"/>
  <flow id="JF437814" begin="5300" fromJunction="J0" toJunction="J7" end="5360" vehsPerHour="233.29189652837883" departLane="free"/>
  <flow id="JF437815" begin="5300" fromJunction="J3" toJunction="J0" end="5360" vehsPerHour="90.5686426917664" departLane="free"/>
  <flow id="JF437816" begin="5300" fromJunction="J3" toJunction="J4" end="5360" vehsPerHour="513.8185317682711" departLane="free"/>
  <flow id="JF437817" begin="5300" fromJunction="J3" toJunction="J5" end="5360" vehsPerHour="409.1800954073762" departLane="free"/>
  <flow id="JF437818" begin="5300" fromJunction="J4" toJunction="J3" end="5360" vehsPerHour="135.55572502525317" departLane="free"/>
  <flow id="JF437819" begin="5300" fromJunction="J4" toJunction="J5" end="5360" vehsPerHour="74.51486052653057" departLane="free"/>
  <flow id="JF437820" begin="5300" fromJunction="J4" toJunction="J7" end="5360" vehsPerHour="75.83186173519867" departLane="free"/>
  <flow id="JF437821" begin="5300" fromJunction="J5" toJunction="J3" end="5360" vehsPerHour="104.91140431825899" departLane="free"/>
  <flow id="JF437822" begin="5300" fromJunction="J5" toJunction="J6" end="5360" vehsPerHour="123.01575397839547" departLane="free"/>
  <flow id="JF437823" begin="5300" fromJunction="J5" toJunction="J7" end="5360" vehsPerHour="55.49104381519835" departLane="free"/>
  <flow id="JF437824" begin="5300" fromJunction="J6" toJunction="J0" end="5360" vehsPerHour="90.53192335032723" departLane="free"/>
  <flow id="JF437825" begin="5300" fromJunction="J6" toJunction="J4" end="5360" vehsPerHour="260.58995281848024" departLane="free"/>
  <flow id="JF437826" begin="5300" fromJunction="J7" toJunction="J0" end="5360" vehsPerHour="171.62048321714855" departLane="free"/>
  <flow id="JF437827" begin="5300" fromJunction="J7" toJunction="J3" end="5360" vehsPerHour="59.678869916159385" departLane="free"/>
  <flow id="JF437828" begin="5300" fromJunction="J7" toJunction="J4" end="5360" vehsPerHour="201.44078948230913" departLane="free"/>
  <flow id="JF437829" begin="5360" fromJunction="J0" toJunction="J5" end="5420" vehsPerHour="186.28946251170834" departLane="free"/>
  <flow id="JF437830" begin="5360" fromJunction="J0" toJunction="J6" end="5420" vehsPerHour="23.644757061902553" departLane="free"/>
  <flow id="JF437831" begin="5360" fromJunction="J3" toJunction="J0" end="5420" vehsPerHour="426.4197950951089" departLane="free"/>
  <flow id="JF437832" begin="5360" fromJunction="J3" toJunction="J4" end="5420" vehsPerHour="508.566747548151" departLane="free"/>
  <flow id="JF437833" begin="5360" fromJunction="J3" toJunction="J5" end="5420" vehsPerHour="307.0712078474504" departLane="free"/>
  <flow id="JF437834" begin="5360" fromJunction="J3" toJunction="J6" end="5420" vehsPerHour="271.75663116252116" departLane="free"/>
  <flow id="JF437835" begin="5360" fromJunction="J3" toJunction="J7" end="5420" vehsPerHour="278.36983105856297" departLane="free"/>
  <flow id="JF437836" begin="5360" fromJunction="J4" toJunction="J0" end="5420" vehsPerHour="105.82572940861685" departLane="free"/>
  <flow id="JF437837" begin="5360" fromJunction="J4" toJunction="J3" end="5420" vehsPerHour="150.75646070777907" departLane="free"/>
  <flow id="JF437838" begin="5360" fromJunction="J4" toJunction="J5" end="5420" vehsPerHour="217.48290999575119" departLane="free"/>
  <flow id="JF437839" begin="5360" fromJunction="J4" toJunction="J6" end="5420" vehsPerHour="183.02256602931095" departLane="free"/>
  <flow id="JF437840" begin="5360" fromJunction="J4" toJunction="J7" end="5420" vehsPerHour="142.92479437820455" departLane="free"/>
  <flow id="JF437841" begin="5360" fromJunction="J5" toJunction="J3" end="5420" vehsPerHour="31.025669358424924" departLane="free"/>
  <flow id="JF437842" begin="5360" fromJunction="J5" toJunction="J4" end="5420" vehsPerHour="121.88743446833072" departLane="free"/>
  <flow id="JF437843" begin="5360" fromJunction="J6" toJunction="J0" end="5420" vehsPerHour="248.55878837388528" departLane="free"/>
  <flow id="JF437844" begin="5360" fromJunction="J6" toJunction="J3" end="5420" vehsPerHour="237.2449040407136" departLane="free"/>
  <flow id="JF437845" begin="5360" fromJunction="J6" toJunction="J4" end="5420" vehsPerHour="63.99762071148224" departLane="free"/>
  <flow id="JF437846" begin="5360" fromJunction="J6" toJunction="J7" end="5420" vehsPerHour="246.08657659400265" departLane="free"/>
  <flow id="JF437847" begin="5360" fromJunction="J7" toJunction="J0" end="5420" vehsPerHour="240.68087785257768" departLane="free"/>
  <flow id="JF437848" begin="5360" fromJunction="J7" toJunction="J3" end="5420" vehsPerHour="204.6862231430808" departLane="free"/>
  <flow id="JF437849" begin="5360" fromJunction="J7" toJunction="J4" end="5420" vehsPerHour="50.81012879524554" departLane="free"/>
  <flow id="JF437850" begin="5360" fromJunction="J7" toJunction="J5" end="5420" vehsPerHour="210.84960163240768" departLane="free"/>
  <flow id="JF437851" begin="5360" fromJunction="J7" toJunction="J6" end="5420" vehsPerHour="193.03924014397958" departLane="free"/>
  <flow id="JF437852" begin="5420" fromJunction="J0" toJunction="J3" end="5480" vehsPerHour="290.2876990609013" departLane="free"/>
  <flow id="JF437853" begin="5420" fromJunction="J0" toJunction="J4" end="5480" vehsPerHour="265.0104889643309" departLane="free"/>
  <flow id="JF437854" begin="5420" fromJunction="J0" toJunction="J5" end="5480" vehsPerHour="389.5472301924852" departLane="free"/>
  <flow id="JF437855" begin="5420" fromJunction="J0" toJunction="J7" end="5480" vehsPerHour="526.2046041612921" departLane="free"/>
  <flow id="JF437856" begin="5420" fromJunction="J3" toJunction="J4" end="5480" vehsPerHour="51.550929040668635" departLane="free"/>
  <flow id="JF437857" begin="5420" fromJunction="J3" toJunction="J6" end="5480" vehsPerHour="5.77315787538765" departLane="free"/>
  <flow id="JF437858" begin="5420" fromJunction="J3" toJunction="J7" end="5480" vehsPerHour="402.7807872576555" departLane="free"/>
  <flow id="JF437859" begin="5420" fromJunction="J4" toJunction="J0" end="5480" vehsPerHour="244.32190779398337" departLane="free"/>
  <flow id="JF437860" begin="5420" fromJunction="J4" toJunction="J3" end="5480" vehsPerHour="270.7079317236998" departLane="free"/>
  <flow id="JF437861" begin="5420" fromJunction="J4" toJunction="J5" end="5480" vehsPerHour="231.99540957597767" departLane="free"/>
  <flow id="JF437862" begin="5420" fromJunction="J4" toJunction="J6" end="5480" vehsPerHour="231.08070331246375" departLane="free"/>
  <flow id="JF437863" begin="5420" fromJunction="J5" toJunction="J0" end="5480" vehsPerHour="152.45881366886593" departLane="free"/>
  <flow id="JF437864" begin="5420" fromJunction="J5" toJunction="J3" end="5480" vehsPerHour="131.77705878275023" departLane="free"/>
  <flow id="JF437865" begin="5420" fromJunction="J5" toJunction="J4" end="5480" vehsPerHour="210.42449008171454" departLane="free"/>
  <flow id="JF437866" begin="5420" fromJunction="J5" toJunction="J6" end="5480" vehsPerHour="23.33506219775511" departLane="free"/>
  <flow id="JF437867" begin="5420" fromJunction="J6" toJunction="J0" end="5480" vehsPerHour="176.0725418876386" departLane="free"/>
  <flow id="JF437868" begin="5420" fromJunction="J6" toJunction="J3" end="5480" vehsPerHour="19.705687827931555" departLane="free"/>
  <flow id="JF437869" begin="5420" fromJunction="J6" toJunction="J4" end="5480" vehsPerHour="224.55923529404777" departLane="free"/>
  <flow id="JF437870" begin="5420" fromJunction="J6" toJunction="J7" end="5480" vehsPerHour="228.97263429233323" departLane="free"/>
  <flow id="JF437871" begin="5420" fromJunction="J7" toJunction="J0" end="5480" vehsPerHour="119.91976977552706" departLane="free"/>
  <flow id="JF437872" begin="5420" fromJunction="J7" toJunction="J4" end="5480" vehsPerHour="173.26675868795525" departLane="free"/>
  <flow id="JF437873" begin="5420" fromJunction="J7" toJunction="J5" end="5480" vehsPerHour="240.2906331226069" departLane="free"/>
  <flow id="JF437874" begin="5420" fromJunction="J7" toJunction="J6" end="5480" vehsPerHour="256.2054792945671" departLane="free"/>
  <flow id="JF437875" begin="5480" fromJunction="J0" toJunction="J3" end="5540" vehsPerHour="423.0281433587434" departLane="free"/>
  <flow id="JF437876" begin="5480" fromJunction="J0" toJunction="J4" end="5540" vehsPerHour="39.73146320386758" departLane="free"/>
  <flow id="JF437877" begin="5480" fromJunction="J0" toJunction="J7" end="5540" vehsPerHour="438.7150723820762" departLane="free"/>
  <flow id="JF437878" begin="5480" fromJunction="J3" toJunction="J0" end="5540" vehsPerHour="88.72652813416158" departLane="free"/>
  <flow id="JF437879" begin="5480" fromJunction="J3" toJunction="J4" end="5540" vehsPerHour="445.5536530032124" departLane="free"/>
  <flow id="JF437880" begin="5480" fromJunction="J3" toJunction="J5" end="5540" vehsPerHour="38.77517557805022" departLane="free"/>
  <flow id="JF437881" begin="5480" fromJunction="J3" toJunction="J7" end="5540" vehsPerHour="321.8749825860868" departLane="free"/>
  <flow id="JF437882" begin="5480" fromJunction="J4" toJunction="J0" end="5540" vehsPerHour="239.3385838352734" departLane="free"/>
  <flow id="JF437883" begin="5480" fromJunction="J4" toJunction="J3" end="5540" vehsPerHour="138.62104535046532" departLane="free"/>
  <flow id="JF437884" begin="5480" fromJunction="J4" toJunction="J6" end="5540" vehsPerHour="69.33290182793952" departLane="free"/>
  <flow id="JF437885" begin="5480" fromJunction="J4" toJunction="J7" end="5540" vehsPerHour="222.5001620933033" departLane="free"/>
  <flow id="JF437886" begin="5480" fromJunction="J5" toJunction="J4" end="5540" vehsPerHour="104.07495741774409" departLane="free"/>
  <flow id="JF437887" begin="5480" fromJunction="J5" toJunction="J6" end="5540" vehsPerHour="114.1791586499154" departLane="free"/>
  <flow id="JF437888" begin="5480" fromJunction="J6" toJunction="J0" end="5540" vehsPerHour="139.27401674982696" departLane="free"/>
  <flow id="JF437889" begin="5480" fromJunction="J6" toJunction="J5" end="5540" vehsPerHour="23.26833505323123" departLane="free"/>
  <flow id="JF437890" begin="5480" fromJunction="J7" toJunction="J0" end="5540" vehsPerHour="247.63678527525812" departLane="free"/>
  <flow id="JF437891" begin="5480" fromJunction="J7" toJunction="J3" end="5540" vehsPerHour="264.48856584920287" departLane="free"/>
  <flow id="JF437892" begin="5480" fromJunction="J7" toJunction="J4" end="5540" vehsPerHour="0.7135836634020656" departLane="free"/>
  <flow id="JF437893" begin="5480" fromJunction="J7" toJunction="J5" end="5540" vehsPerHour="60.16946673961963" departLane="free"/>
  <flow id="JF437894" begin="5540" fromJunction="J0" toJunction="J3" end="5600" vehsPerHour="67.10923334414092" departLane="free"/>
  <flow id="JF437895" begin="5540" fromJunction="J0" toJunction="J4" end="5600" vehsPerHour="355.81070025851614" departLane="free"/>
  <flow id="JF437896" begin="5540" fromJunction="J0" toJunction="J5" end="5600" vehsPerHour="16.000160742074538" departLane="free"/>
  <flow id="JF437897" begin="5540" fromJunction="J0" toJunction="J7" end="5600" vehsPerHour="383.3480235320064" departLane="free"/>
  <flow id="JF437898" begin="5540" fromJunction="J3" toJunction="J0" end="5600" vehsPerHour="255.25475726483492" departLane="free"/>
  <flow id="JF437899" begin="5540" fromJunction="J3" toJunction="J4" end="5600" vehsPerHour="263.07314900667075" departLane="free"/>
  <flow id="JF437900" begin="5540" fromJunction="J3" toJunction="J5" end="5600" vehsPerHour="220.49781567489444" departLane="free"/>
  <flow id="JF437901" begin="5540" fromJunction="J3" toJunction="J6" end="5600" vehsPerHour="376.7419221503742" departLane="free"/>
  <flow id="JF437902" begin="5540" fromJunction="J4" toJunction="J3" end="5600" vehsPerHour="166.03973894749572" departLane="free"/>
  <flow id="JF437903" begin="5540" fromJunction="J4" toJunction="J5" end="5600" vehsPerHour="234.52732822781167" departLane="free"/>
  <flow id="JF437904" begin="5540" fromJunction="J4" toJunction="J6" end="5600" vehsPerHour="157.2807575592843" departLane="free"/>
  <flow id="JF437905" begin="5540" fromJunction="J5" toJunction="J4" end="5600" vehsPerHour="64.42714622872292" departLane="free"/>
  <flow id="JF437906" begin="5540" fromJunction="J5" toJunction="J7" end="5600" vehsPerHour="133.36303612853567" departLane="free"/>
  <flow id="JF437907" begin="5540" fromJunction="J6" toJunction="J0" end="5600" vehsPerHour="71.9526822360992" departLane="free"/>