<?xml version="1.0" encoding="UTF-8"?>
<routes xmlns:xsi="http://www.w3.org/2001/XMLSchema-instance" xsi:noNamespaceSchemaLocation="http://sumo.dlr.de/xsd/routes_file.xsd">
  <flow id="JF439433" begin="0" fromJunction="J3" toJunction="J0" end="5000" vehsPerHour="320.38242392908865" departLane="free"/>
  <flow id="JF439434" begin="0" fromJunction="J0" toJunction="J3" end="5000" vehsPerHour="1037.5865040842298" departLane="free"/>
  <flow id="JF439435" begin="0" fromJunction="J3" toJunction="J6" end="5000" vehsPerHour="165.66666449531257" departLane="free"/>
  <flow id="JF439436" begin="0" fromJunction="J3" toJunction="J5" end="5000" vehsPerHour="395.5064531853263" departLane="free"/>
  <flow id="JF439437" begin="0" fromJunction="J3" toJunction="J4" end="5000" vehsPerHour="460.09249146141593" departLane="free"/>
  <flow id="JF439438" begin="0" fromJunction="J3" toJunction="J7" end="5000" vehsPerHour="72.3485450269446" departLane="free"/>
  <flow id="JF439439" begin="0" fromJunction="J0" toJunction="J6" end="5000" vehsPerHour="500.67474336077896" departLane="free"/>
  <flow id="JF439440" begin="0" fromJunction="J0" toJunction="J5" end="5000" vehsPerHour="402.7860538322524" departLane="free"/>
  <flow id="JF439441" begin="0" fromJunction="J0" toJunction="J4" end="5000" vehsPerHour="440.92029010992684" departLane="free"/>
  <flow id="JF439442" begin="0" fromJunction="J0" toJunction="J7" end="5000" vehsPerHour="116.02438638562731" departLane="free"/>
  <flow id="JF439443" begin="0" fromJunction="J6" toJunction="J5" end="5000" vehsPerHour="137.88825768062628" departLane="free"/>
  <flow id="JF439444" begin="0" fromJunction="J6" toJunction="J4" end="5000" vehsPerHour="171.34947534804402" departLane="free"/>
  <flow id="JF439445" begin="0" fromJunction="J6" toJunction="J7" end="5000" vehsPerHour="241.93666784867932" departLane="free"/>
  <flow id="JF439446" begin="0" fromJunction="J5" toJunction="J6" end="5000" vehsPerHour="235.5839826142059" departLane="free"/>
  <flow id="JF439447" begin="0" fromJunction="J5" toJunction="J4" end="5000" vehsPerHour="222.5385050262073" departLane="free"/>
  <flow id="JF439448" begin="0" fromJunction="J5" toJunction="J7" end="5000" vehsPerHour="198.94697104963214" departLane="free"/>
  <flow id="JF439449" begin="0" fromJunction="J4" toJunction="J6" end="5000" vehsPerHour="203.1320206160326" departLane="free"/>
  <flow id="JF439450" begin="0" fromJunction="J4" toJunction="J5" end="5000" vehsPerHour="249.39480063251935" departLane="free"/>
  <flow id="JF439451" begin="0" fromJunction="J4" toJunction="J7" end="5000" vehsPerHour="48.90350905675881" departLane="free"/>
  <flow id="JF439452" begin="0" fromJunction="J7" toJunction="J6" end="5000" vehsPerHour="274.713355325051" departLane="free"/>
  <flow id="JF439453" begin="0" fromJunction="J7" toJunction="J5" end="5000" vehsPerHour="245.00863900758472" departLane="free"/>
  <flow id="JF439454" begin="0" fromJunction="J7" toJunction="J4" end="5000" vehsPerHour="208.25875621269572" departLane="free"/>
  <flow id="JF439455" begin="0" fromJunction="J6" toJunction="J3" end="5000" vehsPerHour="136.02421483174766" departLane="free"/>
  <flow id="JF439456" begin="0" fromJunction="J6" toJunction="J0" end="5000" vehsPerHour="178.50304014731014" departLane="free"/>
  <flow id="JF439457" begin="0" fromJunction="J5" toJunction="J3" end="5000" vehsPerHour="94.29126560589168" departLane="free"/>
  <flow id="JF439458" begin="0" fromJunction="J5" toJunction="J0" end="5000" vehsPerHour="30.114906672566526" departLane="free"/>
  <flow id="JF439459" begin="0" fromJunction="J4" toJunction="J3" end="5000" vehsPerHour="185.97580090736773" departLane="free"/>
  <flow id="JF439460" begin="0" fromJunction="J4" toJunction="J0" end="5000" vehsPerHour="209.01349714556403" departLane="free"/>
  <flow id="JF439461" begin="0" fromJunction="J7" toJunction="J3" end="5000" vehsPerHour="80.88622566127238" departLane="free"/>
  <flow id="JF439462" begin="0" fromJunction="J7" toJunction="J0" end="5000" vehsPerHour="251.2164963556231" departLane="free"/>
  <flow id="JF439463" begin="5000" fromJunction="J0" toJunction="J3" end="5060" vehsPerHour="250.6732962627875" departLane="free"/>
  <flow id="JF439464" begin="5000" fromJunction="J0" toJunction="J4" end="5060" vehsPerHour="169.62849428826576" departLane="free"/>
  <flow id="JF439465" begin="5000" fromJunction="J0" toJunction="J5" end="5060" vehsPerHour="96.2438081022245" departLane="free"/>
  <flow id="JF439466" begin="5000" fromJunction="J0" toJunction="J6" end="5060" vehsPerHour="125.37791044187406" departLane="free"/>
  <flow id="JF439467" begin="5000" fromJunction="J0" toJunction="J7" end="5060" vehsPerHour="388.05429496771484" departLane="free"/>
  <flow id="JF439468" begin="5000" fromJunction="J3" toJunction="J0" end="5060" vehsPerHour="80.2185698630268" departLane="free"/>
  <flow id="JF439469" begin="5000" fromJunction="J3" toJunction="J4" end="5060" vehsPerHour="501.8129239703721" departLane="free"/>
  <flow id="JF439470" begin="5000" fromJunction="J3" toJunction="J5" end="5060" vehsPerHour="307.86483399332167" departLane="free"/>
  <flow id="JF439471" begin="5000" fromJunction="J3" toJunction="J7" end="5060" vehsPerHour="31.912378391045046" departLane="free"/>
  <flow id="JF439472" begin="5000" fromJunction="J4" toJunction="J0" end="5060" vehsPerHour="223.56219254064334" departLane="free"/>
  <flow id="JF439473" begin="5000" fromJunction="J4" toJunction="J3" end="5060" vehsPerHour="244.69324706920642" departLane="free"/>
  <flow id="JF439474" begin="5000" fromJunction="J4" toJunction="J5" end="5060" vehsPerHour="169.44506381980688" departLane="free"/>
  <flow id="JF439475" begin="5000" fromJunction="J5" toJunction="J0" end="5060" vehsPerHour="220.2915071789005" departLane="free"/>
  <flow id="JF439476" begin="5000" fromJunction="J5" toJunction="J4" end="5060" vehsPerHour="25.19273590316994" departLane="free"/>
  <flow id="JF439477" begin="5000" fromJunction="J5" toJunction="J7" end="5060" vehsPerHour="243.0192187195389" departLane="free"/>
  <flow id="JF439478" begin="5000" fromJunction="J6" toJunction="J3" end="5060" vehsPerHour="240.96328179867174" departLane="free"/>
  <flow id="JF439479" begin="5000" fromJunction="J6" toJunction="J7" end="5060" vehsPerHour="232.49699625973835" departLane="free"/>
  <flow id="JF439480" begin="5000" fromJunction="J7" toJunction="J0" end="5060" vehsPerHour="158.31927230313525" departLane="free"/>
  <flow id="JF439481" begin="5000" fromJunction="J7" toJunction="J4" end="5060" vehsPerHour="108.01680869428685" departLane="free"/>
  <flow id="JF439482" begin="5000" fromJunction="J7" toJunction="J5" end="5060" vehsPerHour="36.988893786165264" departLane="free"/>
  <flow id="JF439483" begin="5000" fromJunction="J7" toJunction="J6" end="5060" vehsPerHour="101.21733117178375" departLane="free"/>
  <flow id="JF439484" begin="5060" fromJunction="J0" toJunction="J4" end="5120" vehsPerHour="294.49664545811976" departLane="free"/>
  <flow id="JF439485" begin="5060" fromJunction="J0" toJunction="J5" end="5120" vehsPerHour="455.72730086032414" departLane="free"/>
  <flow id="JF439486" begin="5060" fromJunction="J0" toJunction="J7" end="5120" vehsPerHour="44.081544287318394" departLane="free"/>
  <flow id="JF439487" begin="5060" fromJunction="J3" toJunction="J4" end="5120" vehsPerHour="211.7522051050897" departLane="free"/>
  <flow id="JF439488" begin="5060" fromJunction="J3" toJunction="J6" end="5120" vehsPerHour="447.2415645032537" departLane="free"/>
  <flow id="JF439489" begin="5060" fromJunction="J3" toJunction="J7" end="5120" vehsPerHour="62.58717299923431" departLane="free"/>
  <flow id="JF439490" begin="5060" fromJunction="J4" toJunction="J0" end="5120" vehsPerHour="132.1456442007782" departLane="free"/>
  <flow id="JF439491" begin="5060" fromJunction="J4" toJunction="J7" end="5120" vehsPerHour="138.0014110424666" departLane="free"/>
  <flow id="JF439492" begin="5060" fromJunction="J5" toJunction="J4" end="5120" vehsPerHour="95.32793087863335" departLane="free"/>
  <flow id="JF439493" begin="5060" fromJunction="J5" toJunction="J7" end="5120" vehsPerHour="5.9811646989575" departLane="free"/>
  <flow id="JF439494" begin="5060" fromJunction="J6" toJunction="J3" end="5120" vehsPerHour="204.33714845848357" departLane="free"/>
  <flow id="JF439495" begin="5060" fromJunction="J6" toJunction="J5" end="5120" vehsPerHour="177.85937009862636" departLane="free"/>
  <flow id="JF439496" begin="5060" fromJunction="J7" toJunction="J0" end="5120" vehsPerHour="193.58257755887774" departLane="free"/>
  <flow id="JF439497" begin="5060" fromJunction="J7" toJunction="J4" end="5120" vehsPerHour="50.93328396591868" departLane="free"/>
  <flow id="JF439498" begin="5060" fromJunction="J7" toJunction="J5" end="5120" vehsPerHour="194.93064802643022" departLane="free"/>
  <flow id="JF439499" begin="5120" fromJunction="J0" toJunction="J3" end="5180" vehsPerHour="403.8469285730543" departLane="free"/>
  <flow id="JF439500" begin="5120" fromJunction="J0" toJunction="J4" end="5180" vehsPerHour="286.5845284516323" departLane="free"/>
  <flow id="JF439501" begin="5120" fromJunction="J0" toJunction="J6" end="5180" vehsPerHour="83.49642360188443" departLane="free"/>
  <flow id="JF439502" begin="5120" fromJunction="J0" toJunction="J7" end="5180" vehsPerHour="467.51932228297864" departLane="free"/>
  <flow id="JF439503" begin="5120" fromJunction="J3" toJunction="J0" end="5180" vehsPerHour="527.5111737354986" departLane="free"/>
  <flow id="JF439504" begin="5120" fromJunction="J3" toJunction="J4" end="5180" vehsPerHour="93.09150624386412" departLane="free"/>
  <flow id="JF439505" begin="5120" fromJunction="J3" toJunction="J5" end="5180" vehsPerHour="382.8054362827122" departLane="free"/>
  <flow id="JF439506" begin="5120" fromJunction="J3" toJunction="J7" end="5180" vehsPerHour="111.3286007993081" departLane="free"/>
  <flow id="JF439507" begin="5120" fromJunction="J4" toJunction="J3" end="5180" vehsPerHour="262.2803822503988" departLane="free"/>
  <flow id="JF439508" begin="5120" fromJunction="J4" toJunction="J5" end="5180" vehsPerHour="171.93501279878438" departLane="free"/>
  <flow id="JF439509" begin="5120" fromJunction="J4" toJunction="J6" end="5180" vehsPerHour="266.7698486427608" departLane="free"/>
  <flow id="JF439510" begin="5120" fromJunction="J4" toJunction="J7" end="5180" vehsPerHour="240.26617146579008" departLane="free"/>
  <flow id="JF439511" begin="5120" fromJunction="J5" toJunction="J4" end="5180" vehsPerHour="134.7712504145742" departLane="free"/>
  <flow id="JF439512" begin="5120" fromJunction="J5" toJunction="J6" end="5180" vehsPerHour="79.84934403048409" departLane="free"/>
  <flow id="JF439513" begin="5120" fromJunction="J6" toJunction="J0" end="5180" vehsPerHour="133.045184310143" departLane="free"/>
  <flow id="JF439514" begin="5120" fromJunction="J6" toJunction="J3" end="5180" vehsPerHour="236.10220314195234" departLane="free"/>
  <flow id="JF439515" begin="5120" fromJunction="J6" toJunction="J4" end="5180" vehsPerHour="172.25973718445596" departLane="free"/>
  <flow id="JF439516" begin="5120" fromJunction="J6" toJunction="J5" end="5180" vehsPerHour="250.44898424696825" departLane="free"/>
  <flow id="JF439517" begin="5120" fromJunction="J6" toJunction="J7" end="5180" vehsPerHour="216.10182085949765" departLane="free"/>
  <flow id="JF439518" begin="5120" fromJunction="J7" toJunction="J3" end="5180" vehsPerHour="161.9891268050576" departLane="free"/>
  <flow id="JF439519" begin="5120" fromJunction="J7" toJunction="J4" end="5180" vehsPerHour="175.9942916281632" departLane="free"/>
  <flow id="JF439520" begin="5120" fromJunction="J7" toJunction="J5" end="5180" vehsPerHour="204.37235658264265" departLane="free"/>
  <flow id="JF439521" begin="5120" fromJunction="J7" toJunction="J6" end="5180" vehsPerHour="240.719666546122" departLane="free"/>
  <flow id="JF439522" begin="5180" fromJunction="J0" toJunction="J3" end="5240" vehsPerHour="533.4532647952442" departLane="free"/>
  <flow id="JF439523" begin="5180" fromJunction="J0" toJunction="J4" end="5240" vehsPerHour="253.35941173340612" departLane="free"/>
  <flow id="JF439524" begin="5180" fromJunction="J0" toJunction="J7" end="5240" vehsPerHour="133.28053657481777" departLane="free"/>
  <flow id="JF439525" begin="5180" fromJunction="J3" toJunction="J5" end="5240" vehsPerHour="355.6937188421235" departLane="free"/>
  <flow id="JF439526" begin="5180" fromJunction="J3" toJunction="J6" end="5240" vehsPerHour="111.01472689008209" departLane="free"/>
  <flow id="JF439527" begin="5180" fromJunction="J3" toJunction="J7" end="5240" vehsPerHour="191.13071666639604" departLane="free"/>
  <flow id="JF439528" begin="5180" fromJunction="J4" toJunction="J0" end="5240" vehsPerHour="210.04260366174518" departLane="free"/>
  <flow id="JF439529" begin="5180" fromJunction="J4" toJunction="J3" end="5240" vehsPerHour="228.6206780327777" departLane="free"/>
  <flow id="JF439530" begin="5180" fromJunction="J4" toJunction="J5" end="5240" vehsPerHour="273.394085232085" departLane="free"/>
  <flow id="JF439531" begin="5180" fromJunction="J4" toJunction="J7" end="5240" vehsPerHour="254.63079647618267" departLane="free"/>
  <flow id="JF439532" begin="5180" fromJunction="J5" toJunction="J0" end="5240" vehsPerHour="131.5232327185311" departLane="free"/>
  <flow id="JF439533" begin="5180" fromJunction="J5" toJunction="J4" end="5240" vehsPerHour="222.80235960856143" departLane="free"/>
  <flow id="JF439534" begin="5180" fromJunction="J5" toJunction="J6" end="5240" vehsPerHour="68.38056496918233" departLane="free"/>
  <flow id="JF439535" begin="5180" fromJunction="J5" toJunction="J7" end="5240" vehsPerHour="0.3843409759787103" departLane="free"/>
  <flow id="JF439536" begin="5180" fromJunction="J6" toJunction="J0" end="5240" vehsPerHour="235.54284653605296" departLane="free"/>
  <flow id="JF439537" begin="5180" fromJunction="J6" toJunction="J4" end="5240" vehsPerHour="40.97184382055306" departLane="free"/>
  <flow id="JF439538" begin="5180" fromJunction="J6" toJunction="J5" end="5240" vehsPerHour="86.12985611954689" departLane="free"/>
  <flow id="JF439539" begin="5180" fromJunction="J6" toJunction="J7" end="5240" vehsPerHour="82.48499870985891" departLane="free"/>
  <flow id="JF439540" begin="5180" fromJunction="J7" toJunction="J0" end="5240" vehsPerHour="195.92528768815438" departLane="free"/>
  <flow id="JF439541" begin="5180" fromJunction="J7" toJunction="J4" end="5240" vehsPerHour="258.66634577383843" departLane="free"/>
  <flow id="JF439542" begin="5180" fromJunction="J7" toJunction="J6" end="5240" vehsPerHour="169.15056483531737" departLane="free"/>
  <flow id="JF439543" begin="5240" fromJunction="J0" toJunction="J3" end="5300" vehsPerHour="88.95260565110033" departLane="free"/>
  <flow id="JF439544" begin="5240" fromJunction="J0" toJunction="J4" end="5300" vehsPerHour="43.620813212987336" departLane="free"/>
  <flow id="JF439545" begin="5240" fromJunction="J3" toJunction="J0" end="5300" vehsPerHour="396.04476829957696" departLane="free"/>
  <flow id="JF439546" begin="5240" fromJunction="J3" toJunction="J5" end="5300" vehsPerHour="421.519703543239" departLane="free"/>
  <flow id="JF439547" begin="5240" fromJunction="J3" toJunction="J6" end="5300" vehsPerHour="357.4879186957944" departLane="free"/>
  <flow id="JF439548" begin="5240" fromJunction="J3" toJunction="J7" end="5300" vehsPerHour="160.32567195897593" departLane="free"/>
  <flow id="JF439549" begin="5240" fromJunction="J4" toJunction="J3" end="5300" vehsPerHour="86.5545509533048" departLane="free"/>
  <flow id="JF439550" begin="5240" fromJunction="J4" toJunction="J5" end="5300" vehsPerHour="117.05262482384761" departLane="free"/>
  <flow id="JF439551" begin="5240" fromJunction="J4" toJunction="J6" end="5300" vehsPerHour="165.00670198706248" departLane="free"/>
  <flow id="JF439552" begin="5240" fromJunction="J4" toJunction="J7" end="5300" vehsPerHour="95.89142400641758" departLane="free"/>
  <flow id="JF439553" begin="5240" fromJunction="J5" toJunction="J0" end="5300" vehsPerHour="146.50848256524293" departLane="free"/>
  <flow id="JF439554" begin="5240" fromJunction="J5" toJunction="J3" end="5300" vehsPerHour="268.942869558244" departLane="free"/>
  <flow id="JF439555" begin="5240" fromJunction="J5" toJunction="J4" end="5300" vehsPerHour="157.53731407849187" departLane="free"/>
  <flow id="JF439556" begin="5240" fromJunction="J5" toJunction="J7" end="5300" vehsPerHour="177.02122159245147" departLane="free"/>
  <flow id="JF439557" begin="5240" fromJunction="J6" toJunction="J0" end="5300" vehsPerHour="210.76428387141712" departLane="free"/>
  <flow id="JF439558" begin="5240" fromJunction="J6" toJunction="J3" end="5300" vehsPerHour="257.3389182024402" departLane="free"/>
  <flow id="JF439559" begin="5240" fromJunction="J6" toJunction="J4" end="5300" vehsPerHour="69.24491515675585" departLane="free"/>
  <flow id="JF439560" begin="5240" fromJunction="J6" toJunction="J5" end="5300" vehsPerHour="203.00063449955178" departLane="free"/>
  <flow id="JF439561" begin="5240" fromJunction="J6" toJunction="J7" end="5300" vehsPerHour="36.7779036791388" departLane="free"/>
  <flow id="JF439562" begin="5240" fromJunction="J7" toJunction="J0" end="5300" vehsPerHour="274.4524580737982" departLane="free"/>
  <flow id="JF439563" begin="5240" fromJunction="J7" toJunction="J3" end="5300" vehsPerHour="97.03354780264577" departLane="free"/>
  <flow id="JF439564" begin="5240" fromJunction="J7" toJunction="J4" end="5300" vehsPerHour="169.31010497078753" departLane="free"/>
  <flow id="JF439565" begin="5240" fromJunction="J7" toJunction="J5" end="5300" vehsPerHour="9.494605488865911" departLane="free"/>
  <flow id="JF439566" begin="5240" fromJunction="J7" toJunction="J6" end="5300" vehsPerHour="102.09556101026173" departLane="free"/>
  <flow id="JF439567" begin="5300" fromJunction="J0" toJunction="J3" end="5360" vehsPerHour="435.1066287320228" departLane="free"/>
  <flow id="JF439568" begin="5300" fromJunction="J0" toJunction="J4" end="5360" vehsPerHour="194.31327744903464" departLane="free"/>
  <flow id="JF439569" begin="5300" fromJunction="J0" toJunction="J5" end="5360" vehsPerHour="346.63075892008357" departLane="free"/>
  <flow id="JF439570" begin="5300" fromJunction="J0" toJunction="J6" end="5360" vehsPerHour="501.70035217160824" departLane="free"/>
  <flow id="JF439571" begin="5300" fromJunction="J0" toJunction="J7" end="5360" vehsPerHour="90.03038963924133" departLane="free"/>
  <flow id="JF439572" begin="5300" fromJunction="J3" toJunction="J0" end="5360" vehsPerHour="242.84229239478276" departLane="free"/>
  <flow id="JF439573" begin="5300" fromJunction="J3" toJunction="J4" end="5360" vehsPerHour="305.48916837963344" departLane="free"/>
  <flow id="JF439574" begin="5300" fromJunction="J3" toJunction="J6" end="5360" vehsPerHour="323.9352877981193" departLane="free"/>
  <flow id="JF439575" begin="5300" fromJunction="J4" toJunction="J0" end="5360" vehsPerHour="216.68906248172897" departLane="free"/>
  <flow id="JF439576" begin="5300" fromJunction="J4" toJunction="J3" end="5360" vehsPerHour="175.14006201074852" departLane="free"/>
  <flow id="JF439577" begin="5300" fromJunction="J4" toJunction="J7" end="5360" vehsPerHour="9.941707545295309" departLane="free"/>
  <flow id="JF439578" begin="5300" fromJunction="J5" toJunction="J0" end="5360" vehsPerHour="224.1407597252637" departLane="free"/>
  <flow id="JF439579" begin="5300" fromJunction="J5" toJunction="J3" end="5360" vehsPerHour="73.42337382726626" departLane="free"/>
  <flow id="JF439580" begin="5300" fromJunction="J5" toJunction="J4" end="5360" vehsPerHour="133.36462083254128" departLane="free"/>
  <flow id="JF439581" begin="5300" fromJunction="J5" toJunction="J7" end="5360" vehsPerHour="116.56691060772754" departLane="free"/>
  <flow id="JF439582" begin="5300" fromJunction="J6" toJunction="J4" end="5360" vehsPerHour="19.457484741276623" departLane="free"/>
  <flow id="JF439583" begin="5300" fromJunction="J6" toJunction="J5" end="5360" vehsPerHour="88.38734801045501" departLane="free"/>
  <flow id="JF439584" begin="5300" fromJunction="J7" toJunction="J0" end="5360" vehsPerHour="93.74045600750182" departLane="free"/>
  <flow id="JF439585" begin="5300" fromJunction="J7" toJunction="J4" end="5360" vehsPerHour="152.83721320639665" departLane="free"/>
  <flow id="JF439586" begin="5300" fromJunction="J7" toJunction="J5" end="5360" vehsPerHour="214.1823396226999" departLane="free"/>
  <flow id="JF439587" begin="5300" fromJunction="J7" toJunction="J6" end="5360" vehsPerHour="30.563985864661017" departLane="free"/>
  <flow id="JF439588" begin="5360" fromJunction="J0" toJunction="J6" end="5420" vehsPerHour="461.4186821550315" departLane="free"/>
  <flow id="JF439589" begin="5360" fromJunction="J3" toJunction="J0" end="5420" vehsPerHour="172.2344280979361" departLane="free"/>
  <flow id="JF439590" begin="5360" fromJunction="J3" toJunction="J4" end="5420" vehsPerHour="491.25360290070586" departLane="free"/>
  <flow id="JF439591" begin="5360" fromJunction="J3" toJunction="J5" end="5420" vehsPerHour="469.02447807685576" departLane="free"/>
  <flow id="JF439592" begin="5360" fromJunction="J3" toJunction="J7" end="5420" vehsPerHour="275.0925697690482" departLane="free"/>
  <flow id="JF439593" begin="5360" fromJunction="J4" toJunction="J3" end="5420" vehsPerHour="273.9444702004868" departLane="free"/>
  <flow id="JF439594" begin="5360" fromJunction="J4" toJunction="J5" end="5420" vehsPerHour="210.01282891422971" departLane="free"/>
  <flow id="JF439595" begin="5360" fromJunction="J4" toJunction="J7" end="5420" vehsPerHour="150.9204601408439" departLane="free"/>
  <flow id="JF439596" begin="5360" fromJunction="J5" toJunction="J3" end="5420" vehsPerHour="256.63620893348957" departLane="free"/>
  <flow id="JF439597" begin="5360" fromJunction="J5" toJunction="J6" end="5420" vehsPerHour="216.47338277446457" departLane="free"/>
  <flow id="JF439598" begin="5360" fromJunction="J5" toJunction="J7" end="5420" vehsPerHour="101.08779578970577" departLane="free"/>
  <flow id="JF439599" begin="5360" fromJunction="J6" toJunction="J0" end="5420" vehsPerHour="98.41152799199402" departLane="free"/>
  <flow id="JF439600" begin="5360" fromJunction="J6" toJunction="J5" end="5420" vehsPerHour="225.3178559325898" departLane="free"/>
  <flow id="JF439601" begin="5360" fromJunction="J7" toJunction="J0" end="5420" vehsPerHour="68.11295962825251" departLane="free"/>
  <flow id="JF439602" begin="5360" fromJunction="J7" toJunction="J4" end="5420" vehsPerHour="144.51733208704212" departLane="free"/>
  <flow id="JF439603" begin="5360" fromJunction="J7" toJunction="J5" end="5420" vehsPerHour="135.37424215559287" departLane="free"/>
  <flow id="JF439604" begin="5420" fromJunction="J0" toJunction="J3" end="5480" vehsPerHour="415.4562367894666" departLane="free"/>
  <flow id="JF439605" begin="5420" fromJunction="J0" toJunction="J4" end="5480" vehsPerHour="448.4054536657473" departLane="free"/>
  <flow id="JF439606" begin="5420" fromJunction="J0" toJunction="J6" end="5480" vehsPerHour="233.9417475978541" departLane="free"/>
  <flow id="JF439607" begin="5420" fromJunction="J3" toJunction="J4" end="5480" vehsPerHour="152.42072012510292" departLane="free"/>
  <flow id="JF439608" begin="5420" fromJunction="J3" toJunction="J6" end="5480" vehsPerHour="334.8571813878194" departLane="free"/>
  <flow id="JF439609" begin="5420" fromJunction="J4" toJunction="J0" end="5480" vehsPerHour="187.39709647467237" departLane="free"/>
  <flow id="JF439610" begin="5420" fromJunction="J4" toJunction="J3" end="5480" vehsPerHour="202.1720497664067" departLane="free"/>
  <flow id="JF439611" begin="5420" fromJunction="J4" toJunction="J5" end="5480" vehsPerHour="20.816213763618297" departLane="free"/>
  <flow id="JF439612" begin="5420" fromJunction="J4" toJunction="J6" end="5480" vehsPerHour="150.59088081899625" departLane="free"/>
  <flow id="JF439613" begin="5420" fromJunction="J5" toJunction="J0" end="5480" vehsPerHour="129.72085391008983" departLane="free"/>
  <flow id="JF439614" begin="5420" fromJunction="J5" toJunction="J3" end="5480" vehsPerHour="174.94489412049117" departLane="free"/>
  <flow id="JF439615" begin="5420" fromJunction="J5" toJunction="J4" end="5480" vehsPerHour="149.8112311840195" departLane="free"/>
  <flow id="JF439616" begin="5420" fromJunction="J5" toJunction="J6" end="5480" vehsPerHour="206.54473303555642" departLane="free"/>
  <flow id="JF439617" begin="5420" fromJunction="J6" toJunction="J0" end="5480" vehsPerHour="161.74709322601635" departLane="free"/>
  <flow id="JF439618" begin="5420" fromJunction="J6" toJunction="J3" end="5480" vehsPerHour="111.04157443956834" departLane="free"/>
  <flow id="JF439619" begin="5420" fromJunction="J6" toJunction="J4" end="5480" vehsPerHour="51.69681817159052" departLane="free"/>
  <flow id="JF439620" begin="5420" fromJunction="J6" toJunction="J7" end="5480" vehsPerHour="139.7144955005322" departLane="free"/>
  <flow id="JF439621" begin="5420" fromJunction="J7" toJunction="J0" end="5480" vehsPerHour="224.9111200091343" departLane="free"/>
  <flow id="JF439622" begin="5420" fromJunction="J7" toJunction="J4" end="5480" vehsPerHour="211.1441973179141" departLane="free"/>
  <flow id="JF439623" begin="5420" fromJunction="J7" toJunction="J5" end="5480" vehsPerHour="243.51550527809894" departLane="free"/>
  <flow id="JF439624" begin="5420" fromJunction="J7" toJunction="J6" end="5480" vehsPerHour="65.84798243292357" departLane="free"/>
  <flow id="JF439625" begin="5480" fromJunction="J0" toJunction="J6" end="5540" vehsPerHour="376.9591204826121" departLane="free"/>
  <flow id="JF439626" begin="5480" fromJunction="J3" toJunction="J0" end="5540" vehsPerHour="515.9177524506129" departLane="free"/>
  <flow id="JF439627" begin="5480" fromJunction="J3" toJunction="J6" end="5540" vehsPerHour="494.6977111830374" departLane="free"/>
  <flow id="JF439628" begin="5480" fromJunction="J3" toJunction="J7" end="5540" vehsPerHour="367.16542617917554" departLane="free"/>
  <flow id="JF439629" begin="5480" fromJunction="J4" toJunction="J0" end="5540" vehsPerHour="206.86043819978534" departLane="free"/>
  <flow id="JF439630" begin="5480" fromJunction="J4" toJunction="J3" end="5540" vehsPerHour="67.08270239984206" departLane="free"/>
  <flow id="JF439631" begin="5480" fromJunction="J4" toJunction="J5" end="5540" vehsPerHour="87.04584160989907" departLane="free"/>
  <flow id="JF439632" begin="5480" fromJunction="J4" toJunction="J6" end="5540" vehsPerHour="185.82031033883575" departLane="free"/>
  <flow id="JF439633" begin="5480" fromJunction="J5" toJunction="J0" end="5540" vehsPerHour="250.32723376819587" departLane="free"/>
  <flow id="JF439634" begin="5480" fromJunction="J5" toJunction="J3" end="5540" vehsPerHour="22.721625185730097" departLane="free"/>
  <flow id="JF439635" begin="5480" fromJunction="J5" toJunction="J4" end="5540" vehsPerHour="105.62819539360319" departLane="free"/>
  <flow id="JF439636" begin="5480" fromJunction="J5" toJunction="J6" end="5540" vehsPerHour="258.25599047821913" departLane="free"/>
  <flow id="JF439637" begin="5480" fromJunction="J5" toJunction="J7" end="5540" vehsPerHour="265.48868596238094" departLane="free"/>
  <flow id="JF439638" begin="5480" fromJunction="J6" toJunction="J0" end="5540" vehsPerHour="203.06915307603322" departLane="free"/>
  <flow id="JF439639" begin="5480" fromJunction="J6" toJunction="J3" end="5540" vehsPerHour="16.76274207498511" departLane="free"/>
  <flow id="JF439640" begin="5480" fromJunction="J6" toJunction="J5" end="5540" vehsPerHour="263.386435819006" departLane="free"/>
  <flow id="JF439641" begin="5480" fromJunction="J6" toJunction="J7" end="5540" vehsPerHour="182.50015302304018" departLane="free"/>
  <flow id="JF439642" begin="5480" fromJunction="J7" toJunction="J0" end="5540" vehsPerHour="192.73449472150494" departLane="free"/>
  <flow id="JF439643" begin="5540" fromJunction="J0" toJunction="J4" end="5600" vehsPerHour="493.88262217365263" departLane="free"/>
  <flow id="JF439644" begin="5540" fromJunction="J3" toJunction="J0" end="5600" vehsPerHour="434.3813061914648" departLane="free"/>
  <flow id="JF439645" begin="5540" fromJunction="J3" toJunction="J4" end="5600" vehsPerHour="36.23993043620635" departLane="free"/>
  <flow id="JF439646" begin="5540" fromJunction="J3" toJunction="J6" end="5600" vehsPerHour="206.3125651577038" departLane="free"/>
  <flow id="JF439647" begin="5540" fromJunction="J4" toJunction="J0" end="5600" vehsPerHour="246.72887700545837" departLane="free"/>
  <flow id="JF439648" begin="5540" fromJunction="J4" toJunction="J3" end="5600" vehsPerHour="154.71294114969447" departLane="free"/>
  <flow id="JF439649" begin="5540" fromJunction="J4" toJunction="J5" end="5600" vehsPerHour="216.29906182569965" departLane="free"/>
  <flow id="JF439650" begin="5540" fromJunction="J4" toJunction="J6" end="5600" vehsPerHour="22.75095454083339" departLane="free"/>
  <flow id="JF439651" begin="5540" fromJunction="J4" toJunction="J7" end="5600" vehsPerHour="18.542397207946166" departLane="free"/>
  <flow id="JF439652" begin="5540" fromJunction="J5" toJunction="J3" end="5600" vehsPerHour="181.26039744091074" departLane="free"/>
  <flow id="JF439653" begin="5540" fromJunction="J5" toJunction="J4" end="5600" vehsPerHour="71.25515302082334" departLane="free"/>
  <flow id="JF439654" begin="5540" fromJunction="J5" toJunction="J7" end="5600" vehsPerHour="207.2677447011551" departLane="free"/>
  <flow id="JF439655" begin="5540" fromJunction="J6" toJunction="J0" end="5600" vehsPerHour="270.42660812953886" departLane="free"/>
  <flow id="JF439656" begin="5540" fromJunction="J6" toJunction="J3" end="5600" vehsPerHour="78.91085979875487" departLane="free"/>
  <flow id="JF439657" begin="5540" fromJunction="J6" toJunction="J4" end="5600" vehsPerHour="230.80642136565442" departLane="free"/>