<?xml version="1.0" encoding="UTF-8"?>
<routes xmlns:xsi="http://www.w3.org/2001/XMLSchema-instance" xsi:noNamespaceSchemaLocation="http://sumo.dlr.de/xsd/routes_file.xsd">
  <flow id="JF69842" begin="0" fromJunction="J0" toJunction="J5" end="60" vehsPerHour="401.44284023133366" departLane="free" arrivalSpeed="0.0"/>
  <flow id="JF69843" begin="0" fromJunction="J3" toJunction="J0" end="60" vehsPerHour="324.64356922311316" departLane="free" arrivalSpeed="0.0"/>
  <flow id="JF69844" begin="0" fromJunction="J3" toJunction="J4" end="60" vehsPerHour="524.3214683506194" departLane="free" arrivalSpeed="0.0"/>
  <flow id="JF69845" begin="0" fromJunction="J3" toJunction="J5" end="60" vehsPerHour="447.86268883279746" departLane="free" arrivalSpeed="0.0"/>
  <flow id="JF69846" begin="0" fromJunction="J3" toJunction="J6" end="60" vehsPerHour="163.83606612063232" departLane="free" arrivalSpeed="0.0"/>
  <flow id="JF69847" begin="0" fromJunction="J4" toJunction="J0" end="60" vehsPerHour="163.43273961293283" departLane="free" arrivalSpeed="0.0"/>
  <flow id="JF69848" begin="0" fromJunction="J4" toJunction="J3" end="60" vehsPerHour="180.04902905087422" departLane="free" arrivalSpeed="0.0"/>
  <flow id="JF69849" begin="0" fromJunction="J4" toJunction="J6" end="60" vehsPerHour="214.79770024735447" departLane="free" arrivalSpeed="0.0"/>
  <flow id="JF69850" begin="0" fromJunction="J4" toJunction="J7" end="60" vehsPerHour="22.584614237874135" departLane="free" arrivalSpeed="0.0"/>
  <flow id="JF69851" begin="0" fromJunction="J5" toJunction="J3" end="60" vehsPerHour="220.98381843523708" departLane="free" arrivalSpeed="0.0"/>
  <flow id="JF69852" begin="0" fromJunction="J5" toJunction="J4" end="60" vehsPerHour="106.22308586687905" departLane="free" arrivalSpeed="0.0"/>
  <flow id="JF69853" begin="0" fromJunction="J5" toJunction="J7" end="60" vehsPerHour="38.35894664199977" departLane="free" arrivalSpeed="0.0"/>
  <flow id="JF69854" begin="0" fromJunction="J6" toJunction="J0" end="60" vehsPerHour="167.3574404520424" departLane="free" arrivalSpeed="0.0"/>
  <flow id="JF69855" begin="0" fromJunction="J6" toJunction="J3" end="60" vehsPerHour="111.62634049341874" departLane="free" arrivalSpeed="0.0"/>
  <flow id="JF69856" begin="0" fromJunction="J6" toJunction="J4" end="60" vehsPerHour="140.03081601529058" departLane="free" arrivalSpeed="0.0"/>
  <flow id="JF69857" begin="0" fromJunction="J6" toJunction="J5" end="60" vehsPerHour="217.58459847506893" departLane="free" arrivalSpeed="0.0"/>
  <flow id="JF69858" begin="0" fromJunction="J6" toJunction="J7" end="60" vehsPerHour="240.68640878562778" departLane="free" arrivalSpeed="0.0"/>
  <flow id="JF69859" begin="0" fromJunction="J7" toJunction="J5" end="60" vehsPerHour="205.56954734185007" departLane="free" arrivalSpeed="0.0"/>
  <flow id="JF69860" begin="0" fromJunction="J7" toJunction="J6" end="60" vehsPerHour="54.05191952597273" departLane="free" arrivalSpeed="0.0"/>
  <flow id="JF69861" begin="60" fromJunction="J0" toJunction="J3" end="120" vehsPerHour="540.5506257023142" departLane="free" arrivalSpeed="0.0"/>
  <flow id="JF69862" begin="60" fromJunction="J0" toJunction="J4" end="120" vehsPerHour="1.7605319183413066" departLane="free" arrivalSpeed="0.0"/>
  <flow id="JF69863" begin="60" fromJunction="J0" toJunction="J5" end="120" vehsPerHour="0.032969355800683345" departLane="free" arrivalSpeed="0.0"/>
  <flow id="JF69864" begin="60" fromJunction="J0" toJunction="J6" end="120" vehsPerHour="388.9865221407811" departLane="free" arrivalSpeed="0.0"/>
  <flow id="JF69865" begin="60" fromJunction="J0" toJunction="J7" end="120" vehsPerHour="126.85038628364991" departLane="free" arrivalSpeed="0.0"/>
  <flow id="JF69866" begin="60" fromJunction="J3" toJunction="J0" end="120" vehsPerHour="220.12888968851988" departLane="free" arrivalSpeed="0.0"/>
  <flow id="JF69867" begin="60" fromJunction="J3" toJunction="J4" end="120" vehsPerHour="253.6074461353372" departLane="free" arrivalSpeed="0.0"/>
  <flow id="JF69868" begin="60" fromJunction="J3" toJunction="J6" end="120" vehsPerHour="229.03766672428944" departLane="free" arrivalSpeed="0.0"/>
  <flow id="JF69869" begin="60" fromJunction="J3" toJunction="J7" end="120" vehsPerHour="530.5846506353786" departLane="free" arrivalSpeed="0.0"/>
  <flow id="JF69870" begin="60" fromJunction="J4" toJunction="J0" end="120" vehsPerHour="201.11422114530967" departLane="free" arrivalSpeed="0.0"/>
  <flow id="JF69871" begin="60" fromJunction="J4" toJunction="J3" end="120" vehsPerHour="85.5629833277868" departLane="free" arrivalSpeed="0.0"/>
  <flow id="JF69872" begin="60" fromJunction="J4" toJunction="J6" end="120" vehsPerHour="264.40785002749425" departLane="free" arrivalSpeed="0.0"/>
  <flow id="JF69873" begin="60" fromJunction="J4" toJunction="J7" end="120" vehsPerHour="176.68729489781933" departLane="free" arrivalSpeed="0.0"/>
  <flow id="JF69874" begin="60" fromJunction="J5" toJunction="J3" end="120" vehsPerHour="82.39480950037347" departLane="free" arrivalSpeed="0.0"/>
  <flow id="JF69875" begin="60" fromJunction="J5" toJunction="J4" end="120" vehsPerHour="205.3413111574787" departLane="free" arrivalSpeed="0.0"/>
  <flow id="JF69876" begin="60" fromJunction="J5" toJunction="J7" end="120" vehsPerHour="39.66032465424137" departLane="free" arrivalSpeed="0.0"/>
  <flow id="JF69877" begin="60" fromJunction="J6" toJunction="J0" end="120" vehsPerHour="54.203222594683034" departLane="free" arrivalSpeed="0.0"/>
  <flow id="JF69878" begin="60" fromJunction="J6" toJunction="J7" end="120" vehsPerHour="53.516666647965195" departLane="free" arrivalSpeed="0.0"/>
  <flow id="JF69879" begin="60" fromJunction="J7" toJunction="J0" end="120" vehsPerHour="149.5294514177791" departLane="free" arrivalSpeed="0.0"/>
  <flow id="JF69880" begin="60" fromJunction="J7" toJunction="J4" end="120" vehsPerHour="8.170087731709936" departLane="free" arrivalSpeed="0.0"/>
  <flow id="JF69881" begin="60" fromJunction="J7" toJunction="J5" end="120" vehsPerHour="8.896467562511656" departLane="free" arrivalSpeed="0.0"/>
  <flow id="JF69882" begin="120" fromJunction="J0" toJunction="J3" end="180" vehsPerHour="154.87835309258838" departLane="free" arrivalSpeed="0.0"/>
  <flow id="JF69883" begin="120" fromJunction="J0" toJunction="J4" end="180" vehsPerHour="263.7228489154496" departLane="free" arrivalSpeed="0.0"/>
  <flow id="JF69884" begin="120" fromJunction="J0" toJunction="J5" end="180" vehsPerHour="283.1871778694062" departLane="free" arrivalSpeed="0.0"/>
  <flow id="JF69885" begin="120" fromJunction="J0" toJunction="J6" end="180" vehsPerHour="109.92532905618921" departLane="free" arrivalSpeed="0.0"/>
  <flow id="JF69886" begin="120" fromJunction="J0" toJunction="J7" end="180" vehsPerHour="283.1963575712051" departLane="free" arrivalSpeed="0.0"/>
  <flow id="JF69887" begin="120" fromJunction="J3" toJunction="J0" end="180" vehsPerHour="543.5525057738477" departLane="free" arrivalSpeed="0.0"/>
  <flow id="JF69888" begin="120" fromJunction="J3" toJunction="J4" end="180" vehsPerHour="288.8103258419749" departLane="free" arrivalSpeed="0.0"/>
  <flow id="JF69889" begin="120" fromJunction="J3" toJunction="J5" end="180" vehsPerHour="250.8077504433592" departLane="free" arrivalSpeed="0.0"/>
  <flow id="JF69890" begin="120" fromJunction="J3" toJunction="J6" end="180" vehsPerHour="24.555717189294455" departLane="free" arrivalSpeed="0.0"/>
  <flow id="JF69891" begin="120" fromJunction="J3" toJunction="J7" end="180" vehsPerHour="262.07686062582974" departLane="free" arrivalSpeed="0.0"/>
  <flow id="JF69892" begin="120" fromJunction="J4" toJunction="J5" end="180" vehsPerHour="145.6028775870013" departLane="free" arrivalSpeed="0.0"/>
  <flow id="JF69893" begin="120" fromJunction="J4" toJunction="J6" end="180" vehsPerHour="10.110123519477488" departLane="free" arrivalSpeed="0.0"/>
  <flow id="JF69894" begin="120" fromJunction="J4" toJunction="J7" end="180" vehsPerHour="204.85684713788018" departLane="free" arrivalSpeed="0.0"/>
  <flow id="JF69895" begin="120" fromJunction="J5" toJunction="J0" end="180" vehsPerHour="266.9191927146287" departLane="free" arrivalSpeed="0.0"/>
  <flow id="JF69896" begin="120" fromJunction="J5" toJunction="J3" end="180" vehsPerHour="63.92089550968698" departLane="free" arrivalSpeed="0.0"/>
  <flow id="JF69897" begin="120" fromJunction="J5" toJunction="J4" end="180" vehsPerHour="11.781548753601076" departLane="free" arrivalSpeed="0.0"/>
  <flow id="JF69898" begin="120" fromJunction="J5" toJunction="J7" end="180" vehsPerHour="76.70749136620483" departLane="free" arrivalSpeed="0.0"/>
  <flow id="JF69899" begin="120" fromJunction="J6" toJunction="J0" end="180" vehsPerHour="40.663259736681105" departLane="free" arrivalSpeed="0.0"/>
  <flow id="JF69900" begin="120" fromJunction="J6" toJunction="J4" end="180" vehsPerHour="269.0416895008988" departLane="free" arrivalSpeed="0.0"/>
  <flow id="JF69901" begin="120" fromJunction="J6" toJunction="J5" end="180" vehsPerHour="170.6219183179647" departLane="free" arrivalSpeed="0.0"/>
  <flow id="JF69902" begin="120" fromJunction="J6" toJunction="J7" end="180" vehsPerHour="180.0459777187685" departLane="free" arrivalSpeed="0.0"/>
  <flow id="JF69903" begin="120" fromJunction="J7" toJunction="J0" end="180" vehsPerHour="13.341807070764638" departLane="free" arrivalSpeed="0.0"/>
  <flow id="JF69904" begin="120" fromJunction="J7" toJunction="J3" end="180" vehsPerHour="125.5249126656811" departLane="free" arrivalSpeed="0.0"/>
  <flow id="JF69905" begin="120" fromJunction="J7" toJunction="J6" end="180" vehsPerHour="50.99554961042566" departLane="free" arrivalSpeed="0.0"/>
  <flow id="JF69906" begin="180" fromJunction="J0" toJunction="J3" end="240" vehsPerHour="19.038783595151486" departLane="free" arrivalSpeed="0.0"/>
  <flow id="JF69907" begin="180" fromJunction="J0" toJunction="J5" end="240" vehsPerHour="208.9035247429324" departLane="free" arrivalSpeed="0.0"/>
  <flow id="JF69908" begin="180" fromJunction="J0" toJunction="J6" end="240" vehsPerHour="82.22295688252166" departLane="free" arrivalSpeed="0.0"/>
  <flow id="JF69909" begin="180" fromJunction="J0" toJunction="J7" end="240" vehsPerHour="233.58315246609516" departLane="free" arrivalSpeed="0.0"/>
  <flow id="JF69910" begin="180" fromJunction="J3" toJunction="J0" end="240" vehsPerHour="409.3756547481807" departLane="free" arrivalSpeed="0.0"/>
  <flow id="JF69911" begin="180" fromJunction="J3" toJunction="J4" end="240" vehsPerHour="384.43620687997975" departLane="free" arrivalSpeed="0.0"/>
  <flow id="JF69912" begin="180" fromJunction="J3" toJunction="J5" end="240" vehsPerHour="331.0386061178847" departLane="free" arrivalSpeed="0.0"/>
  <flow id="JF69913" begin="180" fromJunction="J3" toJunction="J7" end="240" vehsPerHour="220.8334940152599" departLane="free" arrivalSpeed="0.0"/>
  <flow id="JF69914" begin="180" fromJunction="J4" toJunction="J0" end="240" vehsPerHour="204.3579403385907" departLane="free" arrivalSpeed="0.0"/>
  <flow id="JF69915" begin="180" fromJunction="J4" toJunction="J6" end="240" vehsPerHour="101.26809218604402" departLane="free" arrivalSpeed="0.0"/>
  <flow id="JF69916" begin="180" fromJunction="J4" toJunction="J7" end="240" vehsPerHour="37.63679823540475" departLane="free" arrivalSpeed="0.0"/>
  <flow id="JF69917" begin="180" fromJunction="J5" toJunction="J0" end="240" vehsPerHour="116.09511899169996" departLane="free" arrivalSpeed="0.0"/>
  <flow id="JF69918" begin="180" fromJunction="J5" toJunction="J3" end="240" vehsPerHour="44.24057492860632" departLane="free" arrivalSpeed="0.0"/>
  <flow id="JF69919" begin="180" fromJunction="J5" toJunction="J6" end="240" vehsPerHour="143.6437657020718" departLane="free" arrivalSpeed="0.0"/>
  <flow id="JF69920" begin="180" fromJunction="J6" toJunction="J0" end="240" vehsPerHour="118.61887049373217" departLane="free" arrivalSpeed="0.0"/>
  <flow id="JF69921" begin="180" fromJunction="J6" toJunction="J4" end="240" vehsPerHour="99.43575684714999" departLane="free" arrivalSpeed="0.0"/>
  <flow id="JF69922" begin="180" fromJunction="J6" toJunction="J5" end="240" vehsPerHour="118.04305479586492" departLane="free" arrivalSpeed="0.0"/>
  <flow id="JF69923" begin="180" fromJunction="J6" toJunction="J7" end="240" vehsPerHour="25.76614936840989" departLane="free" arrivalSpeed="0.0"/>
  <flow id="JF69924" begin="180" fromJunction="J7" toJunction="J0" end="240" vehsPerHour="19.80243000207627" departLane="free" arrivalSpeed="0.0"/>
  <flow id="JF69925" begin="180" fromJunction="J7" toJunction="J3" end="240" vehsPerHour="14.972157971947915" departLane="free" arrivalSpeed="0.0"/>
  <flow id="JF69926" begin="180" fromJunction="J7" toJunction="J5" end="240" vehsPerHour="247.17444011089023" departLane="free" arrivalSpeed="0.0"/>
  <flow id="JF69927" begin="180" fromJunction="J7" toJunction="J6" end="240" vehsPerHour="46.777872996278234" departLane="free" arrivalSpeed="0.0"/>
  <flow id="JF69928" begin="240" fromJunction="J0" toJunction="J3" end="300" vehsPerHour="457.4685739351352" departLane="free" arrivalSpeed="0.0"/>
  <flow id="JF69929" begin="240" fromJunction="J0" toJunction="J4" end="300" vehsPerHour="223.76082286220907" departLane="free" arrivalSpeed="0.0"/>
  <flow id="JF69930" begin="240" fromJunction="J0" toJunction="J6" end="300" vehsPerHour="12.006854740303496" departLane="free" arrivalSpeed="0.0"/>
  <flow id="JF69931" begin="240" fromJunction="J3" toJunction="J0" end="300" vehsPerHour="369.2619306835979" departLane="free" arrivalSpeed="0.0"/>
  <flow id="JF69932" begin="240" fromJunction="J3" toJunction="J4" end="300" vehsPerHour="330.81869633041947" departLane="free" arrivalSpeed="0.0"/>
  <flow id="JF69933" begin="240" fromJunction="J3" toJunction="J5" end="300" vehsPerHour="23.47852227603029" departLane="free" arrivalSpeed="0.0"/>
  <flow id="JF69934" begin="240" fromJunction="J3" toJunction="J6" end="300" vehsPerHour="491.3408285320042" departLane="free" arrivalSpeed="0.0"/>
  <flow id="JF69935" begin="240" fromJunction="J3" toJunction="J7" end="300" vehsPerHour="546.1939845218286" departLane="free" arrivalSpeed="0.0"/>
  <flow id="JF69936" begin="240" fromJunction="J4" toJunction="J5" end="300" vehsPerHour="113.72742907286576" departLane="free" arrivalSpeed="0.0"/>
  <flow id="JF69937" begin="240" fromJunction="J4" toJunction="J7" end="300" vehsPerHour="210.0848535850093" departLane="free" arrivalSpeed="0.0"/>
  <flow id="JF69938" begin="240" fromJunction="J5" toJunction="J0" end="300" vehsPerHour="35.242437852524205" departLane="free" arrivalSpeed="0.0"/>
  <flow id="JF69939" begin="240" fromJunction="J5" toJunction="J4" end="300" vehsPerHour="250.87551668979015" departLane="free" arrivalSpeed="0.0"/>
  <flow id="JF69940" begin="240" fromJunction="J6" toJunction="J0" end="300" vehsPerHour="246.0068505345436" departLane="free" arrivalSpeed="0.0"/>
  <flow id="JF69941" begin="240" fromJunction="J6" toJunction="J7" end="300" vehsPerHour="49.8960967347107" departLane="free" arrivalSpeed="0.0"/>
  <flow id="JF69942" begin="240" fromJunction="J7" toJunction="J0" end="300" vehsPerHour="243.16293663970566" departLane="free" arrivalSpeed="0.0"/>
  <flow id="JF69943" begin="240" fromJunction="J7" toJunction="J5" end="300" vehsPerHour="153.11420112848361" departLane="free" arrivalSpeed="0.0"/>
  <flow id="JF69944" begin="300" fromJunction="J0" toJunction="J3" end="360" vehsPerHour="409.1591870904347" departLane="free" arrivalSpeed="0.0"/>
  <flow id="JF69945" begin="300" fromJunction="J0" toJunction="J5" end="360" vehsPerHour="489.5093954004567" departLane="free" arrivalSpeed="0.0"/>
  <flow id="JF69946" begin="300" fromJunction="J0" toJunction="J6" end="360" vehsPerHour="279.73403366206657" departLane="free" arrivalSpeed="0.0"/>
  <flow id="JF69947" begin="300" fromJunction="J0" toJunction="J7" end="360" vehsPerHour="436.6218994607658" departLane="free" arrivalSpeed="0.0"/>
  <flow id="JF69948" begin="300" fromJunction="J3" toJunction="J0" end="360" vehsPerHour="31.28877704854658" departLane="free" arrivalSpeed="0.0"/>
  <flow id="JF69949" begin="300" fromJunction="J3" toJunction="J4" end="360" vehsPerHour="164.41968417619103" departLane="free" arrivalSpeed="0.0"/>
  <flow id="JF69950" begin="300" fromJunction="J3" toJunction="J5" end="360" vehsPerHour="444.7834791618469" departLane="free" arrivalSpeed="0.0"/>
  <flow id="JF69951" begin="300" fromJunction="J3" toJunction="J7" end="360" vehsPerHour="41.174159521274085" departLane="free" arrivalSpeed="0.0"/>
  <flow id="JF69952" begin="300" fromJunction="J4" toJunction="J0" end="360" vehsPerHour="123.88990595158333" departLane="free" arrivalSpeed="0.0"/>
  <flow id="JF69953" begin="300" fromJunction="J4" toJunction="J3" end="360" vehsPerHour="3.918668240065033" departLane="free" arrivalSpeed="0.0"/>
  <flow id="JF69954" begin="300" fromJunction="J5" toJunction="J0" end="360" vehsPerHour="115.5965360505668" departLane="free" arrivalSpeed="0.0"/>
  <flow id="JF69955" begin="300" fromJunction="J5" toJunction="J3" end="360" vehsPerHour="71.96775733929162" departLane="free" arrivalSpeed="0.0"/>
  <flow id="JF69956" begin="300" fromJunction="J5" toJunction="J4" end="360" vehsPerHour="215.79574403243157" departLane="free" arrivalSpeed="0.0"/>
  <flow id="JF69957" begin="300" fromJunction="J5" toJunction="J6" end="360" vehsPerHour="94.69013617538144" departLane="free" arrivalSpeed="0.0"/>
  <flow id="JF69958" begin="300" fromJunction="J5" toJunction="J7" end="360" vehsPerHour="5.907849981137557" departLane="free" arrivalSpeed="0.0"/>
  <flow id="JF69959" begin="300" fromJunction="J6" toJunction="J0" end="360" vehsPerHour="239.10755179165503" departLane="free" arrivalSpeed="0.0"/>
  <flow id="JF69960" begin="300" fromJunction="J6" toJunction="J3" end="360" vehsPerHour="257.57669495876513" departLane="free" arrivalSpeed="0.0"/>
  <flow id="JF69961" begin="300" fromJunction="J6" toJunction="J7" end="360" vehsPerHour="265.456955866139" departLane="free" arrivalSpeed="0.0"/>
  <flow id="JF69962" begin="300" fromJunction="J7" toJunction="J0" end="360" vehsPerHour="32.580329020971035" departLane="free" arrivalSpeed="0.0"/>
  <flow id="JF69963" begin="300" fromJunction="J7" toJunction="J3" end="360" vehsPerHour="69.78745273595982" departLane="free" arrivalSpeed="0.0"/>
  <flow id="JF69964" begin="300" fromJunction="J7" toJunction="J4" end="360" vehsPerHour="51.61177631868091" departLane="free" arrivalSpeed="0.0"/>
  <flow id="JF69965" begin="360" fromJunction="J0" toJunction="J3" end="420" vehsPerHour="2.8004506470290758" departLane="free" arrivalSpeed="0.0"/>
  <flow id="JF69966" begin="360" fromJunction="J0" toJunction="J4" end="420" vehsPerHour="543.4526629958228" departLane="free" arrivalSpeed="0.0"/>
  <flow id="JF69967" begin="360" fromJunction="J0" toJunction="J6" end="420" vehsPerHour="96.20926094986604" departLane="free" arrivalSpeed="0.0"/>
  <flow id="JF69968" begin="360" fromJunction="J3" toJunction="J0" end="420" vehsPerHour="185.72676889081254" departLane="free" arrivalSpeed="0.0"/>
  <flow id="JF69969" begin="360" fromJunction="J3" toJunction="J4" end="420" vehsPerHour="531.3664494989124" departLane="free" arrivalSpeed="0.0"/>
  <flow id="JF69970" begin="360" fromJunction="J3" toJunction="J5" end="420" vehsPerHour="164.81030187295207" departLane="free" arrivalSpeed="0.0"/>
  <flow id="JF69971" begin="360" fromJunction="J3" toJunction="J6" end="420" vehsPerHour="498.61325554406034" departLane="free" arrivalSpeed="0.0"/>
  <flow id="JF69972" begin="360" fromJunction="J3" toJunction="J7" end="420" vehsPerHour="21.92754586642722" departLane="free" arrivalSpeed="0.0"/>
  <flow id="JF69973" begin="360" fromJunction="J4" toJunction="J0" end="420" vehsPerHour="233.34770444728952" departLane="free" arrivalSpeed="0.0"/>
  <flow id="JF69974" begin="360" fromJunction="J4" toJunction="J3" end="420" vehsPerHour="270.2970329179603" departLane="free" arrivalSpeed="0.0"/>
  <flow id="JF69975" begin="360" fromJunction="J4" toJunction="J5" end="420" vehsPerHour="117.20713202933412" departLane="free" arrivalSpeed="0.0"/>
  <flow id="JF69976" begin="360" fromJunction="J4" toJunction="J6" end="420" vehsPerHour="107.8072283754326" departLane="free" arrivalSpeed="0.0"/>
  <flow id="JF69977" begin="360" fromJunction="J4" toJunction="J7" end="420" vehsPerHour="107.85428023838222" departLane="free" arrivalSpeed="0.0"/>
  <flow id="JF69978" begin="360" fromJunction="J5" toJunction="J0" end="420" vehsPerHour="54.06757641220829" departLane="free" arrivalSpeed="0.0"/>
  <flow id="JF69979" begin="360" fromJunction="J5" toJunction="J6" end="420" vehsPerHour="231.6372114679516" departLane="free" arrivalSpeed="0.0"/>
  <flow id="JF69980" begin="360" fromJunction="J5" toJunction="J7" end="420" vehsPerHour="40.002777722946014" departLane="free" arrivalSpeed="0.0"/>
  <flow id="JF69981" begin="360" fromJunction="J6" toJunction="J0" end="420" vehsPerHour="251.88585368198474" departLane="free" arrivalSpeed="0.0"/>
  <flow id="JF69982" begin="360" fromJunction="J6" toJunction="J5" end="420" vehsPerHour="100.06981901589846" departLane="free" arrivalSpeed="0.0"/>
  <flow id="JF69983" begin="360" fromJunction="J6" toJunction="J7" end="420" vehsPerHour="262.79275002604294" departLane="free" arrivalSpeed="0.0"/>
  <flow id="JF69984" begin="360" fromJunction="J7" toJunction="J3" end="420" vehsPerHour="2.8046942301719278" departLane="free" arrivalSpeed="0.0"/>
  <flow id="JF69985" begin="360" fromJunction="J7" toJunction="J4" end="420" vehsPerHour="256.13714710947164" departLane="free" arrivalSpeed="0.0"/>
  <flow id="JF69986" begin="360" fromJunction="J7" toJunction="J5" end="420" vehsPerHour="97.0797733603061" departLane="free" arrivalSpeed="0.0"/>
  <flow id="JF69987" begin="360" fromJunction="J7" toJunction="J6" end="420" vehsPerHour="274.58930970538563" departLane="free" arrivalSpeed="0.0"/>
  <flow id="JF69988" begin="420" fromJunction="J0" toJunction="J3" end="480" vehsPerHour="327.19942956508226" departLane="free" arrivalSpeed="0.0"/>
  <flow id="JF69989" begin="420" fromJunction="J0" toJunction="J4" end="480" vehsPerHour="522.3072569106794" departLane="free" arrivalSpeed="0.0"/>
  <flow id="JF69990" begin="420" fromJunction="J0" toJunction="J6" end="480" vehsPerHour="467.67928963887766" departLane="free" arrivalSpeed="0.0"/>
  <flow id="JF69991" begin="420" fromJunction="J0" toJunction="J7" end="480" vehsPerHour="27.158912616066303" departLane="free" arrivalSpeed="0.0"/>
  <flow id="JF69992" begin="420" fromJunction="J3" toJunction="J4" end="480" vehsPerHour="71.58385975965032" departLane="free" arrivalSpeed="0.0"/>
  <flow id="JF69993" begin="420" fromJunction="J3" toJunction="J6" end="480" vehsPerHour="88.82212256469575" departLane="free" arrivalSpeed="0.0"/>
  <flow id="JF69994" begin="420" fromJunction="J3" toJunction="J7" end="480" vehsPerHour="436.14093060898705" departLane="free" arrivalSpeed="0.0"/>
  <flow id="JF69995" begin="420" fromJunction="J4" toJunction="J0" end="480" vehsPerHour="214.734414308193" departLane="free" arrivalSpeed="0.0"/>
  <flow id="JF69996" begin="420" fromJunction="J4" toJunction="J3" end="480" vehsPerHour="116.35315151202568" departLane="free" arrivalSpeed="0.0"/>
  <flow id="JF69997" begin="420" fromJunction="J4" toJunction="J5" end="480" vehsPerHour="10.318776598252775" departLane="free" arrivalSpeed="0.0"/>
  <flow id="JF69998" begin="420" fromJunction="J4" toJunction="J6" end="480" vehsPerHour="107.18955148805216" departLane="free" arrivalSpeed="0.0"/>
  <flow id="JF69999" begin="420" fromJunction="J4" toJunction="J7" end="480" vehsPerHour="257.67481348553775" departLane="free" arrivalSpeed="0.0"/>
  <flow id="JF70000" begin="420" fromJunction="J5" toJunction="J0" end="480" vehsPerHour="271.1275356844952" departLane="free" arrivalSpeed="0.0"/>
  <flow id="JF70001" begin="420" fromJunction="J5" toJunction="J3" end="480" vehsPerHour="119.00125620451601" departLane="free" arrivalSpeed="0.0"/>
  <flow id="JF70002" begin="420" fromJunction="J5" toJunction="J4" end="480" vehsPerHour="92.920970669131" departLane="free" arrivalSpeed="0.0"/>
  <flow id="JF70003" begin="420" fromJunction="J5" toJunction="J6" end="480" vehsPerHour="119.76288275411096" departLane="free" arrivalSpeed="0.0"/>
  <flow id="JF70004" begin="420" fromJunction="J5" toJunction="J7" end="480" vehsPerHour="221.06822405316774" departLane="free" arrivalSpeed="0.0"/>
  <flow id="JF70005" begin="420" fromJunction="J6" toJunction="J0" end="480" vehsPerHour="39.84204964062003" departLane="free" arrivalSpeed="0.0"/>
  <flow id="JF70006" begin="420" fromJunction="J6" toJunction="J3" end="480" vehsPerHour="45.190931456259946" departLane="free" arrivalSpeed="0.0"/>
  <flow id="JF70007" begin="420" fromJunction="J6" toJunction="J4" end="480" vehsPerHour="65.33117767407852" departLane="free" arrivalSpeed="0.0"/>
  <flow id="JF70008" begin="420" fromJunction="J6" toJunction="J5" end="480" vehsPerHour="78.1396153608402" departLane="free" arrivalSpeed="0.0"/>
  <flow id="JF70009" begin="420" fromJunction="J6" toJunction="J7" end="480" vehsPerHour="22.491387576400374" departLane="free" arrivalSpeed="0.0"/>
  <flow id="JF70010" begin="420" fromJunction="J7" toJunction="J3" end="480" vehsPerHour="21.1921749295631" departLane="free" arrivalSpeed="0.0"/>
  <flow id="JF70011" begin="420" fromJunction="J7" toJunction="J4" end="480" vehsPerHour="66.53476803714395" departLane="free" arrivalSpeed="0.0"/>
  <flow id="JF70012" begin="420" fromJunction="J7" toJunction="J5" end="480" vehsPerHour="153.37006313647714" departLane="free" arrivalSpeed="0.0"/>
  <flow id="JF70013" begin="420" fromJunction="J7" toJunction="J6" end="480" vehsPerHour="57.57239138677603" departLane="free" arrivalSpeed="0.0"/>
  <flow id="JF70014" begin="480" fromJunction="J0" toJunction="J3" end="540" vehsPerHour="40.87374736348314" departLane="free" arrivalSpeed="0.0"/>
  <flow id="JF70015" begin="480" fromJunction="J0" toJunction="J4" end="540" vehsPerHour="43.92753266496945" departLane="free" arrivalSpeed="0.0"/>
  <flow id="JF70016" begin="480" fromJunction="J0" toJunction="J6" end="540" vehsPerHour="415.9251044534695" departLane="free" arrivalSpeed="0.0"/>
  <flow id="JF70017" begin="480" fromJunction="J3" toJunction="J0" end="540" vehsPerHour="331.7433460071024" departLane="free" arrivalSpeed="0.0"/>
  <flow id="JF70018" begin="480" fromJunction="J3" toJunction="J4" end="540" vehsPerHour="386.6158143850114" departLane="free" arrivalSpeed="0.0"/>
  <flow id="JF70019" begin="480" fromJunction="J3" toJunction="J6" end="540" vehsPerHour="189.16997998552614" departLane="free" arrivalSpeed="0.0"/>
  <flow id="JF70020" begin="480" fromJunction="J3" toJunction="J7" end="540" vehsPerHour="66.99873465973442" departLane="free" arrivalSpeed="0.0"/>
  <flow id="JF70021" begin="480" fromJunction="J4" toJunction="J3" end="540" vehsPerHour="146.90090104384552" departLane="free" arrivalSpeed="0.0"/>
  <flow id="JF70022" begin="480" fromJunction="J5" toJunction="J0" end="540" vehsPerHour="168.33453382064994" departLane="free" arrivalSpeed="0.0"/>
  <flow id="JF70023" begin="480" fromJunction="J5" toJunction="J4" end="540" vehsPerHour="38.550446707977734" departLane="free" arrivalSpeed="0.0"/>
  <flow id="JF70024" begin="480" fromJunction="J5" toJunction="J6" end="540" vehsPerHour="176.90376900953572" departLane="free" arrivalSpeed="0.0"/>
  <flow id="JF70025" begin="480" fromJunction="J5" toJunction="J7" end="540" vehsPerHour="78.14439485354893" departLane="free" arrivalSpeed="0.0"/>
  <flow id="JF70026" begin="480" fromJunction="J6" toJunction="J0" end="540" vehsPerHour="251.85588771403846" departLane="free" arrivalSpeed="0.0"/>
  <flow id="JF70027" begin="480" fromJunction="J6" toJunction="J4" end="540" vehsPerHour="203.70480178668032" departLane="free" arrivalSpeed="0.0"/>
  <flow id="JF70028" begin="480" fromJunction="J6" toJunction="J7" end="540" vehsPerHour="192.5534040935755" departLane="free" arrivalSpeed="0.0"/>
  <flow id="JF70029" begin="480" fromJunction="J7" toJunction="J3" end="540" vehsPerHour="179.27745776299585" departLane="free" arrivalSpeed="0.0"/>
  <flow id="JF70030" begin="480" fromJunction="J7" toJunction="J6" end="540" vehsPerHour="49.777961475798584" departLane="free" arrivalSpeed="0.0"/>
  <flow id="JF70031" begin="540" fromJunction="J0" toJunction="J3" end="600" vehsPerHour="198.8917582542246" departLane="free" arrivalSpeed="0.0"/>
  <flow id="JF70032" begin="540" fromJunction="J0" toJunction="J4" end="600" vehsPerHour="61.55258699445249" departLane="free" arrivalSpeed="0.0"/>
  <flow id="JF70033" begin="540" fromJunction="J0" toJunction="J5" end="600" vehsPerHour="485.90202910482367" departLane="free" arrivalSpeed="0.0"/>
  <flow id="JF70034" begin="540" fromJunction="J0" toJunction="J7" end="600" vehsPerHour="211.14648725865234" departLane="free" arrivalSpeed="0.0"/>
  <flow id="JF70035" begin="540" fromJunction="J3" toJunction="J0" end="600" vehsPerHour="404.0086860325985" departLane="free" arrivalSpeed="0.0"/>
  <flow id="JF70036" begin="540" fromJunction="J3" toJunction="J4" end="600" vehsPerHour="510.6904925275553" departLane="free" arrivalSpeed="0.0"/>
  <flow id="JF70037" begin="540" fromJunction="J3" toJunction="J5" end="600" vehsPerHour="293.001973463442" departLane="free" arrivalSpeed="0.0"/>
  <flow id="JF70038" begin="540" fromJunction="J3" toJunction="J6" end="600" vehsPerHour="112.67865904557054" departLane="free" arrivalSpeed="0.0"/>
  <flow id="JF70039" begin="540" fromJunction="J4" toJunction="J5" end="600" vehsPerHour="67.3346311179999" departLane="free" arrivalSpeed="0.0"/>
  <flow id="JF70040" begin="540" fromJunction="J4" toJunction="J6" end="600" vehsPerHour="16.191634528985208" departLane="free" arrivalSpeed="0.0"/>
  <flow id="JF70041" begin="540" fromJunction="J4" toJunction="J7" end="600" vehsPerHour="160.02610586311337" departLane="free" arrivalSpeed="0.0"/>
  <flow id="JF70042" begin="540" fromJunction="J5" toJunction="J3" end="600" vehsPerHour="266.94846710585034" departLane="free" arrivalSpeed="0.0"/>