<?xml version="1.0" encoding="UTF-8"?>
<routes xmlns:xsi="http://www.w3.org/2001/XMLSchema-instance" xsi:noNamespaceSchemaLocation="http://sumo.dlr.de/xsd/routes_file.xsd">
  <flow id="JF120260" begin="0" fromJunction="J3" toJunction="J0" end="60" vehsPerHour="63.20111900987186" departLane="free"/>
  <flow id="JF120261" begin="0" fromJunction="J0" toJunction="J3" end="60" vehsPerHour="47.04107869146633" departLane="free"/>
  <flow id="JF120262" begin="0" fromJunction="J3" toJunction="J7" end="60" vehsPerHour="267.7300531203846" departLane="free"/>
  <flow id="JF120263" begin="0" fromJunction="J3" toJunction="J4" end="60" vehsPerHour="427.33604230058216" departLane="free"/>
  <flow id="JF120264" begin="0" fromJunction="J3" toJunction="J6" end="60" vehsPerHour="29.86707816279317" departLane="free"/>
  <flow id="JF120265" begin="0" fromJunction="J3" toJunction="J5" end="60" vehsPerHour="91.95117638760709" departLane="free"/>
  <flow id="JF120266" begin="0" fromJunction="J0" toJunction="J7" end="60" vehsPerHour="64.73070126517608" departLane="free"/>
  <flow id="JF120267" begin="0" fromJunction="J0" toJunction="J4" end="60" vehsPerHour="524.0592239362252" departLane="free"/>
  <flow id="JF120268" begin="0" fromJunction="J0" toJunction="J6" end="60" vehsPerHour="428.7859269553875" departLane="free"/>
  <flow id="JF120269" begin="0" fromJunction="J0" toJunction="J5" end="60" vehsPerHour="176.3343197155712" departLane="free"/>
  <flow id="JF120270" begin="0" fromJunction="J7" toJunction="J4" end="60" vehsPerHour="14.094704344670756" departLane="free"/>
  <flow id="JF120271" begin="0" fromJunction="J7" toJunction="J6" end="60" vehsPerHour="46.865714279679985" departLane="free"/>
  <flow id="JF120272" begin="0" fromJunction="J7" toJunction="J5" end="60" vehsPerHour="29.453957296889534" departLane="free"/>
  <flow id="JF120273" begin="0" fromJunction="J4" toJunction="J7" end="60" vehsPerHour="55.779700830654185" departLane="free"/>
  <flow id="JF120274" begin="0" fromJunction="J4" toJunction="J6" end="60" vehsPerHour="67.24465641211198" departLane="free"/>
  <flow id="JF120275" begin="0" fromJunction="J4" toJunction="J5" end="60" vehsPerHour="51.4315252226063" departLane="free"/>
  <flow id="JF120276" begin="0" fromJunction="J6" toJunction="J7" end="60" vehsPerHour="22.68586951049846" departLane="free"/>
  <flow id="JF120277" begin="0" fromJunction="J6" toJunction="J4" end="60" vehsPerHour="11.896612774483502" departLane="free"/>
  <flow id="JF120278" begin="0" fromJunction="J6" toJunction="J5" end="60" vehsPerHour="21.85450547161151" departLane="free"/>
  <flow id="JF120279" begin="0" fromJunction="J5" toJunction="J7" end="60" vehsPerHour="29.97381891979839" departLane="free"/>
  <flow id="JF120280" begin="0" fromJunction="J5" toJunction="J4" end="60" vehsPerHour="5.277250345762693" departLane="free"/>
  <flow id="JF120281" begin="0" fromJunction="J5" toJunction="J6" end="60" vehsPerHour="19.32361386301581" departLane="free"/>
  <flow id="JF120282" begin="0" fromJunction="J7" toJunction="J3" end="60" vehsPerHour="273.2504435899917" departLane="free"/>
  <flow id="JF120283" begin="0" fromJunction="J7" toJunction="J0" end="60" vehsPerHour="12.90591997154249" departLane="free"/>
  <flow id="JF120284" begin="0" fromJunction="J4" toJunction="J3" end="60" vehsPerHour="236.7451493084862" departLane="free"/>
  <flow id="JF120285" begin="0" fromJunction="J4" toJunction="J0" end="60" vehsPerHour="173.82145318399287" departLane="free"/>
  <flow id="JF120286" begin="0" fromJunction="J6" toJunction="J3" end="60" vehsPerHour="12.829671327652795" departLane="free"/>
  <flow id="JF120287" begin="0" fromJunction="J6" toJunction="J0" end="60" vehsPerHour="152.78548645313174" departLane="free"/>
  <flow id="JF120288" begin="0" fromJunction="J5" toJunction="J3" end="60" vehsPerHour="73.31118685387987" departLane="free"/>
  <flow id="JF120289" begin="0" fromJunction="J5" toJunction="J0" end="60" vehsPerHour="175.16105883951613" departLane="free"/>
  <flow id="JF120290" begin="60" fromJunction="J3" toJunction="J0" end="120" vehsPerHour="99.37391968357191" departLane="free"/>
  <flow id="JF120291" begin="60" fromJunction="J0" toJunction="J3" end="120" vehsPerHour="56.36600308658261" departLane="free"/>
  <flow id="JF120292" begin="60" fromJunction="J3" toJunction="J7" end="120" vehsPerHour="52.179286752388194" departLane="free"/>
  <flow id="JF120293" begin="60" fromJunction="J3" toJunction="J4" end="120" vehsPerHour="74.25673766221037" departLane="free"/>
  <flow id="JF120294" begin="60" fromJunction="J3" toJunction="J6" end="120" vehsPerHour="201.51521232056572" departLane="free"/>
  <flow id="JF120295" begin="60" fromJunction="J3" toJunction="J5" end="120" vehsPerHour="448.1164000940794" departLane="free"/>
  <flow id="JF120296" begin="60" fromJunction="J0" toJunction="J7" end="120" vehsPerHour="439.42635062332516" departLane="free"/>
  <flow id="JF120297" begin="60" fromJunction="J0" toJunction="J4" end="120" vehsPerHour="111.54570472601036" departLane="free"/>
  <flow id="JF120298" begin="60" fromJunction="J0" toJunction="J6" end="120" vehsPerHour="206.1466139341041" departLane="free"/>
  <flow id="JF120299" begin="60" fromJunction="J0" toJunction="J5" end="120" vehsPerHour="271.845250144206" departLane="free"/>
  <flow id="JF120300" begin="60" fromJunction="J7" toJunction="J4" end="120" vehsPerHour="17.266128139506804" departLane="free"/>
  <flow id="JF120301" begin="60" fromJunction="J7" toJunction="J6" end="120" vehsPerHour="17.890803080425307" departLane="free"/>
  <flow id="JF120302" begin="60" fromJunction="J7" toJunction="J5" end="120" vehsPerHour="30.776316812536727" departLane="free"/>
  <flow id="JF120303" begin="60" fromJunction="J4" toJunction="J7" end="120" vehsPerHour="14.058219883906656" departLane="free"/>
  <flow id="JF120304" begin="60" fromJunction="J4" toJunction="J6" end="120" vehsPerHour="20.51519397444045" departLane="free"/>
  <flow id="JF120305" begin="60" fromJunction="J4" toJunction="J5" end="120" vehsPerHour="10.931442301089712" departLane="free"/>
  <flow id="JF120306" begin="60" fromJunction="J6" toJunction="J7" end="120" vehsPerHour="11.30148459056244" departLane="free"/>
  <flow id="JF120307" begin="60" fromJunction="J6" toJunction="J4" end="120" vehsPerHour="37.91117707748021" departLane="free"/>
  <flow id="JF120308" begin="60" fromJunction="J6" toJunction="J5" end="120" vehsPerHour="62.72548775971196" departLane="free"/>
  <flow id="JF120309" begin="60" fromJunction="J5" toJunction="J7" end="120" vehsPerHour="53.42459799636419" departLane="free"/>
  <flow id="JF120310" begin="60" fromJunction="J5" toJunction="J4" end="120" vehsPerHour="6.977494332217876" departLane="free"/>
  <flow id="JF120311" begin="60" fromJunction="J5" toJunction="J6" end="120" vehsPerHour="10.684908192007263" departLane="free"/>
  <flow id="JF120312" begin="60" fromJunction="J7" toJunction="J3" end="120" vehsPerHour="145.9610691646247" departLane="free"/>
  <flow id="JF120313" begin="60" fromJunction="J7" toJunction="J0" end="120" vehsPerHour="100.11926485358202" departLane="free"/>
  <flow id="JF120314" begin="60" fromJunction="J4" toJunction="J3" end="120" vehsPerHour="139.0109355964682" departLane="free"/>
  <flow id="JF120315" begin="60" fromJunction="J4" toJunction="J0" end="120" vehsPerHour="37.31565570114745" departLane="free"/>
  <flow id="JF120316" begin="60" fromJunction="J6" toJunction="J3" end="120" vehsPerHour="168.37843408668724" departLane="free"/>
  <flow id="JF120317" begin="60" fromJunction="J6" toJunction="J0" end="120" vehsPerHour="94.74116056484641" departLane="free"/>
  <flow id="JF120318" begin="60" fromJunction="J5" toJunction="J3" end="120" vehsPerHour="54.79808081461264" departLane="free"/>
  <flow id="JF120319" begin="60" fromJunction="J5" toJunction="J0" end="120" vehsPerHour="109.7664890119608" departLane="free"/>
  <flow id="JF120320" begin="120" fromJunction="J3" toJunction="J0" end="180" vehsPerHour="132.67221127751026" departLane="free"/>
  <flow id="JF120321" begin="120" fromJunction="J0" toJunction="J3" end="180" vehsPerHour="106.39062789127063" departLane="free"/>
  <flow id="JF120322" begin="120" fromJunction="J3" toJunction="J7" end="180" vehsPerHour="184.8724263920392" departLane="free"/>
  <flow id="JF120323" begin="120" fromJunction="J3" toJunction="J4" end="180" vehsPerHour="177.534857487867" departLane="free"/>
  <flow id="JF120324" begin="120" fromJunction="J3" toJunction="J6" end="180" vehsPerHour="328.71186325508927" departLane="free"/>
  <flow id="JF120325" begin="120" fromJunction="J3" toJunction="J5" end="180" vehsPerHour="46.43868784792714" departLane="free"/>
  <flow id="JF120326" begin="120" fromJunction="J0" toJunction="J7" end="180" vehsPerHour="368.80320342796307" departLane="free"/>
  <flow id="JF120327" begin="120" fromJunction="J0" toJunction="J4" end="180" vehsPerHour="242.82680481409633" departLane="free"/>
  <flow id="JF120328" begin="120" fromJunction="J0" toJunction="J6" end="180" vehsPerHour="500.76728286508927" departLane="free"/>
  <flow id="JF120329" begin="120" fromJunction="J0" toJunction="J5" end="180" vehsPerHour="269.07243970227273" departLane="free"/>
  <flow id="JF120330" begin="180" fromJunction="J3" toJunction="J0" end="240" vehsPerHour="127.10036101658613" departLane="free"/>
  <flow id="JF120331" begin="180" fromJunction="J0" toJunction="J3" end="240" vehsPerHour="51.532192646119626" departLane="free"/>
  <flow id="JF120332" begin="180" fromJunction="J3" toJunction="J7" end="240" vehsPerHour="212.07282445305117" departLane="free"/>
  <flow id="JF120333" begin="180" fromJunction="J3" toJunction="J4" end="240" vehsPerHour="494.75844004143715" departLane="free"/>
  <flow id="JF120334" begin="180" fromJunction="J3" toJunction="J6" end="240" vehsPerHour="275.71831509345594" departLane="free"/>
  <flow id="JF120335" begin="180" fromJunction="J3" toJunction="J5" end="240" vehsPerHour="301.41193857072966" departLane="free"/>
  <flow id="JF120336" begin="180" fromJunction="J0" toJunction="J7" end="240" vehsPerHour="90.84024547193626" departLane="free"/>
  <flow id="JF120337" begin="180" fromJunction="J0" toJunction="J4" end="240" vehsPerHour="485.726969134406" departLane="free"/>
  <flow id="JF120338" begin="180" fromJunction="J0" toJunction="J6" end="240" vehsPerHour="329.6783681554837" departLane="free"/>
  <flow id="JF120339" begin="180" fromJunction="J0" toJunction="J5" end="240" vehsPerHour="280.6957765555577" departLane="free"/>
  <flow id="JF120340" begin="240" fromJunction="J3" toJunction="J0" end="300" vehsPerHour="66.4613236494617" departLane="free"/>
  <flow id="JF120341" begin="240" fromJunction="J0" toJunction="J3" end="300" vehsPerHour="38.72266872352084" departLane="free"/>
  <flow id="JF120342" begin="240" fromJunction="J3" toJunction="J7" end="300" vehsPerHour="502.8590517214255" departLane="free"/>
  <flow id="JF120343" begin="240" fromJunction="J3" toJunction="J4" end="300" vehsPerHour="468.18866167974704" departLane="free"/>
  <flow id="JF120344" begin="240" fromJunction="J3" toJunction="J6" end="300" vehsPerHour="2.1242767383921" departLane="free"/>
  <flow id="JF120345" begin="240" fromJunction="J3" toJunction="J5" end="300" vehsPerHour="424.67247250192327" departLane="free"/>
  <flow id="JF120346" begin="240" fromJunction="J0" toJunction="J7" end="300" vehsPerHour="213.47735177654673" departLane="free"/>
  <flow id="JF120347" begin="240" fromJunction="J0" toJunction="J4" end="300" vehsPerHour="188.0749477032968" departLane="free"/>
  <flow id="JF120348" begin="240" fromJunction="J0" toJunction="J6" end="300" vehsPerHour="220.83378294818692" departLane="free"/>
  <flow id="JF120349" begin="240" fromJunction="J0" toJunction="J5" end="300" vehsPerHour="340.7367871029074" departLane="free"/>
  <flow id="JF120350" begin="300" fromJunction="J3" toJunction="J0" end="360" vehsPerHour="135.68025388724297" departLane="free"/>
  <flow id="JF120351" begin="300" fromJunction="J0" toJunction="J3" end="360" vehsPerHour="35.94548012163491" departLane="free"/>
  <flow id="JF120352" begin="300" fromJunction="J3" toJunction="J7" end="360" vehsPerHour="61.38347147884495" departLane="free"/>
  <flow id="JF120353" begin="300" fromJunction="J3" toJunction="J4" end="360" vehsPerHour="543.3312526502257" departLane="free"/>
  <flow id="JF120354" begin="300" fromJunction="J3" toJunction="J6" end="360" vehsPerHour="177.45320572305863" departLane="free"/>
  <flow id="JF120355" begin="300" fromJunction="J3" toJunction="J5" end="360" vehsPerHour="96.97566430817038" departLane="free"/>
  <flow id="JF120356" begin="300" fromJunction="J0" toJunction="J7" end="360" vehsPerHour="397.7186617585437" departLane="free"/>
  <flow id="JF120357" begin="300" fromJunction="J0" toJunction="J4" end="360" vehsPerHour="56.26067122481878" departLane="free"/>
  <flow id="JF120358" begin="300" fromJunction="J0" toJunction="J6" end="360" vehsPerHour="235.7331115213687" departLane="free"/>
  <flow id="JF120359" begin="300" fromJunction="J0" toJunction="J5" end="360" vehsPerHour="140.8696148754679" departLane="free"/>
  <flow id="JF120360" begin="360" fromJunction="J3" toJunction="J0" end="420" vehsPerHour="130.00120288002677" departLane="free"/>
  <flow id="JF120361" begin="360" fromJunction="J0" toJunction="J3" end="420" vehsPerHour="13.390514753996888" departLane="free"/>
  <flow id="JF120362" begin="360" fromJunction="J3" toJunction="J7" end="420" vehsPerHour="460.7951259386121" departLane="free"/>
  <flow id="JF120363" begin="360" fromJunction="J3" toJunction="J4" end="420" vehsPerHour="334.701751713964" departLane="free"/>
  <flow id="JF120364" begin="360" fromJunction="J3" toJunction="J6" end="420" vehsPerHour="535.2934467430838" departLane="free"/>
  <flow id="JF120365" begin="360" fromJunction="J3" toJunction="J5" end="420" vehsPerHour="279.0864726124153" departLane="free"/>
  <flow id="JF120366" begin="360" fromJunction="J0" toJunction="J7" end="420" vehsPerHour="255.00705534753118" departLane="free"/>
  <flow id="JF120367" begin="360" fromJunction="J0" toJunction="J4" end="420" vehsPerHour="266.4284379217375" departLane="free"/>
  <flow id="JF120368" begin="360" fromJunction="J0" toJunction="J6" end="420" vehsPerHour="219.23010724836172" departLane="free"/>
  <flow id="JF120369" begin="360" fromJunction="J0" toJunction="J5" end="420" vehsPerHour="303.8478120414848" departLane="free"/>
  <flow id="JF120370" begin="360" fromJunction="J7" toJunction="J4" end="420" vehsPerHour="7.072725244814631" departLane="free"/>
  <flow id="JF120371" begin="360" fromJunction="J7" toJunction="J6" end="420" vehsPerHour="50.15868376174707" departLane="free"/>
  <flow id="JF120372" begin="360" fromJunction="J7" toJunction="J5" end="420" vehsPerHour="0.20929350293680474" departLane="free"/>
  <flow id="JF120373" begin="360" fromJunction="J4" toJunction="J7" end="420" vehsPerHour="30.68042895223239" departLane="free"/>
  <flow id="JF120374" begin="360" fromJunction="J4" toJunction="J6" end="420" vehsPerHour="61.6858867802257" departLane="free"/>
  <flow id="JF120375" begin="360" fromJunction="J4" toJunction="J5" end="420" vehsPerHour="26.61830026263059" departLane="free"/>
  <flow id="JF120376" begin="360" fromJunction="J6" toJunction="J7" end="420" vehsPerHour="13.371628728279937" departLane="free"/>
  <flow id="JF120377" begin="360" fromJunction="J6" toJunction="J4" end="420" vehsPerHour="37.31902764860606" departLane="free"/>
  <flow id="JF120378" begin="360" fromJunction="J6" toJunction="J5" end="420" vehsPerHour="5.903446741227957" departLane="free"/>
  <flow id="JF120379" begin="360" fromJunction="J5" toJunction="J7" end="420" vehsPerHour="65.33438618428856" departLane="free"/>
  <flow id="JF120380" begin="360" fromJunction="J5" toJunction="J4" end="420" vehsPerHour="0.9381901186048438" departLane="free"/>
  <flow id="JF120381" begin="360" fromJunction="J5" toJunction="J6" end="420" vehsPerHour="15.339214788993512" departLane="free"/>
  <flow id="JF120382" begin="360" fromJunction="J7" toJunction="J3" end="420" vehsPerHour="28.871990954494414" departLane="free"/>
  <flow id="JF120383" begin="360" fromJunction="J7" toJunction="J0" end="420" vehsPerHour="142.532659233797" departLane="free"/>
  <flow id="JF120384" begin="360" fromJunction="J4" toJunction="J3" end="420" vehsPerHour="265.3337045805818" departLane="free"/>
  <flow id="JF120385" begin="360" fromJunction="J4" toJunction="J0" end="420" vehsPerHour="31.216100028470088" departLane="free"/>
  <flow id="JF120386" begin="360" fromJunction="J6" toJunction="J3" end="420" vehsPerHour="45.127463810995" departLane="free"/>
  <flow id="JF120387" begin="360" fromJunction="J6" toJunction="J0" end="420" vehsPerHour="0.06249355032897" departLane="free"/>
  <flow id="JF120388" begin="360" fromJunction="J5" toJunction="J3" end="420" vehsPerHour="188.2028685267054" departLane="free"/>
  <flow id="JF120389" begin="360" fromJunction="J5" toJunction="J0" end="420" vehsPerHour="190.82567369443169" departLane="free"/>
  <flow id="JF120390" begin="420" fromJunction="J3" toJunction="J0" end="480" vehsPerHour="97.55127703384008" departLane="free"/>
  <flow id="JF120391" begin="420" fromJunction="J0" toJunction="J3" end="480" vehsPerHour="93.34565599628176" departLane="free"/>
  <flow id="JF120392" begin="420" fromJunction="J3" toJunction="J7" end="480" vehsPerHour="187.196500826852" departLane="free"/>
  <flow id="JF120393" begin="420" fromJunction="J3" toJunction="J4" end="480" vehsPerHour="454.370062278041" departLane="free"/>
  <flow id="JF120394" begin="420" fromJunction="J3" toJunction="J6" end="480" vehsPerHour="172.60887899094354" departLane="free"/>
  <flow id="JF120395" begin="420" fromJunction="J3" toJunction="J5" end="480" vehsPerHour="37.359949696685746" departLane="free"/>
  <flow id="JF120396" begin="420" fromJunction="J0" toJunction="J7" end="480" vehsPerHour="344.42117408762056" departLane="free"/>
  <flow id="JF120397" begin="420" fromJunction="J0" toJunction="J4" end="480" vehsPerHour="312.80969122389234" departLane="free"/>
  <flow id="JF120398" begin="420" fromJunction="J0" toJunction="J6" end="480" vehsPerHour="411.3889597833151" departLane="free"/>
  <flow id="JF120399" begin="420" fromJunction="J0" toJunction="J5" end="480" vehsPerHour="362.6954431347843" departLane="free"/>
  <flow id="JF120400" begin="420" fromJunction="J7" toJunction="J4" end="480" vehsPerHour="51.50296077798175" departLane="free"/>
  <flow id="JF120401" begin="420" fromJunction="J7" toJunction="J6" end="480" vehsPerHour="39.540391539249065" departLane="free"/>
  <flow id="JF120402" begin="420" fromJunction="J7" toJunction="J5" end="480" vehsPerHour="4.51467264136004" departLane="free"/>
  <flow id="JF120403" begin="420" fromJunction="J4" toJunction="J7" end="480" vehsPerHour="41.57461895328869" departLane="free"/>
  <flow id="JF120404" begin="420" fromJunction="J4" toJunction="J6" end="480" vehsPerHour="63.638476175982014" departLane="free"/>
  <flow id="JF120405" begin="420" fromJunction="J4" toJunction="J5" end="480" vehsPerHour="54.310292087637976" departLane="free"/>
  <flow id="JF120406" begin="420" fromJunction="J6" toJunction="J7" end="480" vehsPerHour="54.27247337724955" departLane="free"/>
  <flow id="JF120407" begin="420" fromJunction="J6" toJunction="J4" end="480" vehsPerHour="20.74788031612217" departLane="free"/>
  <flow id="JF120408" begin="420" fromJunction="J6" toJunction="J5" end="480" vehsPerHour="58.062125295795845" departLane="free"/>
  <flow id="JF120409" begin="420" fromJunction="J5" toJunction="J7" end="480" vehsPerHour="41.96440860221421" departLane="free"/>
  <flow id="JF120410" begin="420" fromJunction="J5" toJunction="J4" end="480" vehsPerHour="49.83928230352596" departLane="free"/>
  <flow id="JF120411" begin="420" fromJunction="J5" toJunction="J6" end="480" vehsPerHour="0.2121375571674508" departLane="free"/>
  <flow id="JF120412" begin="420" fromJunction="J7" toJunction="J3" end="480" vehsPerHour="233.0896563663598" departLane="free"/>
  <flow id="JF120413" begin="420" fromJunction="J7" toJunction="J0" end="480" vehsPerHour="205.60149903585005" departLane="free"/>
  <flow id="JF120414" begin="420" fromJunction="J4" toJunction="J3" end="480" vehsPerHour="207.34413966873115" departLane="free"/>
  <flow id="JF120415" begin="420" fromJunction="J4" toJunction="J0" end="480" vehsPerHour="251.94213522853127" departLane="free"/>
  <flow id="JF120416" begin="420" fromJunction="J6" toJunction="J3" end="480" vehsPerHour="228.28460297490338" departLane="free"/>
  <flow id="JF120417" begin="420" fromJunction="J6" toJunction="J0" end="480" vehsPerHour="249.91179468576613" departLane="free"/>
  <flow id="JF120418" begin="420" fromJunction="J5" toJunction="J3" end="480" vehsPerHour="230.6376094213369" departLane="free"/>
  <flow id="JF120419" begin="420" fromJunction="J5" toJunction="J0" end="480" vehsPerHour="157.33391806610436" departLane="free"/>
  <flow id="JF120420" begin="480" fromJunction="J3" toJunction="J0" end="540" vehsPerHour="133.6176555069839" departLane="free"/>
  <flow id="JF120421" begin="480" fromJunction="J0" toJunction="J3" end="540" vehsPerHour="119.82686430151631" departLane="free"/>
  <flow id="JF120422" begin="480" fromJunction="J3" toJunction="J7" end="540" vehsPerHour="413.4108546176762" departLane="free"/>
  <flow id="JF120423" begin="480" fromJunction="J3" toJunction="J4" end="540" vehsPerHour="345.1877553603753" departLane="free"/>
  <flow id="JF120424" begin="480" fromJunction="J3" toJunction="J6" end="540" vehsPerHour="478.72694118649815" departLane="free"/>
  <flow id="JF120425" begin="480" fromJunction="J3" toJunction="J5" end="540" vehsPerHour="497.94627778026785" departLane="free"/>
  <flow id="JF120426" begin="480" fromJunction="J0" toJunction="J7" end="540" vehsPerHour="478.86499663645054" departLane="free"/>
  <flow id="JF120427" begin="480" fromJunction="J0" toJunction="J4" end="540" vehsPerHour="76.9356109124535" departLane="free"/>
  <flow id="JF120428" begin="480" fromJunction="J0" toJunction="J6" end="540" vehsPerHour="406.5324026917394" departLane="free"/>
  <flow id="JF120429" begin="480" fromJunction="J0" toJunction="J5" end="540" vehsPerHour="110.94338443930569" departLane="free"/>
  <flow id="JF120430" begin="480" fromJunction="J7" toJunction="J4" end="540" vehsPerHour="29.903003803661317" departLane="free"/>
  <flow id="JF120431" begin="480" fromJunction="J7" toJunction="J6" end="540" vehsPerHour="28.979853702972612" departLane="free"/>
  <flow id="JF120432" begin="480" fromJunction="J7" toJunction="J5" end="540" vehsPerHour="65.15180975290497" departLane="free"/>
  <flow id="JF120433" begin="480" fromJunction="J4" toJunction="J7" end="540" vehsPerHour="6.036142850480788" departLane="free"/>
  <flow id="JF120434" begin="480" fromJunction="J4" toJunction="J6" end="540" vehsPerHour="5.487743118505775" departLane="free"/>
  <flow id="JF120435" begin="480" fromJunction="J4" toJunction="J5" end="540" vehsPerHour="16.79328135996175" departLane="free"/>
  <flow id="JF120436" begin="480" fromJunction="J6" toJunction="J7" end="540" vehsPerHour="36.58738808250202" departLane="free"/>
  <flow id="JF120437" begin="480" fromJunction="J6" toJunction="J4" end="540" vehsPerHour="11.188809937510223" departLane="free"/>
  <flow id="JF120438" begin="480" fromJunction="J6" toJunction="J5" end="540" vehsPerHour="53.887968352034285" departLane="free"/>
  <flow id="JF120439" begin="480" fromJunction="J5" toJunction="J7" end="540" vehsPerHour="55.586198193854145" departLane="free"/>
  <flow id="JF120440" begin="480" fromJunction="J5" toJunction="J4" end="540" vehsPerHour="23.285315911836687" departLane="free"/>
  <flow id="JF120441" begin="480" fromJunction="J5" toJunction="J6" end="540" vehsPerHour="43.994232516369" departLane="free"/>
  <flow id="JF120442" begin="480" fromJunction="J7" toJunction="J3" end="540" vehsPerHour="151.3626713309338" departLane="free"/>
  <flow id="JF120443" begin="480" fromJunction="J7" toJunction="J0" end="540" vehsPerHour="103.53734402670533" departLane="free"/>
  <flow id="JF120444" begin="480" fromJunction="J4" toJunction="J3" end="540" vehsPerHour="60.25045250158477" departLane="free"/>
  <flow id="JF120445" begin="480" fromJunction="J4" toJunction="J0" end="540" vehsPerHour="12.271422269546964" departLane="free"/>
  <flow id="JF120446" begin="480" fromJunction="J6" toJunction="J3" end="540" vehsPerHour="219.52925797603373" departLane="free"/>
  <flow id="JF120447" begin="480" fromJunction="J6" toJunction="J0" end="540" vehsPerHour="22.035271749215642" departLane="free"/>
  <flow id="JF120448" begin="480" fromJunction="J5" toJunction="J3" end="540" vehsPerHour="51.29329498027674" departLane="free"/>
  <flow id="JF120449" begin="480" fromJunction="J5" toJunction="J0" end="540" vehsPerHour="257.62750177704163" departLane="free"/>
  <flow id="JF120450" begin="540" fromJunction="J3" toJunction="J0" end="600" vehsPerHour="72.92446445018469" departLane="free"/>
  <flow id="JF120451" begin="540" fromJunction="J0" toJunction="J3" end="600" vehsPerHour="30.380663017414705" departLane="free"/>
  <flow id="JF120452" begin="540" fromJunction="J3" toJunction="J7" end="600" vehsPerHour="94.86340867297021" departLane="free"/>
  <flow id="JF120453" begin="540" fromJunction="J3" toJunction="J4" end="600" vehsPerHour="41.37591076357821" departLane="free"/>
  <flow id="JF120454" begin="540" fromJunction="J3" toJunction="J6" end="600" vehsPerHour="96.07006470421335" departLane="free"/>
  <flow id="JF120455" begin="540" fromJunction="J3" toJunction="J5" end="600" vehsPerHour="210.25509149690504" departLane="free"/>
  <flow id="JF120456" begin="540" fromJunction="J0" toJunction="J7" end="600" vehsPerHour="383.2610176798478" departLane="free"/>
  <flow id="JF120457" begin="540" fromJunction="J0" toJunction="J4" end="600" vehsPerHour="229.4504201185287" departLane="free"/>
  <flow id="JF120458" begin="540" fromJunction="J0" toJunction="J6" end="600" vehsPerHour="312.97824843763993" departLane="free"/>
  <flow id="JF120459" begin="540" fromJunction="J0" toJunction="J5" end="600" vehsPerHour="188.74099195238432" departLane="free"/>
  <flow id="JF120460" begin="600" fromJunction="J3" toJunction="J0" end="660" vehsPerHour="107.54503690554478" departLane="free"/>
  <flow id="JF120461" begin="600" fromJunction="J0" toJunction="J3" end="660" vehsPerHour="107.82114653625196" departLane="free"/>
  <flow id="JF120462" begin="600" fromJunction="J3" toJunction="J7" end="660" vehsPerHour="520.2977772980919" departLane="free"/>
  <flow id="JF120463" begin="600" fromJunction="J3" toJunction="J4" end="660" vehsPerHour="318.640508317171" departLane="free"/>
  <flow id="JF120464" begin="600" fromJunction="J3" toJunction="J6" end="660" vehsPerHour="167.61092915140168" departLane="free"/>
  <flow id="JF120465" begin="600" fromJunction="J3" toJunction="J5" end="660" vehsPerHour="210.28185385640157" departLane="free"/>
  <flow id="JF120466" begin="600" fromJunction="J0" toJunction="J7" end="660" vehsPerHour="303.51481094125774" departLane="free"/>
  <flow id="JF120467" begin="600" fromJunction="J0" toJunction="J4" end="660" vehsPerHour="226.9103356860414" departLane="free"/>
  <flow id="JF120468" begin="600" fromJunction="J0" toJunction="J6" end="660" vehsPerHour="477.7386337484513" departLane="free"/>
  <flow id="JF120469" begin="600" fromJunction="J0" toJunction="J5" end="660" vehsPerHour="464.9184885193613" departLane="free"/>
  <flow id="JF120470" begin="660" fromJunction="J3" toJunction="J0" end="720" vehsPerHour="86.2256340508077" departLane="free"/>
  <flow id="JF120471" begin="660" fromJunction="J0" toJunction="J3" end="720" vehsPerHour="17.615089286383725" departLane="free"/>
  <flow id="JF120472" begin="660" fromJunction="J3" toJunction="J7" end="720" vehsPerHour="58.39980567792758" departLane="free"/>
  <flow id="JF120473" begin="660" fromJunction="J3" toJunction="J4" end="720" vehsPerHour="366.2735427463543" departLane="free"/>
  <flow id="JF120474" begin="660" fromJunction="J3" toJunction="J6" end="720" vehsPerHour="373.9917388289207" departLane="free"/>
  <flow id="JF120475" begin="660" fromJunction="J3" toJunction="J5" end="720" vehsPerHour="543.2799839647262" departLane="free"/>
  <flow id="JF120476" begin="660" fromJunction="J0" toJunction="J7" end="720" vehsPerHour="139.41095802231118" departLane="free"/>
  <flow id="JF120477" begin="660" fromJunction="J0" toJunction="J4" end="720" vehsPerHour="171.82587748797093" departLane="free"/>
  <flow id="JF120478" begin="660" fromJunction="J0" toJunction="J6" end="720" vehsPerHour="101.90655742713383" departLane="free"/>
  <flow id="JF120479" begin="660" fromJunction="J0" toJunction="J5" end="720" vehsPerHour="193.40836181993126" departLane="free"/>
  <flow id="JF120480" begin="660" fromJunction="J7" toJunction="J4" end="720" vehsPerHour="68.01027587248424" departLane="free"/>
  <flow id="JF120481" begin="660" fromJunction="J7" toJunction="J6" end="720" vehsPerHour="4.630928917160707" departLane="free"/>
  <flow id="JF120482" begin="660" fromJunction="J7" toJunction="J5" end="720" vehsPerHour="38.86181755789135" departLane="free"/>
  <flow id="JF120483" begin="660" fromJunction="J4" toJunction="J7" end="720" vehsPerHour="65.22254084179265" departLane="free"/>
  <flow id="JF120484" begin="660" fromJunction="J4" toJunction="J6" end="720" vehsPerHour="44.91306311520795" departLane="free"/>
  <flow id="JF120485" begin="660" fromJunction="J4" toJunction="J5" end="720" vehsPerHour="63.30889833911618" departLane="free"/>
  <flow id="JF120486" begin="660" fromJunction="J6" toJunction="J7" end="720" vehsPerHour="64.35857529089236" departLane="free"/>
  <flow id="JF120487" begin="660" fromJunction="J6" toJunction="J4" end="720" vehsPerHour="19.871305069611314" departLane="free"/>
  <flow id="JF120488" begin="660" fromJunction="J6" toJunction="J5" end="720" vehsPerHour="65.24471611454334" departLane="free"/>