<?xml version="1.0" encoding="UTF-8"?>
<routes xmlns:xsi="http://www.w3.org/2001/XMLSchema-instance" xsi:noNamespaceSchemaLocation="http://sumo.dlr.de/xsd/routes_file.xsd">
  <flow id="JF136420" begin="0" fromJunction="J3" toJunction="J0" end="60" vehsPerHour="62.61932503582312" departLane="free"/>
  <flow id="JF136421" begin="0" fromJunction="J0" toJunction="J3" end="60" vehsPerHour="106.0353419749799" departLane="free"/>
  <flow id="JF136422" begin="0" fromJunction="J3" toJunction="J7" end="60" vehsPerHour="204.40764461028348" departLane="free"/>
  <flow id="JF136423" begin="0" fromJunction="J3" toJunction="J4" end="60" vehsPerHour="82.80365943298301" departLane="free"/>
  <flow id="JF136424" begin="0" fromJunction="J3" toJunction="J6" end="60" vehsPerHour="490.00877164560484" departLane="free"/>
  <flow id="JF136425" begin="0" fromJunction="J3" toJunction="J5" end="60" vehsPerHour="189.44756993116457" departLane="free"/>
  <flow id="JF136426" begin="0" fromJunction="J0" toJunction="J7" end="60" vehsPerHour="287.2291068530657" departLane="free"/>
  <flow id="JF136427" begin="0" fromJunction="J0" toJunction="J4" end="60" vehsPerHour="449.01868041538876" departLane="free"/>
  <flow id="JF136428" begin="0" fromJunction="J0" toJunction="J6" end="60" vehsPerHour="125.51221173242332" departLane="free"/>
  <flow id="JF136429" begin="0" fromJunction="J0" toJunction="J5" end="60" vehsPerHour="40.05143005041709" departLane="free"/>
  <flow id="JF136430" begin="0" fromJunction="J7" toJunction="J4" end="60" vehsPerHour="37.74861127521257" departLane="free"/>
  <flow id="JF136431" begin="0" fromJunction="J7" toJunction="J6" end="60" vehsPerHour="54.218121947599" departLane="free"/>
  <flow id="JF136432" begin="0" fromJunction="J7" toJunction="J5" end="60" vehsPerHour="27.93809240599001" departLane="free"/>
  <flow id="JF136433" begin="0" fromJunction="J4" toJunction="J7" end="60" vehsPerHour="54.53731937598053" departLane="free"/>
  <flow id="JF136434" begin="0" fromJunction="J4" toJunction="J6" end="60" vehsPerHour="33.641398655007485" departLane="free"/>
  <flow id="JF136435" begin="0" fromJunction="J4" toJunction="J5" end="60" vehsPerHour="45.99504754936028" departLane="free"/>
  <flow id="JF136436" begin="0" fromJunction="J6" toJunction="J7" end="60" vehsPerHour="43.16847834209464" departLane="free"/>
  <flow id="JF136437" begin="0" fromJunction="J6" toJunction="J4" end="60" vehsPerHour="68.2817429919555" departLane="free"/>
  <flow id="JF136438" begin="0" fromJunction="J6" toJunction="J5" end="60" vehsPerHour="60.861712595413394" departLane="free"/>
  <flow id="JF136439" begin="0" fromJunction="J5" toJunction="J7" end="60" vehsPerHour="48.02198959824892" departLane="free"/>
  <flow id="JF136440" begin="0" fromJunction="J5" toJunction="J4" end="60" vehsPerHour="48.89498360799891" departLane="free"/>
  <flow id="JF136441" begin="0" fromJunction="J5" toJunction="J6" end="60" vehsPerHour="17.672556646840196" departLane="free"/>
  <flow id="JF136442" begin="0" fromJunction="J7" toJunction="J3" end="60" vehsPerHour="14.64833702115517" departLane="free"/>
  <flow id="JF136443" begin="0" fromJunction="J7" toJunction="J0" end="60" vehsPerHour="82.3344683645373" departLane="free"/>
  <flow id="JF136444" begin="0" fromJunction="J4" toJunction="J3" end="60" vehsPerHour="73.01525704006039" departLane="free"/>
  <flow id="JF136445" begin="0" fromJunction="J4" toJunction="J0" end="60" vehsPerHour="140.56463490548944" departLane="free"/>
  <flow id="JF136446" begin="0" fromJunction="J6" toJunction="J3" end="60" vehsPerHour="41.162182851131256" departLane="free"/>
  <flow id="JF136447" begin="0" fromJunction="J6" toJunction="J0" end="60" vehsPerHour="175.29611704100142" departLane="free"/>
  <flow id="JF136448" begin="0" fromJunction="J5" toJunction="J3" end="60" vehsPerHour="193.40941214911197" departLane="free"/>
  <flow id="JF136449" begin="0" fromJunction="J5" toJunction="J0" end="60" vehsPerHour="198.00830524790717" departLane="free"/>
  <flow id="JF136450" begin="60" fromJunction="J3" toJunction="J0" end="120" vehsPerHour="24.710339537322287" departLane="free"/>
  <flow id="JF136451" begin="60" fromJunction="J0" toJunction="J3" end="120" vehsPerHour="102.25956074153062" departLane="free"/>
  <flow id="JF136452" begin="60" fromJunction="J3" toJunction="J7" end="120" vehsPerHour="185.90797923437572" departLane="free"/>
  <flow id="JF136453" begin="60" fromJunction="J3" toJunction="J4" end="120" vehsPerHour="362.66751679800404" departLane="free"/>
  <flow id="JF136454" begin="60" fromJunction="J3" toJunction="J6" end="120" vehsPerHour="378.6900278636985" departLane="free"/>
  <flow id="JF136455" begin="60" fromJunction="J3" toJunction="J5" end="120" vehsPerHour="450.6097410082064" departLane="free"/>
  <flow id="JF136456" begin="60" fromJunction="J0" toJunction="J7" end="120" vehsPerHour="322.1240267845232" departLane="free"/>
  <flow id="JF136457" begin="60" fromJunction="J0" toJunction="J4" end="120" vehsPerHour="264.144551231357" departLane="free"/>
  <flow id="JF136458" begin="60" fromJunction="J0" toJunction="J6" end="120" vehsPerHour="3.6353421554441865" departLane="free"/>
  <flow id="JF136459" begin="60" fromJunction="J0" toJunction="J5" end="120" vehsPerHour="96.46459117855679" departLane="free"/>
  <flow id="JF136460" begin="120" fromJunction="J3" toJunction="J0" end="180" vehsPerHour="65.47631155224182" departLane="free"/>
  <flow id="JF136461" begin="120" fromJunction="J0" toJunction="J3" end="180" vehsPerHour="125.8782120610696" departLane="free"/>
  <flow id="JF136462" begin="120" fromJunction="J3" toJunction="J7" end="180" vehsPerHour="207.8768120623543" departLane="free"/>
  <flow id="JF136463" begin="120" fromJunction="J3" toJunction="J4" end="180" vehsPerHour="11.959928577675086" departLane="free"/>
  <flow id="JF136464" begin="120" fromJunction="J3" toJunction="J6" end="180" vehsPerHour="478.3291461927192" departLane="free"/>
  <flow id="JF136465" begin="120" fromJunction="J3" toJunction="J5" end="180" vehsPerHour="106.82217919489459" departLane="free"/>
  <flow id="JF136466" begin="120" fromJunction="J0" toJunction="J7" end="180" vehsPerHour="515.7603617527385" departLane="free"/>
  <flow id="JF136467" begin="120" fromJunction="J0" toJunction="J4" end="180" vehsPerHour="20.726525455884328" departLane="free"/>
  <flow id="JF136468" begin="120" fromJunction="J0" toJunction="J6" end="180" vehsPerHour="519.4826771304474" departLane="free"/>
  <flow id="JF136469" begin="120" fromJunction="J0" toJunction="J5" end="180" vehsPerHour="301.9134043745999" departLane="free"/>
  <flow id="JF136470" begin="120" fromJunction="J7" toJunction="J4" end="180" vehsPerHour="54.677016226171226" departLane="free"/>
  <flow id="JF136471" begin="120" fromJunction="J7" toJunction="J6" end="180" vehsPerHour="37.93475252143099" departLane="free"/>
  <flow id="JF136472" begin="120" fromJunction="J7" toJunction="J5" end="180" vehsPerHour="6.313676630824493" departLane="free"/>
  <flow id="JF136473" begin="120" fromJunction="J4" toJunction="J7" end="180" vehsPerHour="4.015221340927406" departLane="free"/>
  <flow id="JF136474" begin="120" fromJunction="J4" toJunction="J6" end="180" vehsPerHour="16.56206221579575" departLane="free"/>
  <flow id="JF136475" begin="120" fromJunction="J4" toJunction="J5" end="180" vehsPerHour="37.24664344882992" departLane="free"/>
  <flow id="JF136476" begin="120" fromJunction="J6" toJunction="J7" end="180" vehsPerHour="41.321541273433894" departLane="free"/>
  <flow id="JF136477" begin="120" fromJunction="J6" toJunction="J4" end="180" vehsPerHour="63.45796112177087" departLane="free"/>
  <flow id="JF136478" begin="120" fromJunction="J6" toJunction="J5" end="180" vehsPerHour="67.0292222918403" departLane="free"/>
  <flow id="JF136479" begin="120" fromJunction="J5" toJunction="J7" end="180" vehsPerHour="67.83286427113264" departLane="free"/>
  <flow id="JF136480" begin="120" fromJunction="J5" toJunction="J4" end="180" vehsPerHour="25.806165404227293" departLane="free"/>
  <flow id="JF136481" begin="120" fromJunction="J5" toJunction="J6" end="180" vehsPerHour="30.521800126686255" departLane="free"/>
  <flow id="JF136482" begin="120" fromJunction="J7" toJunction="J3" end="180" vehsPerHour="184.18542915446173" departLane="free"/>
  <flow id="JF136483" begin="120" fromJunction="J7" toJunction="J0" end="180" vehsPerHour="57.45430401177746" departLane="free"/>
  <flow id="JF136484" begin="120" fromJunction="J4" toJunction="J3" end="180" vehsPerHour="96.44399889214705" departLane="free"/>
  <flow id="JF136485" begin="120" fromJunction="J4" toJunction="J0" end="180" vehsPerHour="163.74469791416942" departLane="free"/>
  <flow id="JF136486" begin="120" fromJunction="J6" toJunction="J3" end="180" vehsPerHour="4.390801285033778" departLane="free"/>
  <flow id="JF136487" begin="120" fromJunction="J6" toJunction="J0" end="180" vehsPerHour="64.21914932893665" departLane="free"/>
  <flow id="JF136488" begin="120" fromJunction="J5" toJunction="J3" end="180" vehsPerHour="181.50734570100863" departLane="free"/>
  <flow id="JF136489" begin="120" fromJunction="J5" toJunction="J0" end="180" vehsPerHour="30.019349841615306" departLane="free"/>
  <flow id="JF136490" begin="180" fromJunction="J3" toJunction="J0" end="240" vehsPerHour="85.33421060236033" departLane="free"/>
  <flow id="JF136491" begin="180" fromJunction="J0" toJunction="J3" end="240" vehsPerHour="97.00436326904432" departLane="free"/>
  <flow id="JF136492" begin="180" fromJunction="J3" toJunction="J7" end="240" vehsPerHour="36.984498417466085" departLane="free"/>
  <flow id="JF136493" begin="180" fromJunction="J3" toJunction="J4" end="240" vehsPerHour="429.12920984556223" departLane="free"/>
  <flow id="JF136494" begin="180" fromJunction="J3" toJunction="J6" end="240" vehsPerHour="522.0222541640228" departLane="free"/>
  <flow id="JF136495" begin="180" fromJunction="J3" toJunction="J5" end="240" vehsPerHour="166.27893859440428" departLane="free"/>
  <flow id="JF136496" begin="180" fromJunction="J0" toJunction="J7" end="240" vehsPerHour="170.22273017510616" departLane="free"/>
  <flow id="JF136497" begin="180" fromJunction="J0" toJunction="J4" end="240" vehsPerHour="503.9654787714933" departLane="free"/>
  <flow id="JF136498" begin="180" fromJunction="J0" toJunction="J6" end="240" vehsPerHour="536.7604102176281" departLane="free"/>
  <flow id="JF136499" begin="180" fromJunction="J0" toJunction="J5" end="240" vehsPerHour="438.2918492462275" departLane="free"/>
  <flow id="JF136500" begin="180" fromJunction="J7" toJunction="J4" end="240" vehsPerHour="31.612863701631095" departLane="free"/>
  <flow id="JF136501" begin="180" fromJunction="J7" toJunction="J6" end="240" vehsPerHour="0.5886558524174875" departLane="free"/>
  <flow id="JF136502" begin="180" fromJunction="J7" toJunction="J5" end="240" vehsPerHour="6.645229566077397" departLane="free"/>
  <flow id="JF136503" begin="180" fromJunction="J4" toJunction="J7" end="240" vehsPerHour="26.325874208036353" departLane="free"/>
  <flow id="JF136504" begin="180" fromJunction="J4" toJunction="J6" end="240" vehsPerHour="38.050795980521016" departLane="free"/>
  <flow id="JF136505" begin="180" fromJunction="J4" toJunction="J5" end="240" vehsPerHour="3.310379006070903" departLane="free"/>
  <flow id="JF136506" begin="180" fromJunction="J6" toJunction="J7" end="240" vehsPerHour="33.183081606372696" departLane="free"/>
  <flow id="JF136507" begin="180" fromJunction="J6" toJunction="J4" end="240" vehsPerHour="65.53374677663955" departLane="free"/>
  <flow id="JF136508" begin="180" fromJunction="J6" toJunction="J5" end="240" vehsPerHour="15.160273602814463" departLane="free"/>
  <flow id="JF136509" begin="180" fromJunction="J5" toJunction="J7" end="240" vehsPerHour="36.83616223028654" departLane="free"/>
  <flow id="JF136510" begin="180" fromJunction="J5" toJunction="J4" end="240" vehsPerHour="14.513807808281545" departLane="free"/>
  <flow id="JF136511" begin="180" fromJunction="J5" toJunction="J6" end="240" vehsPerHour="40.91346232506837" departLane="free"/>
  <flow id="JF136512" begin="180" fromJunction="J7" toJunction="J3" end="240" vehsPerHour="16.42769111608069" departLane="free"/>
  <flow id="JF136513" begin="180" fromJunction="J7" toJunction="J0" end="240" vehsPerHour="169.47897302272222" departLane="free"/>
  <flow id="JF136514" begin="180" fromJunction="J4" toJunction="J3" end="240" vehsPerHour="23.001115932156754" departLane="free"/>
  <flow id="JF136515" begin="180" fromJunction="J4" toJunction="J0" end="240" vehsPerHour="192.63871127784543" departLane="free"/>
  <flow id="JF136516" begin="180" fromJunction="J6" toJunction="J3" end="240" vehsPerHour="253.67192366814845" departLane="free"/>
  <flow id="JF136517" begin="180" fromJunction="J6" toJunction="J0" end="240" vehsPerHour="160.25963863501602" departLane="free"/>
  <flow id="JF136518" begin="180" fromJunction="J5" toJunction="J3" end="240" vehsPerHour="211.96465423453304" departLane="free"/>
  <flow id="JF136519" begin="180" fromJunction="J5" toJunction="J0" end="240" vehsPerHour="141.21711365250457" departLane="free"/>
  <flow id="JF136520" begin="240" fromJunction="J3" toJunction="J0" end="300" vehsPerHour="122.66806946692977" departLane="free"/>
  <flow id="JF136521" begin="240" fromJunction="J0" toJunction="J3" end="300" vehsPerHour="118.32024742688131" departLane="free"/>
  <flow id="JF136522" begin="240" fromJunction="J3" toJunction="J7" end="300" vehsPerHour="260.3180959169033" departLane="free"/>
  <flow id="JF136523" begin="240" fromJunction="J3" toJunction="J4" end="300" vehsPerHour="14.815169840690073" departLane="free"/>
  <flow id="JF136524" begin="240" fromJunction="J3" toJunction="J6" end="300" vehsPerHour="156.78443375159435" departLane="free"/>
  <flow id="JF136525" begin="240" fromJunction="J3" toJunction="J5" end="300" vehsPerHour="490.010837935362" departLane="free"/>
  <flow id="JF136526" begin="240" fromJunction="J0" toJunction="J7" end="300" vehsPerHour="90.23039867494148" departLane="free"/>
  <flow id="JF136527" begin="240" fromJunction="J0" toJunction="J4" end="300" vehsPerHour="202.91317832981525" departLane="free"/>
  <flow id="JF136528" begin="240" fromJunction="J0" toJunction="J6" end="300" vehsPerHour="63.68182311250198" departLane="free"/>
  <flow id="JF136529" begin="240" fromJunction="J0" toJunction="J5" end="300" vehsPerHour="104.50609736151037" departLane="free"/>
  <flow id="JF136530" begin="300" fromJunction="J3" toJunction="J0" end="360" vehsPerHour="77.07758503749277" departLane="free"/>
  <flow id="JF136531" begin="300" fromJunction="J0" toJunction="J3" end="360" vehsPerHour="65.10459247007468" departLane="free"/>
  <flow id="JF136532" begin="300" fromJunction="J3" toJunction="J7" end="360" vehsPerHour="504.79576622759544" departLane="free"/>
  <flow id="JF136533" begin="300" fromJunction="J3" toJunction="J4" end="360" vehsPerHour="353.9633373860739" departLane="free"/>
  <flow id="JF136534" begin="300" fromJunction="J3" toJunction="J6" end="360" vehsPerHour="197.2263238604845" departLane="free"/>
  <flow id="JF136535" begin="300" fromJunction="J3" toJunction="J5" end="360" vehsPerHour="383.89566329231354" departLane="free"/>
  <flow id="JF136536" begin="300" fromJunction="J0" toJunction="J7" end="360" vehsPerHour="532.4000188073198" departLane="free"/>
  <flow id="JF136537" begin="300" fromJunction="J0" toJunction="J4" end="360" vehsPerHour="245.45833134338883" departLane="free"/>
  <flow id="JF136538" begin="300" fromJunction="J0" toJunction="J6" end="360" vehsPerHour="294.8267663415073" departLane="free"/>
  <flow id="JF136539" begin="300" fromJunction="J0" toJunction="J5" end="360" vehsPerHour="151.35375795570496" departLane="free"/>
  <flow id="JF136540" begin="360" fromJunction="J3" toJunction="J0" end="420" vehsPerHour="129.07149642328253" departLane="free"/>
  <flow id="JF136541" begin="360" fromJunction="J0" toJunction="J3" end="420" vehsPerHour="19.925900443796937" departLane="free"/>
  <flow id="JF136542" begin="360" fromJunction="J3" toJunction="J7" end="420" vehsPerHour="372.04922169330996" departLane="free"/>
  <flow id="JF136543" begin="360" fromJunction="J3" toJunction="J4" end="420" vehsPerHour="71.1573735265897" departLane="free"/>
  <flow id="JF136544" begin="360" fromJunction="J3" toJunction="J6" end="420" vehsPerHour="333.72352592413137" departLane="free"/>
  <flow id="JF136545" begin="360" fromJunction="J3" toJunction="J5" end="420" vehsPerHour="202.8552056730961" departLane="free"/>
  <flow id="JF136546" begin="360" fromJunction="J0" toJunction="J7" end="420" vehsPerHour="372.68661154220047" departLane="free"/>
  <flow id="JF136547" begin="360" fromJunction="J0" toJunction="J4" end="420" vehsPerHour="415.38746372602725" departLane="free"/>
  <flow id="JF136548" begin="360" fromJunction="J0" toJunction="J6" end="420" vehsPerHour="35.08056697253637" departLane="free"/>
  <flow id="JF136549" begin="360" fromJunction="J0" toJunction="J5" end="420" vehsPerHour="189.87331178550184" departLane="free"/>
  <flow id="JF136550" begin="420" fromJunction="J3" toJunction="J0" end="480" vehsPerHour="37.55437587844896" departLane="free"/>
  <flow id="JF136551" begin="420" fromJunction="J0" toJunction="J3" end="480" vehsPerHour="75.65993678681042" departLane="free"/>
  <flow id="JF136552" begin="420" fromJunction="J3" toJunction="J7" end="480" vehsPerHour="296.9746998949261" departLane="free"/>
  <flow id="JF136553" begin="420" fromJunction="J3" toJunction="J4" end="480" vehsPerHour="543.7021727180107" departLane="free"/>
  <flow id="JF136554" begin="420" fromJunction="J3" toJunction="J6" end="480" vehsPerHour="171.6223146610257" departLane="free"/>
  <flow id="JF136555" begin="420" fromJunction="J3" toJunction="J5" end="480" vehsPerHour="250.62685657623123" departLane="free"/>
  <flow id="JF136556" begin="420" fromJunction="J0" toJunction="J7" end="480" vehsPerHour="3.576065544893617" departLane="free"/>
  <flow id="JF136557" begin="420" fromJunction="J0" toJunction="J4" end="480" vehsPerHour="329.7956839420231" departLane="free"/>
  <flow id="JF136558" begin="420" fromJunction="J0" toJunction="J6" end="480" vehsPerHour="77.29399431932752" departLane="free"/>
  <flow id="JF136559" begin="420" fromJunction="J0" toJunction="J5" end="480" vehsPerHour="101.36365713062459" departLane="free"/>
  <flow id="JF136560" begin="420" fromJunction="J7" toJunction="J4" end="480" vehsPerHour="40.05687912411966" departLane="free"/>
  <flow id="JF136561" begin="420" fromJunction="J7" toJunction="J6" end="480" vehsPerHour="25.10206093145199" departLane="free"/>
  <flow id="JF136562" begin="420" fromJunction="J7" toJunction="J5" end="480" vehsPerHour="53.435584952371705" departLane="free"/>
  <flow id="JF136563" begin="420" fromJunction="J4" toJunction="J7" end="480" vehsPerHour="60.81179597209272" departLane="free"/>
  <flow id="JF136564" begin="420" fromJunction="J4" toJunction="J6" end="480" vehsPerHour="14.770279558746148" departLane="free"/>
  <flow id="JF136565" begin="420" fromJunction="J4" toJunction="J5" end="480" vehsPerHour="66.55601192990542" departLane="free"/>
  <flow id="JF136566" begin="420" fromJunction="J6" toJunction="J7" end="480" vehsPerHour="58.296220287387705" departLane="free"/>
  <flow id="JF136567" begin="420" fromJunction="J6" toJunction="J4" end="480" vehsPerHour="49.32666415896782" departLane="free"/>
  <flow id="JF136568" begin="420" fromJunction="J6" toJunction="J5" end="480" vehsPerHour="29.914047236126372" departLane="free"/>
  <flow id="JF136569" begin="420" fromJunction="J5" toJunction="J7" end="480" vehsPerHour="62.18542860945331" departLane="free"/>
  <flow id="JF136570" begin="420" fromJunction="J5" toJunction="J4" end="480" vehsPerHour="23.647974051257176" departLane="free"/>
  <flow id="JF136571" begin="420" fromJunction="J5" toJunction="J6" end="480" vehsPerHour="50.30399180729953" departLane="free"/>
  <flow id="JF136572" begin="420" fromJunction="J7" toJunction="J3" end="480" vehsPerHour="127.96311224052045" departLane="free"/>
  <flow id="JF136573" begin="420" fromJunction="J7" toJunction="J0" end="480" vehsPerHour="196.99574829043652" departLane="free"/>
  <flow id="JF136574" begin="420" fromJunction="J4" toJunction="J3" end="480" vehsPerHour="232.72643585638122" departLane="free"/>
  <flow id="JF136575" begin="420" fromJunction="J4" toJunction="J0" end="480" vehsPerHour="84.17229972593049" departLane="free"/>
  <flow id="JF136576" begin="420" fromJunction="J6" toJunction="J3" end="480" vehsPerHour="67.79728178944126" departLane="free"/>
  <flow id="JF136577" begin="420" fromJunction="J6" toJunction="J0" end="480" vehsPerHour="271.0319471049851" departLane="free"/>
  <flow id="JF136578" begin="420" fromJunction="J5" toJunction="J3" end="480" vehsPerHour="179.7522043017453" departLane="free"/>
  <flow id="JF136579" begin="420" fromJunction="J5" toJunction="J0" end="480" vehsPerHour="171.8711585464943" departLane="free"/>
  <flow id="JF136580" begin="480" fromJunction="J3" toJunction="J0" end="540" vehsPerHour="64.40862757711001" departLane="free"/>
  <flow id="JF136581" begin="480" fromJunction="J0" toJunction="J3" end="540" vehsPerHour="127.3838933536294" departLane="free"/>
  <flow id="JF136582" begin="480" fromJunction="J3" toJunction="J7" end="540" vehsPerHour="492.55197376906887" departLane="free"/>
  <flow id="JF136583" begin="480" fromJunction="J3" toJunction="J4" end="540" vehsPerHour="458.1397906790512" departLane="free"/>
  <flow id="JF136584" begin="480" fromJunction="J3" toJunction="J6" end="540" vehsPerHour="359.53431704947155" departLane="free"/>
  <flow id="JF136585" begin="480" fromJunction="J3" toJunction="J5" end="540" vehsPerHour="310.2875377549096" departLane="free"/>
  <flow id="JF136586" begin="480" fromJunction="J0" toJunction="J7" end="540" vehsPerHour="546.9480476159146" departLane="free"/>
  <flow id="JF136587" begin="480" fromJunction="J0" toJunction="J4" end="540" vehsPerHour="91.19413378824056" departLane="free"/>
  <flow id="JF136588" begin="480" fromJunction="J0" toJunction="J6" end="540" vehsPerHour="388.03813139832056" departLane="free"/>
  <flow id="JF136589" begin="480" fromJunction="J0" toJunction="J5" end="540" vehsPerHour="468.8796895773757" departLane="free"/>
  <flow id="JF136590" begin="480" fromJunction="J7" toJunction="J4" end="540" vehsPerHour="37.18078720839482" departLane="free"/>
  <flow id="JF136591" begin="480" fromJunction="J7" toJunction="J6" end="540" vehsPerHour="44.4034855292107" departLane="free"/>
  <flow id="JF136592" begin="480" fromJunction="J7" toJunction="J5" end="540" vehsPerHour="26.627966312699673" departLane="free"/>
  <flow id="JF136593" begin="480" fromJunction="J4" toJunction="J7" end="540" vehsPerHour="59.33311073487637" departLane="free"/>
  <flow id="JF136594" begin="480" fromJunction="J4" toJunction="J6" end="540" vehsPerHour="67.94840374770021" departLane="free"/>
  <flow id="JF136595" begin="480" fromJunction="J4" toJunction="J5" end="540" vehsPerHour="22.03064677999208" departLane="free"/>
  <flow id="JF136596" begin="480" fromJunction="J6" toJunction="J7" end="540" vehsPerHour="58.74265599976875" departLane="free"/>
  <flow id="JF136597" begin="480" fromJunction="J6" toJunction="J4" end="540" vehsPerHour="64.21124299949128" departLane="free"/>
  <flow id="JF136598" begin="480" fromJunction="J6" toJunction="J5" end="540" vehsPerHour="39.86613772190802" departLane="free"/>
  <flow id="JF136599" begin="480" fromJunction="J5" toJunction="J7" end="540" vehsPerHour="13.336612660325374" departLane="free"/>
  <flow id="JF136600" begin="480" fromJunction="J5" toJunction="J4" end="540" vehsPerHour="16.256499204249277" departLane="free"/>
  <flow id="JF136601" begin="480" fromJunction="J5" toJunction="J6" end="540" vehsPerHour="28.825751148156986" departLane="free"/>
  <flow id="JF136602" begin="480" fromJunction="J7" toJunction="J3" end="540" vehsPerHour="269.410698105304" departLane="free"/>
  <flow id="JF136603" begin="480" fromJunction="J7" toJunction="J0" end="540" vehsPerHour="141.21851611039614" departLane="free"/>
  <flow id="JF136604" begin="480" fromJunction="J4" toJunction="J3" end="540" vehsPerHour="235.00125552603097" departLane="free"/>
  <flow id="JF136605" begin="480" fromJunction="J4" toJunction="J0" end="540" vehsPerHour="109.43762135226365" departLane="free"/>
  <flow id="JF136606" begin="480" fromJunction="J6" toJunction="J3" end="540" vehsPerHour="126.4641047636181" departLane="free"/>
  <flow id="JF136607" begin="480" fromJunction="J6" toJunction="J0" end="540" vehsPerHour="257.52461718083055" departLane="free"/>
  <flow id="JF136608" begin="480" fromJunction="J5" toJunction="J3" end="540" vehsPerHour="267.4726016859535" departLane="free"/>
  <flow id="JF136609" begin="480" fromJunction="J5" toJunction="J0" end="540" vehsPerHour="250.03963527352508" departLane="free"/>
  <flow id="JF136610" begin="540" fromJunction="J3" toJunction="J0" end="600" vehsPerHour="96.59887844954375" departLane="free"/>
  <flow id="JF136611" begin="540" fromJunction="J0" toJunction="J3" end="600" vehsPerHour="1.3546120901138048" departLane="free"/>
  <flow id="JF136612" begin="540" fromJunction="J3" toJunction="J7" end="600" vehsPerHour="396.8950459517692" departLane="free"/>
  <flow id="JF136613" begin="540" fromJunction="J3" toJunction="J4" end="600" vehsPerHour="261.9566499086742" departLane="free"/>
  <flow id="JF136614" begin="540" fromJunction="J3" toJunction="J6" end="600" vehsPerHour="45.6096095281341" departLane="free"/>
  <flow id="JF136615" begin="540" fromJunction="J3" toJunction="J5" end="600" vehsPerHour="224.25239455142426" departLane="free"/>
  <flow id="JF136616" begin="540" fromJunction="J0" toJunction="J7" end="600" vehsPerHour="232.728545342863" departLane="free"/>
  <flow id="JF136617" begin="540" fromJunction="J0" toJunction="J4" end="600" vehsPerHour="306.08143298711457" departLane="free"/>
  <flow id="JF136618" begin="540" fromJunction="J0" toJunction="J6" end="600" vehsPerHour="74.04069255379986" departLane="free"/>
  <flow id="JF136619" begin="540" fromJunction="J0" toJunction="J5" end="600" vehsPerHour="103.66944843048461" departLane="free"/>
  <flow id="JF136620" begin="600" fromJunction="J3" toJunction="J0" end="660" vehsPerHour="45.83369585834942" departLane="free"/>
  <flow id="JF136621" begin="600" fromJunction="J0" toJunction="J3" end="660" vehsPerHour="32.4486616096678" departLane="free"/>
  <flow id="JF136622" begin="600" fromJunction="J3" toJunction="J7" end="660" vehsPerHour="494.2133429892311" departLane="free"/>
  <flow id="JF136623" begin="600" fromJunction="J3" toJunction="J4" end="660" vehsPerHour="45.63105621606467" departLane="free"/>
  <flow id="JF136624" begin="600" fromJunction="J3" toJunction="J6" end="660" vehsPerHour="428.2420935105615" departLane="free"/>
  <flow id="JF136625" begin="600" fromJunction="J3" toJunction="J5" end="660" vehsPerHour="182.44159805476676" departLane="free"/>
  <flow id="JF136626" begin="600" fromJunction="J0" toJunction="J7" end="660" vehsPerHour="89.6808052791335" departLane="free"/>
  <flow id="JF136627" begin="600" fromJunction="J0" toJunction="J4" end="660" vehsPerHour="48.83311145248164" departLane="free"/>
  <flow id="JF136628" begin="600" fromJunction="J0" toJunction="J6" end="660" vehsPerHour="500.55069398800265" departLane="free"/>
  <flow id="JF136629" begin="600" fromJunction="J0" toJunction="J5" end="660" vehsPerHour="291.3317641236005" departLane="free"/>
  <flow id="JF136630" begin="600" fromJunction="J7" toJunction="J4" end="660" vehsPerHour="44.56429762454594" departLane="free"/>
  <flow id="JF136631" begin="600" fromJunction="J7" toJunction="J6" end="660" vehsPerHour="44.935451481120346" departLane="free"/>
  <flow id="JF136632" begin="600" fromJunction="J7" toJunction="J5" end="660" vehsPerHour="42.011880477706626" departLane="free"/>
  <flow id="JF136633" begin="600" fromJunction="J4" toJunction="J7" end="660" vehsPerHour="14.230548076583629" departLane="free"/>
  <flow id="JF136634" begin="600" fromJunction="J4" toJunction="J6" end="660" vehsPerHour="45.631737958367" departLane="free"/>
  <flow id="JF136635" begin="600" fromJunction="J4" toJunction="J5" end="660" vehsPerHour="29.618901149973617" departLane="free"/>
  <flow id="JF136636" begin="600" fromJunction="J6" toJunction="J7" end="660" vehsPerHour="47.39615460665168" departLane="free"/>
  <flow id="JF136637" begin="600" fromJunction="J6" toJunction="J4" end="660" vehsPerHour="10.519527382228976" departLane="free"/>
  <flow id="JF136638" begin="600" fromJunction="J6" toJunction="J5" end="660" vehsPerHour="52.9154750724175" departLane="free"/>
  <flow id="JF136639" begin="600" fromJunction="J5" toJunction="J7" end="660" vehsPerHour="63.57940085937827" departLane="free"/>
  <flow id="JF136640" begin="600" fromJunction="J5" toJunction="J4" end="660" vehsPerHour="48.214609745615725" departLane="free"/>
  <flow id="JF136641" begin="600" fromJunction="J5" toJunction="J6" end="660" vehsPerHour="42.68965880565378" departLane="free"/>
  <flow id="JF136642" begin="600" fromJunction="J7" toJunction="J3" end="660" vehsPerHour="140.30808818382374" departLane="free"/>
  <flow id="JF136643" begin="600" fromJunction="J7" toJunction="J0" end="660" vehsPerHour="208.3237868740009" departLane="free"/>
  <flow id="JF136644" begin="600" fromJunction="J4" toJunction="J3" end="660" vehsPerHour="266.40606533420345" departLane="free"/>
  <flow id="JF136645" begin="600" fromJunction="J4" toJunction="J0" end="660" vehsPerHour="244.8111577316878" departLane="free"/>
  <flow id="JF136646" begin="600" fromJunction="J6" toJunction="J3" end="660" vehsPerHour="255.61945687664056" departLane="free"/>
  <flow id="JF136647" begin="600" fromJunction="J6" toJunction="J0" end="660" vehsPerHour="253.49122203378874" departLane="free"/>
  <flow id="JF136648" begin="600" fromJunction="J5" toJunction="J3" end="660" vehsPerHour="222.45679637252468" departLane="free"/>