<?xml version="1.0" encoding="UTF-8"?>
<routes xmlns:xsi="http://www.w3.org/2001/XMLSchema-instance" xsi:noNamespaceSchemaLocation="http://sumo.dlr.de/xsd/routes_file.xsd">
  <flow id="JF132220" begin="0" fromJunction="J3" toJunction="J0" end="60" vehsPerHour="50.50748179077397" departLane="free"/>
  <flow id="JF132221" begin="0" fromJunction="J0" toJunction="J3" end="60" vehsPerHour="109.02808268879677" departLane="free"/>
  <flow id="JF132222" begin="0" fromJunction="J3" toJunction="J7" end="60" vehsPerHour="77.13867742329344" departLane="free"/>
  <flow id="JF132223" begin="0" fromJunction="J3" toJunction="J4" end="60" vehsPerHour="89.12979928660299" departLane="free"/>
  <flow id="JF132224" begin="0" fromJunction="J3" toJunction="J6" end="60" vehsPerHour="407.3941681195295" departLane="free"/>
  <flow id="JF132225" begin="0" fromJunction="J3" toJunction="J5" end="60" vehsPerHour="243.86636997329754" departLane="free"/>
  <flow id="JF132226" begin="0" fromJunction="J0" toJunction="J7" end="60" vehsPerHour="487.2641708866284" departLane="free"/>
  <flow id="JF132227" begin="0" fromJunction="J0" toJunction="J4" end="60" vehsPerHour="98.59765895363941" departLane="free"/>
  <flow id="JF132228" begin="0" fromJunction="J0" toJunction="J6" end="60" vehsPerHour="519.1169161364286" departLane="free"/>
  <flow id="JF132229" begin="0" fromJunction="J0" toJunction="J5" end="60" vehsPerHour="394.5583658329302" departLane="free"/>
  <flow id="JF132230" begin="60" fromJunction="J3" toJunction="J0" end="120" vehsPerHour="26.547197121101664" departLane="free"/>
  <flow id="JF132231" begin="60" fromJunction="J0" toJunction="J3" end="120" vehsPerHour="83.2192639127841" departLane="free"/>
  <flow id="JF132232" begin="60" fromJunction="J3" toJunction="J7" end="120" vehsPerHour="191.7647070196994" departLane="free"/>
  <flow id="JF132233" begin="60" fromJunction="J3" toJunction="J4" end="120" vehsPerHour="499.00318219385207" departLane="free"/>
  <flow id="JF132234" begin="60" fromJunction="J3" toJunction="J6" end="120" vehsPerHour="304.50073946845055" departLane="free"/>
  <flow id="JF132235" begin="60" fromJunction="J3" toJunction="J5" end="120" vehsPerHour="507.38275290411633" departLane="free"/>
  <flow id="JF132236" begin="60" fromJunction="J0" toJunction="J7" end="120" vehsPerHour="162.88322643203708" departLane="free"/>
  <flow id="JF132237" begin="60" fromJunction="J0" toJunction="J4" end="120" vehsPerHour="32.69383614658794" departLane="free"/>
  <flow id="JF132238" begin="60" fromJunction="J0" toJunction="J6" end="120" vehsPerHour="151.18690069686113" departLane="free"/>
  <flow id="JF132239" begin="60" fromJunction="J0" toJunction="J5" end="120" vehsPerHour="351.18425389421765" departLane="free"/>
  <flow id="JF132240" begin="60" fromJunction="J7" toJunction="J4" end="120" vehsPerHour="26.603560320898143" departLane="free"/>
  <flow id="JF132241" begin="60" fromJunction="J7" toJunction="J6" end="120" vehsPerHour="3.1571677553658253" departLane="free"/>
  <flow id="JF132242" begin="60" fromJunction="J7" toJunction="J5" end="120" vehsPerHour="56.418827960416166" departLane="free"/>
  <flow id="JF132243" begin="60" fromJunction="J4" toJunction="J7" end="120" vehsPerHour="58.633643711785595" departLane="free"/>
  <flow id="JF132244" begin="60" fromJunction="J4" toJunction="J6" end="120" vehsPerHour="64.34878193899446" departLane="free"/>
  <flow id="JF132245" begin="60" fromJunction="J4" toJunction="J5" end="120" vehsPerHour="42.01834528892936" departLane="free"/>
  <flow id="JF132246" begin="60" fromJunction="J6" toJunction="J7" end="120" vehsPerHour="1.944059234185637" departLane="free"/>
  <flow id="JF132247" begin="60" fromJunction="J6" toJunction="J4" end="120" vehsPerHour="28.226268265186498" departLane="free"/>
  <flow id="JF132248" begin="60" fromJunction="J6" toJunction="J5" end="120" vehsPerHour="35.51848367342716" departLane="free"/>
  <flow id="JF132249" begin="60" fromJunction="J5" toJunction="J7" end="120" vehsPerHour="22.768244025231137" departLane="free"/>
  <flow id="JF132250" begin="60" fromJunction="J5" toJunction="J4" end="120" vehsPerHour="52.20583813429566" departLane="free"/>
  <flow id="JF132251" begin="60" fromJunction="J5" toJunction="J6" end="120" vehsPerHour="45.672465760699716" departLane="free"/>
  <flow id="JF132252" begin="60" fromJunction="J7" toJunction="J3" end="120" vehsPerHour="155.88339550469559" departLane="free"/>
  <flow id="JF132253" begin="60" fromJunction="J7" toJunction="J0" end="120" vehsPerHour="73.49719592033586" departLane="free"/>
  <flow id="JF132254" begin="60" fromJunction="J4" toJunction="J3" end="120" vehsPerHour="53.65420218818981" departLane="free"/>
  <flow id="JF132255" begin="60" fromJunction="J4" toJunction="J0" end="120" vehsPerHour="222.66682648582665" departLane="free"/>
  <flow id="JF132256" begin="60" fromJunction="J6" toJunction="J3" end="120" vehsPerHour="170.50691920035172" departLane="free"/>
  <flow id="JF132257" begin="60" fromJunction="J6" toJunction="J0" end="120" vehsPerHour="157.5519557469735" departLane="free"/>
  <flow id="JF132258" begin="60" fromJunction="J5" toJunction="J3" end="120" vehsPerHour="78.16896762959496" departLane="free"/>
  <flow id="JF132259" begin="60" fromJunction="J5" toJunction="J0" end="120" vehsPerHour="37.98463706358346" departLane="free"/>
  <flow id="JF132260" begin="120" fromJunction="J3" toJunction="J0" end="180" vehsPerHour="137.11800252486816" departLane="free"/>
  <flow id="JF132261" begin="120" fromJunction="J0" toJunction="J3" end="180" vehsPerHour="14.550552855424746" departLane="free"/>
  <flow id="JF132262" begin="120" fromJunction="J3" toJunction="J7" end="180" vehsPerHour="136.67138696863861" departLane="free"/>
  <flow id="JF132263" begin="120" fromJunction="J3" toJunction="J4" end="180" vehsPerHour="472.766992836292" departLane="free"/>
  <flow id="JF132264" begin="120" fromJunction="J3" toJunction="J6" end="180" vehsPerHour="192.3867113617253" departLane="free"/>
  <flow id="JF132265" begin="120" fromJunction="J3" toJunction="J5" end="180" vehsPerHour="431.8947752380786" departLane="free"/>
  <flow id="JF132266" begin="120" fromJunction="J0" toJunction="J7" end="180" vehsPerHour="173.97676137634824" departLane="free"/>
  <flow id="JF132267" begin="120" fromJunction="J0" toJunction="J4" end="180" vehsPerHour="462.4103644349804" departLane="free"/>
  <flow id="JF132268" begin="120" fromJunction="J0" toJunction="J6" end="180" vehsPerHour="165.98980772031237" departLane="free"/>
  <flow id="JF132269" begin="120" fromJunction="J0" toJunction="J5" end="180" vehsPerHour="50.271944323515925" departLane="free"/>
  <flow id="JF132270" begin="180" fromJunction="J3" toJunction="J0" end="240" vehsPerHour="73.2261845638535" departLane="free"/>
  <flow id="JF132271" begin="180" fromJunction="J0" toJunction="J3" end="240" vehsPerHour="89.19465877059882" departLane="free"/>
  <flow id="JF132272" begin="180" fromJunction="J3" toJunction="J7" end="240" vehsPerHour="92.86828945365238" departLane="free"/>
  <flow id="JF132273" begin="180" fromJunction="J3" toJunction="J4" end="240" vehsPerHour="243.4645028668078" departLane="free"/>
  <flow id="JF132274" begin="180" fromJunction="J3" toJunction="J6" end="240" vehsPerHour="229.04453919576898" departLane="free"/>
  <flow id="JF132275" begin="180" fromJunction="J3" toJunction="J5" end="240" vehsPerHour="466.6571569103753" departLane="free"/>
  <flow id="JF132276" begin="180" fromJunction="J0" toJunction="J7" end="240" vehsPerHour="412.4861696692526" departLane="free"/>
  <flow id="JF132277" begin="180" fromJunction="J0" toJunction="J4" end="240" vehsPerHour="403.2369913738286" departLane="free"/>
  <flow id="JF132278" begin="180" fromJunction="J0" toJunction="J6" end="240" vehsPerHour="479.28555703639813" departLane="free"/>
  <flow id="JF132279" begin="180" fromJunction="J0" toJunction="J5" end="240" vehsPerHour="425.71882346697265" departLane="free"/>
  <flow id="JF132280" begin="240" fromJunction="J3" toJunction="J0" end="300" vehsPerHour="78.90317982114416" departLane="free"/>
  <flow id="JF132281" begin="240" fromJunction="J0" toJunction="J3" end="300" vehsPerHour="117.67669532588214" departLane="free"/>
  <flow id="JF132282" begin="240" fromJunction="J3" toJunction="J7" end="300" vehsPerHour="23.289619467977136" departLane="free"/>
  <flow id="JF132283" begin="240" fromJunction="J3" toJunction="J4" end="300" vehsPerHour="442.21617921021857" departLane="free"/>
  <flow id="JF132284" begin="240" fromJunction="J3" toJunction="J6" end="300" vehsPerHour="311.97870162991563" departLane="free"/>
  <flow id="JF132285" begin="240" fromJunction="J3" toJunction="J5" end="300" vehsPerHour="268.9850003653271" departLane="free"/>
  <flow id="JF132286" begin="240" fromJunction="J0" toJunction="J7" end="300" vehsPerHour="129.77735341394694" departLane="free"/>
  <flow id="JF132287" begin="240" fromJunction="J0" toJunction="J4" end="300" vehsPerHour="284.2595780506875" departLane="free"/>
  <flow id="JF132288" begin="240" fromJunction="J0" toJunction="J6" end="300" vehsPerHour="430.3378641676818" departLane="free"/>
  <flow id="JF132289" begin="240" fromJunction="J0" toJunction="J5" end="300" vehsPerHour="471.7618195812886" departLane="free"/>
  <flow id="JF132290" begin="240" fromJunction="J7" toJunction="J4" end="300" vehsPerHour="41.35463279554735" departLane="free"/>
  <flow id="JF132291" begin="240" fromJunction="J7" toJunction="J6" end="300" vehsPerHour="56.7249246835131" departLane="free"/>
  <flow id="JF132292" begin="240" fromJunction="J7" toJunction="J5" end="300" vehsPerHour="29.1341012224715" departLane="free"/>
  <flow id="JF132293" begin="240" fromJunction="J4" toJunction="J7" end="300" vehsPerHour="44.661626478059894" departLane="free"/>
  <flow id="JF132294" begin="240" fromJunction="J4" toJunction="J6" end="300" vehsPerHour="15.445298772334509" departLane="free"/>
  <flow id="JF132295" begin="240" fromJunction="J4" toJunction="J5" end="300" vehsPerHour="1.2010582327008754" departLane="free"/>
  <flow id="JF132296" begin="240" fromJunction="J6" toJunction="J7" end="300" vehsPerHour="13.579377067966906" departLane="free"/>
  <flow id="JF132297" begin="240" fromJunction="J6" toJunction="J4" end="300" vehsPerHour="30.950625450710028" departLane="free"/>
  <flow id="JF132298" begin="240" fromJunction="J6" toJunction="J5" end="300" vehsPerHour="3.7748825023918964" departLane="free"/>
  <flow id="JF132299" begin="240" fromJunction="J5" toJunction="J7" end="300" vehsPerHour="23.738265694095627" departLane="free"/>
  <flow id="JF132300" begin="240" fromJunction="J5" toJunction="J4" end="300" vehsPerHour="18.899924173314982" departLane="free"/>
  <flow id="JF132301" begin="240" fromJunction="J5" toJunction="J6" end="300" vehsPerHour="43.241826892781596" departLane="free"/>
  <flow id="JF132302" begin="240" fromJunction="J7" toJunction="J3" end="300" vehsPerHour="205.88235291592096" departLane="free"/>
  <flow id="JF132303" begin="240" fromJunction="J7" toJunction="J0" end="300" vehsPerHour="64.22021410227231" departLane="free"/>
  <flow id="JF132304" begin="240" fromJunction="J4" toJunction="J3" end="300" vehsPerHour="104.81810440569583" departLane="free"/>
  <flow id="JF132305" begin="240" fromJunction="J4" toJunction="J0" end="300" vehsPerHour="222.30698286233658" departLane="free"/>
  <flow id="JF132306" begin="240" fromJunction="J6" toJunction="J3" end="300" vehsPerHour="255.80026790482097" departLane="free"/>
  <flow id="JF132307" begin="240" fromJunction="J6" toJunction="J0" end="300" vehsPerHour="155.0294053330857" departLane="free"/>
  <flow id="JF132308" begin="240" fromJunction="J5" toJunction="J3" end="300" vehsPerHour="200.73293279204248" departLane="free"/>
  <flow id="JF132309" begin="240" fromJunction="J5" toJunction="J0" end="300" vehsPerHour="55.30635770039509" departLane="free"/>
  <flow id="JF132310" begin="300" fromJunction="J3" toJunction="J0" end="360" vehsPerHour="81.96821876579295" departLane="free"/>
  <flow id="JF132311" begin="300" fromJunction="J0" toJunction="J3" end="360" vehsPerHour="89.32600346058587" departLane="free"/>
  <flow id="JF132312" begin="300" fromJunction="J3" toJunction="J7" end="360" vehsPerHour="45.96761195952828" departLane="free"/>
  <flow id="JF132313" begin="300" fromJunction="J3" toJunction="J4" end="360" vehsPerHour="152.43018818010555" departLane="free"/>
  <flow id="JF132314" begin="300" fromJunction="J3" toJunction="J6" end="360" vehsPerHour="274.5576725118042" departLane="free"/>
  <flow id="JF132315" begin="300" fromJunction="J3" toJunction="J5" end="360" vehsPerHour="270.015375153692" departLane="free"/>
  <flow id="JF132316" begin="300" fromJunction="J0" toJunction="J7" end="360" vehsPerHour="384.69157777034985" departLane="free"/>
  <flow id="JF132317" begin="300" fromJunction="J0" toJunction="J4" end="360" vehsPerHour="159.54111463701616" departLane="free"/>
  <flow id="JF132318" begin="300" fromJunction="J0" toJunction="J6" end="360" vehsPerHour="123.964789288269" departLane="free"/>
  <flow id="JF132319" begin="300" fromJunction="J0" toJunction="J5" end="360" vehsPerHour="231.20772659757338" departLane="free"/>
  <flow id="JF132320" begin="300" fromJunction="J7" toJunction="J4" end="360" vehsPerHour="53.42375673433368" departLane="free"/>
  <flow id="JF132321" begin="300" fromJunction="J7" toJunction="J6" end="360" vehsPerHour="40.6827395793515" departLane="free"/>
  <flow id="JF132322" begin="300" fromJunction="J7" toJunction="J5" end="360" vehsPerHour="45.87751507250964" departLane="free"/>
  <flow id="JF132323" begin="300" fromJunction="J4" toJunction="J7" end="360" vehsPerHour="27.871288257519407" departLane="free"/>
  <flow id="JF132324" begin="300" fromJunction="J4" toJunction="J6" end="360" vehsPerHour="17.17083803587153" departLane="free"/>
  <flow id="JF132325" begin="300" fromJunction="J4" toJunction="J5" end="360" vehsPerHour="47.143580399602094" departLane="free"/>
  <flow id="JF132326" begin="300" fromJunction="J6" toJunction="J7" end="360" vehsPerHour="18.33173733780385" departLane="free"/>
  <flow id="JF132327" begin="300" fromJunction="J6" toJunction="J4" end="360" vehsPerHour="0.17180014996636175" departLane="free"/>
  <flow id="JF132328" begin="300" fromJunction="J6" toJunction="J5" end="360" vehsPerHour="14.618085335483041" departLane="free"/>
  <flow id="JF132329" begin="300" fromJunction="J5" toJunction="J7" end="360" vehsPerHour="17.054639583861512" departLane="free"/>
  <flow id="JF132330" begin="300" fromJunction="J5" toJunction="J4" end="360" vehsPerHour="22.794089552786637" departLane="free"/>
  <flow id="JF132331" begin="300" fromJunction="J5" toJunction="J6" end="360" vehsPerHour="46.391786261096236" departLane="free"/>
  <flow id="JF132332" begin="300" fromJunction="J7" toJunction="J3" end="360" vehsPerHour="74.97232208719255" departLane="free"/>
  <flow id="JF132333" begin="300" fromJunction="J7" toJunction="J0" end="360" vehsPerHour="136.19314085786706" departLane="free"/>
  <flow id="JF132334" begin="300" fromJunction="J4" toJunction="J3" end="360" vehsPerHour="222.5172783094561" departLane="free"/>
  <flow id="JF132335" begin="300" fromJunction="J4" toJunction="J0" end="360" vehsPerHour="93.34998087536545" departLane="free"/>
  <flow id="JF132336" begin="300" fromJunction="J6" toJunction="J3" end="360" vehsPerHour="260.45034770556623" departLane="free"/>
  <flow id="JF132337" begin="300" fromJunction="J6" toJunction="J0" end="360" vehsPerHour="185.5128875050783" departLane="free"/>
  <flow id="JF132338" begin="300" fromJunction="J5" toJunction="J3" end="360" vehsPerHour="266.3914750696186" departLane="free"/>
  <flow id="JF132339" begin="300" fromJunction="J5" toJunction="J0" end="360" vehsPerHour="214.30037079130804" departLane="free"/>
  <flow id="JF132340" begin="360" fromJunction="J3" toJunction="J0" end="420" vehsPerHour="39.22682115257284" departLane="free"/>
  <flow id="JF132341" begin="360" fromJunction="J0" toJunction="J3" end="420" vehsPerHour="66.43754933785642" departLane="free"/>
  <flow id="JF132342" begin="360" fromJunction="J3" toJunction="J7" end="420" vehsPerHour="315.39089150214113" departLane="free"/>
  <flow id="JF132343" begin="360" fromJunction="J3" toJunction="J4" end="420" vehsPerHour="413.47969010520944" departLane="free"/>
  <flow id="JF132344" begin="360" fromJunction="J3" toJunction="J6" end="420" vehsPerHour="301.0801447665416" departLane="free"/>
  <flow id="JF132345" begin="360" fromJunction="J3" toJunction="J5" end="420" vehsPerHour="170.8513871677535" departLane="free"/>
  <flow id="JF132346" begin="360" fromJunction="J0" toJunction="J7" end="420" vehsPerHour="270.9065682256804" departLane="free"/>
  <flow id="JF132347" begin="360" fromJunction="J0" toJunction="J4" end="420" vehsPerHour="465.02465909874434" departLane="free"/>
  <flow id="JF132348" begin="360" fromJunction="J0" toJunction="J6" end="420" vehsPerHour="227.10366692727976" departLane="free"/>
  <flow id="JF132349" begin="360" fromJunction="J0" toJunction="J5" end="420" vehsPerHour="65.15098389067619" departLane="free"/>
  <flow id="JF132350" begin="360" fromJunction="J7" toJunction="J4" end="420" vehsPerHour="51.45628453054415" departLane="free"/>
  <flow id="JF132351" begin="360" fromJunction="J7" toJunction="J6" end="420" vehsPerHour="37.46293429976669" departLane="free"/>
  <flow id="JF132352" begin="360" fromJunction="J7" toJunction="J5" end="420" vehsPerHour="43.9788379156096" departLane="free"/>
  <flow id="JF132353" begin="360" fromJunction="J4" toJunction="J7" end="420" vehsPerHour="59.38271833784897" departLane="free"/>
  <flow id="JF132354" begin="360" fromJunction="J4" toJunction="J6" end="420" vehsPerHour="53.34789468186913" departLane="free"/>
  <flow id="JF132355" begin="360" fromJunction="J4" toJunction="J5" end="420" vehsPerHour="50.17487158978103" departLane="free"/>
  <flow id="JF132356" begin="360" fromJunction="J6" toJunction="J7" end="420" vehsPerHour="13.559205202482373" departLane="free"/>
  <flow id="JF132357" begin="360" fromJunction="J6" toJunction="J4" end="420" vehsPerHour="16.809699355084394" departLane="free"/>
  <flow id="JF132358" begin="360" fromJunction="J6" toJunction="J5" end="420" vehsPerHour="0.463252323756265" departLane="free"/>
  <flow id="JF132359" begin="360" fromJunction="J5" toJunction="J7" end="420" vehsPerHour="26.509949129752105" departLane="free"/>
  <flow id="JF132360" begin="360" fromJunction="J5" toJunction="J4" end="420" vehsPerHour="49.89325531049792" departLane="free"/>
  <flow id="JF132361" begin="360" fromJunction="J5" toJunction="J6" end="420" vehsPerHour="46.60421662732869" departLane="free"/>
  <flow id="JF132362" begin="360" fromJunction="J7" toJunction="J3" end="420" vehsPerHour="92.98825957623097" departLane="free"/>
  <flow id="JF132363" begin="360" fromJunction="J7" toJunction="J0" end="420" vehsPerHour="173.53390468598062" departLane="free"/>
  <flow id="JF132364" begin="360" fromJunction="J4" toJunction="J3" end="420" vehsPerHour="85.98015866189108" departLane="free"/>
  <flow id="JF132365" begin="360" fromJunction="J4" toJunction="J0" end="420" vehsPerHour="13.552120360910026" departLane="free"/>
  <flow id="JF132366" begin="360" fromJunction="J6" toJunction="J3" end="420" vehsPerHour="62.71772577558047" departLane="free"/>
  <flow id="JF132367" begin="360" fromJunction="J6" toJunction="J0" end="420" vehsPerHour="87.48573727760756" departLane="free"/>
  <flow id="JF132368" begin="360" fromJunction="J5" toJunction="J3" end="420" vehsPerHour="42.26801245666942" departLane="free"/>
  <flow id="JF132369" begin="360" fromJunction="J5" toJunction="J0" end="420" vehsPerHour="258.3802305310759" departLane="free"/>
  <flow id="JF132370" begin="420" fromJunction="J3" toJunction="J0" end="480" vehsPerHour="73.1267612033418" departLane="free"/>
  <flow id="JF132371" begin="420" fromJunction="J0" toJunction="J3" end="480" vehsPerHour="29.494031418272534" departLane="free"/>
  <flow id="JF132372" begin="420" fromJunction="J3" toJunction="J7" end="480" vehsPerHour="255.57843181286015" departLane="free"/>
  <flow id="JF132373" begin="420" fromJunction="J3" toJunction="J4" end="480" vehsPerHour="182.31435876178477" departLane="free"/>
  <flow id="JF132374" begin="420" fromJunction="J3" toJunction="J6" end="480" vehsPerHour="366.4080731561722" departLane="free"/>
  <flow id="JF132375" begin="420" fromJunction="J3" toJunction="J5" end="480" vehsPerHour="86.3736115226993" departLane="free"/>
  <flow id="JF132376" begin="420" fromJunction="J0" toJunction="J7" end="480" vehsPerHour="242.06354667049797" departLane="free"/>
  <flow id="JF132377" begin="420" fromJunction="J0" toJunction="J4" end="480" vehsPerHour="263.4125076834041" departLane="free"/>
  <flow id="JF132378" begin="420" fromJunction="J0" toJunction="J6" end="480" vehsPerHour="134.39110656196942" departLane="free"/>
  <flow id="JF132379" begin="420" fromJunction="J0" toJunction="J5" end="480" vehsPerHour="427.671926300426" departLane="free"/>
  <flow id="JF132380" begin="420" fromJunction="J7" toJunction="J4" end="480" vehsPerHour="48.1500236414778" departLane="free"/>
  <flow id="JF132381" begin="420" fromJunction="J7" toJunction="J6" end="480" vehsPerHour="67.68089004042592" departLane="free"/>
  <flow id="JF132382" begin="420" fromJunction="J7" toJunction="J5" end="480" vehsPerHour="49.15151998195508" departLane="free"/>
  <flow id="JF132383" begin="420" fromJunction="J4" toJunction="J7" end="480" vehsPerHour="51.18312812558836" departLane="free"/>
  <flow id="JF132384" begin="420" fromJunction="J4" toJunction="J6" end="480" vehsPerHour="13.971500872590982" departLane="free"/>
  <flow id="JF132385" begin="420" fromJunction="J4" toJunction="J5" end="480" vehsPerHour="11.901781359844938" departLane="free"/>
  <flow id="JF132386" begin="420" fromJunction="J6" toJunction="J7" end="480" vehsPerHour="29.593512093486133" departLane="free"/>
  <flow id="JF132387" begin="420" fromJunction="J6" toJunction="J4" end="480" vehsPerHour="53.629273439152485" departLane="free"/>
  <flow id="JF132388" begin="420" fromJunction="J6" toJunction="J5" end="480" vehsPerHour="12.899388564070934" departLane="free"/>
  <flow id="JF132389" begin="420" fromJunction="J5" toJunction="J7" end="480" vehsPerHour="7.940435745890752" departLane="free"/>
  <flow id="JF132390" begin="420" fromJunction="J5" toJunction="J4" end="480" vehsPerHour="52.29015092369627" departLane="free"/>
  <flow id="JF132391" begin="420" fromJunction="J5" toJunction="J6" end="480" vehsPerHour="49.50155530998425" departLane="free"/>
  <flow id="JF132392" begin="420" fromJunction="J7" toJunction="J3" end="480" vehsPerHour="63.210191527602994" departLane="free"/>
  <flow id="JF132393" begin="420" fromJunction="J7" toJunction="J0" end="480" vehsPerHour="265.11979019046703" departLane="free"/>
  <flow id="JF132394" begin="420" fromJunction="J4" toJunction="J3" end="480" vehsPerHour="220.21610824408845" departLane="free"/>
  <flow id="JF132395" begin="420" fromJunction="J4" toJunction="J0" end="480" vehsPerHour="76.41047347821878" departLane="free"/>
  <flow id="JF132396" begin="420" fromJunction="J6" toJunction="J3" end="480" vehsPerHour="8.367879471063" departLane="free"/>
  <flow id="JF132397" begin="420" fromJunction="J6" toJunction="J0" end="480" vehsPerHour="51.61845564405463" departLane="free"/>
  <flow id="JF132398" begin="420" fromJunction="J5" toJunction="J3" end="480" vehsPerHour="214.59071423144243" departLane="free"/>
  <flow id="JF132399" begin="420" fromJunction="J5" toJunction="J0" end="480" vehsPerHour="141.3256225894865" departLane="free"/>
  <flow id="JF132400" begin="480" fromJunction="J3" toJunction="J0" end="540" vehsPerHour="129.72767006511316" departLane="free"/>
  <flow id="JF132401" begin="480" fromJunction="J0" toJunction="J3" end="540" vehsPerHour="79.57957271833078" departLane="free"/>
  <flow id="JF132402" begin="480" fromJunction="J3" toJunction="J7" end="540" vehsPerHour="118.5460520142361" departLane="free"/>
  <flow id="JF132403" begin="480" fromJunction="J3" toJunction="J4" end="540" vehsPerHour="1.931017625193382" departLane="free"/>
  <flow id="JF132404" begin="480" fromJunction="J3" toJunction="J6" end="540" vehsPerHour="98.34171276166921" departLane="free"/>
  <flow id="JF132405" begin="480" fromJunction="J3" toJunction="J5" end="540" vehsPerHour="409.16523950619523" departLane="free"/>
  <flow id="JF132406" begin="480" fromJunction="J0" toJunction="J7" end="540" vehsPerHour="342.7565875431684" departLane="free"/>
  <flow id="JF132407" begin="480" fromJunction="J0" toJunction="J4" end="540" vehsPerHour="482.6149464328802" departLane="free"/>
  <flow id="JF132408" begin="480" fromJunction="J0" toJunction="J6" end="540" vehsPerHour="105.58829929356935" departLane="free"/>
  <flow id="JF132409" begin="480" fromJunction="J0" toJunction="J5" end="540" vehsPerHour="542.9042904688305" departLane="free"/>
  <flow id="JF132410" begin="480" fromJunction="J7" toJunction="J4" end="540" vehsPerHour="57.673697630760586" departLane="free"/>
  <flow id="JF132411" begin="480" fromJunction="J7" toJunction="J6" end="540" vehsPerHour="25.930920274571136" departLane="free"/>
  <flow id="JF132412" begin="480" fromJunction="J7" toJunction="J5" end="540" vehsPerHour="14.383910975444962" departLane="free"/>
  <flow id="JF132413" begin="480" fromJunction="J4" toJunction="J7" end="540" vehsPerHour="2.1049444507644184" departLane="free"/>
  <flow id="JF132414" begin="480" fromJunction="J4" toJunction="J6" end="540" vehsPerHour="8.463669376059897" departLane="free"/>
  <flow id="JF132415" begin="480" fromJunction="J4" toJunction="J5" end="540" vehsPerHour="35.41481706753979" departLane="free"/>
  <flow id="JF132416" begin="480" fromJunction="J6" toJunction="J7" end="540" vehsPerHour="37.193389311589314" departLane="free"/>
  <flow id="JF132417" begin="480" fromJunction="J6" toJunction="J4" end="540" vehsPerHour="15.290447155205676" departLane="free"/>
  <flow id="JF132418" begin="480" fromJunction="J6" toJunction="J5" end="540" vehsPerHour="34.55436480170561" departLane="free"/>
  <flow id="JF132419" begin="480" fromJunction="J5" toJunction="J7" end="540" vehsPerHour="62.99902191203339" departLane="free"/>
  <flow id="JF132420" begin="480" fromJunction="J5" toJunction="J4" end="540" vehsPerHour="39.47040383871642" departLane="free"/>
  <flow id="JF132421" begin="480" fromJunction="J5" toJunction="J6" end="540" vehsPerHour="57.89929888709422" departLane="free"/>
  <flow id="JF132422" begin="480" fromJunction="J7" toJunction="J3" end="540" vehsPerHour="230.0680723429678" departLane="free"/>
  <flow id="JF132423" begin="480" fromJunction="J7" toJunction="J0" end="540" vehsPerHour="133.70745639258624" departLane="free"/>
  <flow id="JF132424" begin="480" fromJunction="J4" toJunction="J3" end="540" vehsPerHour="235.49891167743343" departLane="free"/>
  <flow id="JF132425" begin="480" fromJunction="J4" toJunction="J0" end="540" vehsPerHour="271.0503034700059" departLane="free"/>
  <flow id="JF132426" begin="480" fromJunction="J6" toJunction="J3" end="540" vehsPerHour="141.73746453546377" departLane="free"/>
  <flow id="JF132427" begin="480" fromJunction="J6" toJunction="J0" end="540" vehsPerHour="97.7291129895747" departLane="free"/>
  <flow id="JF132428" begin="480" fromJunction="J5" toJunction="J3" end="540" vehsPerHour="113.03615362891786" departLane="free"/>
  <flow id="JF132429" begin="480" fromJunction="J5" toJunction="J0" end="540" vehsPerHour="101.6268334268615" departLane="free"/>
  <flow id="JF132430" begin="540" fromJunction="J3" toJunction="J0" end="600" vehsPerHour="119.57372973109156" departLane="free"/>
  <flow id="JF132431" begin="540" fromJunction="J0" toJunction="J3" end="600" vehsPerHour="26.570284220324275" departLane="free"/>
  <flow id="JF132432" begin="540" fromJunction="J3" toJunction="J7" end="600" vehsPerHour="463.71973561206534" departLane="free"/>
  <flow id="JF132433" begin="540" fromJunction="J3" toJunction="J4" end="600" vehsPerHour="430.2802585687579" departLane="free"/>
  <flow id="JF132434" begin="540" fromJunction="J3" toJunction="J6" end="600" vehsPerHour="471.8149413691882" departLane="free"/>
  <flow id="JF132435" begin="540" fromJunction="J3" toJunction="J5" end="600" vehsPerHour="327.66801337829736" departLane="free"/>
  <flow id="JF132436" begin="540" fromJunction="J0" toJunction="J7" end="600" vehsPerHour="225.9776353753251" departLane="free"/>
  <flow id="JF132437" begin="540" fromJunction="J0" toJunction="J4" end="600" vehsPerHour="469.25080321741365" departLane="free"/>
  <flow id="JF132438" begin="540" fromJunction="J0" toJunction="J6" end="600" vehsPerHour="506.4751222776842" departLane="free"/>
  <flow id="JF132439" begin="540" fromJunction="J0" toJunction="J5" end="600" vehsPerHour="73.59370279214875" departLane="free"/>
  <flow id="JF132440" begin="540" fromJunction="J7" toJunction="J4" end="600" vehsPerHour="28.861332313134866" departLane="free"/>
  <flow id="JF132441" begin="540" fromJunction="J7" toJunction="J6" end="600" vehsPerHour="48.89221046225587" departLane="free"/>
  <flow id="JF132442" begin="540" fromJunction="J7" toJunction="J5" end="600" vehsPerHour="55.723185751684674" departLane="free"/>
  <flow id="JF132443" begin="540" fromJunction="J4" toJunction="J7" end="600" vehsPerHour="7.472424395520732" departLane="free"/>
  <flow id="JF132444" begin="540" fromJunction="J4" toJunction="J6" end="600" vehsPerHour="40.484664490400576" departLane="free"/>
  <flow id="JF132445" begin="540" fromJunction="J4" toJunction="J5" end="600" vehsPerHour="26.635315649005967" departLane="free"/>
  <flow id="JF132446" begin="540" fromJunction="J6" toJunction="J7" end="600" vehsPerHour="56.32171960858651" departLane="free"/>
  <flow id="JF132447" begin="540" fromJunction="J6" toJunction="J4" end="600" vehsPerHour="5.64749304642131" departLane="free"/>
  <flow id="JF132448" begin="540" fromJunction="J6" toJunction="J5" end="600" vehsPerHour="24.038384072355285" departLane="free"/>