<?xml version="1.0" encoding="UTF-8"?>
<routes xmlns:xsi="http://www.w3.org/2001/XMLSchema-instance" xsi:noNamespaceSchemaLocation="http://sumo.dlr.de/xsd/routes_file.xsd">
  <flow id="JF128360" begin="0" fromJunction="J3" toJunction="J0" end="60" vehsPerHour="74.94071373274144" departLane="free"/>
  <flow id="JF128361" begin="0" fromJunction="J0" toJunction="J3" end="60" vehsPerHour="22.266579258865587" departLane="free"/>
  <flow id="JF128362" begin="0" fromJunction="J3" toJunction="J7" end="60" vehsPerHour="220.2644238798591" departLane="free"/>
  <flow id="JF128363" begin="0" fromJunction="J3" toJunction="J4" end="60" vehsPerHour="526.5220958690097" departLane="free"/>
  <flow id="JF128364" begin="0" fromJunction="J3" toJunction="J6" end="60" vehsPerHour="256.2894574693357" departLane="free"/>
  <flow id="JF128365" begin="0" fromJunction="J3" toJunction="J5" end="60" vehsPerHour="5.734097517717201" departLane="free"/>
  <flow id="JF128366" begin="0" fromJunction="J0" toJunction="J7" end="60" vehsPerHour="188.23994405043248" departLane="free"/>
  <flow id="JF128367" begin="0" fromJunction="J0" toJunction="J4" end="60" vehsPerHour="330.40081194983145" departLane="free"/>
  <flow id="JF128368" begin="0" fromJunction="J0" toJunction="J6" end="60" vehsPerHour="450.9732628332224" departLane="free"/>
  <flow id="JF128369" begin="0" fromJunction="J0" toJunction="J5" end="60" vehsPerHour="236.95633473519" departLane="free"/>
  <flow id="JF128370" begin="60" fromJunction="J3" toJunction="J0" end="120" vehsPerHour="8.14962010589038" departLane="free"/>
  <flow id="JF128371" begin="60" fromJunction="J0" toJunction="J3" end="120" vehsPerHour="105.40536076369291" departLane="free"/>
  <flow id="JF128372" begin="60" fromJunction="J3" toJunction="J7" end="120" vehsPerHour="240.9357504746442" departLane="free"/>
  <flow id="JF128373" begin="60" fromJunction="J3" toJunction="J4" end="120" vehsPerHour="293.79288334341754" departLane="free"/>
  <flow id="JF128374" begin="60" fromJunction="J3" toJunction="J6" end="120" vehsPerHour="147.93144538192442" departLane="free"/>
  <flow id="JF128375" begin="60" fromJunction="J3" toJunction="J5" end="120" vehsPerHour="408.8780936372182" departLane="free"/>
  <flow id="JF128376" begin="60" fromJunction="J0" toJunction="J7" end="120" vehsPerHour="86.93008990745865" departLane="free"/>
  <flow id="JF128377" begin="60" fromJunction="J0" toJunction="J4" end="120" vehsPerHour="137.21242307190286" departLane="free"/>
  <flow id="JF128378" begin="60" fromJunction="J0" toJunction="J6" end="120" vehsPerHour="521.0862990903003" departLane="free"/>
  <flow id="JF128379" begin="60" fromJunction="J0" toJunction="J5" end="120" vehsPerHour="52.467509078682134" departLane="free"/>
  <flow id="JF128380" begin="120" fromJunction="J3" toJunction="J0" end="180" vehsPerHour="90.58991936076987" departLane="free"/>
  <flow id="JF128381" begin="120" fromJunction="J0" toJunction="J3" end="180" vehsPerHour="55.17160302197462" departLane="free"/>
  <flow id="JF128382" begin="120" fromJunction="J3" toJunction="J7" end="180" vehsPerHour="72.18069929508223" departLane="free"/>
  <flow id="JF128383" begin="120" fromJunction="J3" toJunction="J4" end="180" vehsPerHour="161.1556623519362" departLane="free"/>
  <flow id="JF128384" begin="120" fromJunction="J3" toJunction="J6" end="180" vehsPerHour="66.2264409567995" departLane="free"/>
  <flow id="JF128385" begin="120" fromJunction="J3" toJunction="J5" end="180" vehsPerHour="69.30153193599195" departLane="free"/>
  <flow id="JF128386" begin="120" fromJunction="J0" toJunction="J7" end="180" vehsPerHour="525.8780361346393" departLane="free"/>
  <flow id="JF128387" begin="120" fromJunction="J0" toJunction="J4" end="180" vehsPerHour="398.28285499153804" departLane="free"/>
  <flow id="JF128388" begin="120" fromJunction="J0" toJunction="J6" end="180" vehsPerHour="34.718632209091155" departLane="free"/>
  <flow id="JF128389" begin="120" fromJunction="J0" toJunction="J5" end="180" vehsPerHour="498.96818317070824" departLane="free"/>
  <flow id="JF128390" begin="180" fromJunction="J3" toJunction="J0" end="240" vehsPerHour="117.57964480206637" departLane="free"/>
  <flow id="JF128391" begin="180" fromJunction="J0" toJunction="J3" end="240" vehsPerHour="55.70328155012348" departLane="free"/>
  <flow id="JF128392" begin="180" fromJunction="J3" toJunction="J7" end="240" vehsPerHour="277.38050662470135" departLane="free"/>
  <flow id="JF128393" begin="180" fromJunction="J3" toJunction="J4" end="240" vehsPerHour="367.659552120784" departLane="free"/>
  <flow id="JF128394" begin="180" fromJunction="J3" toJunction="J6" end="240" vehsPerHour="393.6714385423008" departLane="free"/>
  <flow id="JF128395" begin="180" fromJunction="J3" toJunction="J5" end="240" vehsPerHour="178.17218250564954" departLane="free"/>
  <flow id="JF128396" begin="180" fromJunction="J0" toJunction="J7" end="240" vehsPerHour="170.24618650417676" departLane="free"/>
  <flow id="JF128397" begin="180" fromJunction="J0" toJunction="J4" end="240" vehsPerHour="395.58068402349255" departLane="free"/>
  <flow id="JF128398" begin="180" fromJunction="J0" toJunction="J6" end="240" vehsPerHour="266.67772533911346" departLane="free"/>
  <flow id="JF128399" begin="180" fromJunction="J0" toJunction="J5" end="240" vehsPerHour="284.1052455784177" departLane="free"/>
  <flow id="JF128400" begin="240" fromJunction="J3" toJunction="J0" end="300" vehsPerHour="7.960269676598215" departLane="free"/>
  <flow id="JF128401" begin="240" fromJunction="J0" toJunction="J3" end="300" vehsPerHour="34.575293884350714" departLane="free"/>
  <flow id="JF128402" begin="240" fromJunction="J3" toJunction="J7" end="300" vehsPerHour="444.30942379645535" departLane="free"/>
  <flow id="JF128403" begin="240" fromJunction="J3" toJunction="J4" end="300" vehsPerHour="136.5419413918591" departLane="free"/>
  <flow id="JF128404" begin="240" fromJunction="J3" toJunction="J6" end="300" vehsPerHour="460.53989208051087" departLane="free"/>
  <flow id="JF128405" begin="240" fromJunction="J3" toJunction="J5" end="300" vehsPerHour="458.61921960379635" departLane="free"/>
  <flow id="JF128406" begin="240" fromJunction="J0" toJunction="J7" end="300" vehsPerHour="225.02305163196658" departLane="free"/>
  <flow id="JF128407" begin="240" fromJunction="J0" toJunction="J4" end="300" vehsPerHour="469.669614690991" departLane="free"/>
  <flow id="JF128408" begin="240" fromJunction="J0" toJunction="J6" end="300" vehsPerHour="28.350790818357215" departLane="free"/>
  <flow id="JF128409" begin="240" fromJunction="J0" toJunction="J5" end="300" vehsPerHour="488.1695598336771" departLane="free"/>
  <flow id="JF128410" begin="240" fromJunction="J7" toJunction="J4" end="300" vehsPerHour="0.04630157821998376" departLane="free"/>
  <flow id="JF128411" begin="240" fromJunction="J7" toJunction="J6" end="300" vehsPerHour="48.822769467533426" departLane="free"/>
  <flow id="JF128412" begin="240" fromJunction="J7" toJunction="J5" end="300" vehsPerHour="56.764051486661955" departLane="free"/>
  <flow id="JF128413" begin="240" fromJunction="J4" toJunction="J7" end="300" vehsPerHour="15.528527076953349" departLane="free"/>
  <flow id="JF128414" begin="240" fromJunction="J4" toJunction="J6" end="300" vehsPerHour="37.97261930728512" departLane="free"/>
  <flow id="JF128415" begin="240" fromJunction="J4" toJunction="J5" end="300" vehsPerHour="7.754613134731045" departLane="free"/>
  <flow id="JF128416" begin="240" fromJunction="J6" toJunction="J7" end="300" vehsPerHour="35.47682975832811" departLane="free"/>
  <flow id="JF128417" begin="240" fromJunction="J6" toJunction="J4" end="300" vehsPerHour="37.34714447449976" departLane="free"/>
  <flow id="JF128418" begin="240" fromJunction="J6" toJunction="J5" end="300" vehsPerHour="63.94273509827127" departLane="free"/>
  <flow id="JF128419" begin="240" fromJunction="J5" toJunction="J7" end="300" vehsPerHour="63.6109938047461" departLane="free"/>
  <flow id="JF128420" begin="240" fromJunction="J5" toJunction="J4" end="300" vehsPerHour="29.200836216171524" departLane="free"/>
  <flow id="JF128421" begin="240" fromJunction="J5" toJunction="J6" end="300" vehsPerHour="55.71020011259551" departLane="free"/>
  <flow id="JF128422" begin="240" fromJunction="J7" toJunction="J3" end="300" vehsPerHour="57.46641864307244" departLane="free"/>
  <flow id="JF128423" begin="240" fromJunction="J7" toJunction="J0" end="300" vehsPerHour="51.42918257651235" departLane="free"/>
  <flow id="JF128424" begin="240" fromJunction="J4" toJunction="J3" end="300" vehsPerHour="216.85757112977828" departLane="free"/>
  <flow id="JF128425" begin="240" fromJunction="J4" toJunction="J0" end="300" vehsPerHour="216.96309204344212" departLane="free"/>
  <flow id="JF128426" begin="240" fromJunction="J6" toJunction="J3" end="300" vehsPerHour="194.09416400044873" departLane="free"/>
  <flow id="JF128427" begin="240" fromJunction="J6" toJunction="J0" end="300" vehsPerHour="183.62387330004933" departLane="free"/>
  <flow id="JF128428" begin="240" fromJunction="J5" toJunction="J3" end="300" vehsPerHour="65.00554840398195" departLane="free"/>
  <flow id="JF128429" begin="240" fromJunction="J5" toJunction="J0" end="300" vehsPerHour="32.71249504519881" departLane="free"/>
  <flow id="JF128430" begin="300" fromJunction="J3" toJunction="J0" end="360" vehsPerHour="20.995892330287106" departLane="free"/>
  <flow id="JF128431" begin="300" fromJunction="J0" toJunction="J3" end="360" vehsPerHour="4.767469919138518" departLane="free"/>
  <flow id="JF128432" begin="300" fromJunction="J3" toJunction="J7" end="360" vehsPerHour="146.21259644099888" departLane="free"/>
  <flow id="JF128433" begin="300" fromJunction="J3" toJunction="J4" end="360" vehsPerHour="290.1998833977808" departLane="free"/>
  <flow id="JF128434" begin="300" fromJunction="J3" toJunction="J6" end="360" vehsPerHour="449.32459843570257" departLane="free"/>
  <flow id="JF128435" begin="300" fromJunction="J3" toJunction="J5" end="360" vehsPerHour="455.0309044267859" departLane="free"/>
  <flow id="JF128436" begin="300" fromJunction="J0" toJunction="J7" end="360" vehsPerHour="518.6956786919652" departLane="free"/>
  <flow id="JF128437" begin="300" fromJunction="J0" toJunction="J4" end="360" vehsPerHour="133.6228106206803" departLane="free"/>
  <flow id="JF128438" begin="300" fromJunction="J0" toJunction="J6" end="360" vehsPerHour="176.15937552510155" departLane="free"/>
  <flow id="JF128439" begin="300" fromJunction="J0" toJunction="J5" end="360" vehsPerHour="408.43018451702653" departLane="free"/>
  <flow id="JF128440" begin="360" fromJunction="J3" toJunction="J0" end="420" vehsPerHour="104.19560892159569" departLane="free"/>
  <flow id="JF128441" begin="360" fromJunction="J0" toJunction="J3" end="420" vehsPerHour="37.02742227470368" departLane="free"/>
  <flow id="JF128442" begin="360" fromJunction="J3" toJunction="J7" end="420" vehsPerHour="154.36605570138607" departLane="free"/>
  <flow id="JF128443" begin="360" fromJunction="J3" toJunction="J4" end="420" vehsPerHour="384.3726743231783" departLane="free"/>
  <flow id="JF128444" begin="360" fromJunction="J3" toJunction="J6" end="420" vehsPerHour="143.10427533424732" departLane="free"/>
  <flow id="JF128445" begin="360" fromJunction="J3" toJunction="J5" end="420" vehsPerHour="178.26276831361372" departLane="free"/>
  <flow id="JF128446" begin="360" fromJunction="J0" toJunction="J7" end="420" vehsPerHour="507.13985199376106" departLane="free"/>
  <flow id="JF128447" begin="360" fromJunction="J0" toJunction="J4" end="420" vehsPerHour="450.3364421239419" departLane="free"/>
  <flow id="JF128448" begin="360" fromJunction="J0" toJunction="J6" end="420" vehsPerHour="232.6688601389241" departLane="free"/>
  <flow id="JF128449" begin="360" fromJunction="J0" toJunction="J5" end="420" vehsPerHour="5.855021947503606" departLane="free"/>
  <flow id="JF128450" begin="360" fromJunction="J7" toJunction="J4" end="420" vehsPerHour="60.50753785241054" departLane="free"/>
  <flow id="JF128451" begin="360" fromJunction="J7" toJunction="J6" end="420" vehsPerHour="67.70059361943073" departLane="free"/>
  <flow id="JF128452" begin="360" fromJunction="J7" toJunction="J5" end="420" vehsPerHour="43.15740308936667" departLane="free"/>
  <flow id="JF128453" begin="360" fromJunction="J4" toJunction="J7" end="420" vehsPerHour="17.028612486671037" departLane="free"/>
  <flow id="JF128454" begin="360" fromJunction="J4" toJunction="J6" end="420" vehsPerHour="24.725516437451905" departLane="free"/>
  <flow id="JF128455" begin="360" fromJunction="J4" toJunction="J5" end="420" vehsPerHour="22.182066658303544" departLane="free"/>
  <flow id="JF128456" begin="360" fromJunction="J6" toJunction="J7" end="420" vehsPerHour="27.214004082868964" departLane="free"/>
  <flow id="JF128457" begin="360" fromJunction="J6" toJunction="J4" end="420" vehsPerHour="56.84448890086426" departLane="free"/>
  <flow id="JF128458" begin="360" fromJunction="J6" toJunction="J5" end="420" vehsPerHour="14.319307950674466" departLane="free"/>
  <flow id="JF128459" begin="360" fromJunction="J5" toJunction="J7" end="420" vehsPerHour="37.386366339210475" departLane="free"/>
  <flow id="JF128460" begin="360" fromJunction="J5" toJunction="J4" end="420" vehsPerHour="23.344972706319496" departLane="free"/>
  <flow id="JF128461" begin="360" fromJunction="J5" toJunction="J6" end="420" vehsPerHour="15.963931624622916" departLane="free"/>
  <flow id="JF128462" begin="360" fromJunction="J7" toJunction="J3" end="420" vehsPerHour="99.79602405551307" departLane="free"/>
  <flow id="JF128463" begin="360" fromJunction="J7" toJunction="J0" end="420" vehsPerHour="8.761247582890341" departLane="free"/>
  <flow id="JF128464" begin="360" fromJunction="J4" toJunction="J3" end="420" vehsPerHour="165.46993954534528" departLane="free"/>
  <flow id="JF128465" begin="360" fromJunction="J4" toJunction="J0" end="420" vehsPerHour="165.842442141568" departLane="free"/>
  <flow id="JF128466" begin="360" fromJunction="J6" toJunction="J3" end="420" vehsPerHour="183.38573762308323" departLane="free"/>
  <flow id="JF128467" begin="360" fromJunction="J6" toJunction="J0" end="420" vehsPerHour="171.35945631622207" departLane="free"/>
  <flow id="JF128468" begin="360" fromJunction="J5" toJunction="J3" end="420" vehsPerHour="164.50270820128978" departLane="free"/>
  <flow id="JF128469" begin="360" fromJunction="J5" toJunction="J0" end="420" vehsPerHour="18.70642260459069" departLane="free"/>
  <flow id="JF128470" begin="420" fromJunction="J3" toJunction="J0" end="480" vehsPerHour="116.15915607296628" departLane="free"/>
  <flow id="JF128471" begin="420" fromJunction="J0" toJunction="J3" end="480" vehsPerHour="24.084390784334552" departLane="free"/>
  <flow id="JF128472" begin="420" fromJunction="J3" toJunction="J7" end="480" vehsPerHour="468.48721129139375" departLane="free"/>
  <flow id="JF128473" begin="420" fromJunction="J3" toJunction="J4" end="480" vehsPerHour="438.0955048488814" departLane="free"/>
  <flow id="JF128474" begin="420" fromJunction="J3" toJunction="J6" end="480" vehsPerHour="461.57846669095176" departLane="free"/>
  <flow id="JF128475" begin="420" fromJunction="J3" toJunction="J5" end="480" vehsPerHour="392.2097004329176" departLane="free"/>
  <flow id="JF128476" begin="420" fromJunction="J0" toJunction="J7" end="480" vehsPerHour="354.0236608871381" departLane="free"/>
  <flow id="JF128477" begin="420" fromJunction="J0" toJunction="J4" end="480" vehsPerHour="283.3691669039556" departLane="free"/>
  <flow id="JF128478" begin="420" fromJunction="J0" toJunction="J6" end="480" vehsPerHour="418.30068097208664" departLane="free"/>
  <flow id="JF128479" begin="420" fromJunction="J0" toJunction="J5" end="480" vehsPerHour="495.8072565237821" departLane="free"/>
  <flow id="JF128480" begin="420" fromJunction="J7" toJunction="J4" end="480" vehsPerHour="5.916677166529182" departLane="free"/>
  <flow id="JF128481" begin="420" fromJunction="J7" toJunction="J6" end="480" vehsPerHour="20.665938997227787" departLane="free"/>
  <flow id="JF128482" begin="420" fromJunction="J7" toJunction="J5" end="480" vehsPerHour="32.977256041779384" departLane="free"/>
  <flow id="JF128483" begin="420" fromJunction="J4" toJunction="J7" end="480" vehsPerHour="54.426080247065755" departLane="free"/>
  <flow id="JF128484" begin="420" fromJunction="J4" toJunction="J6" end="480" vehsPerHour="12.858688027821852" departLane="free"/>
  <flow id="JF128485" begin="420" fromJunction="J4" toJunction="J5" end="480" vehsPerHour="28.438649855842247" departLane="free"/>
  <flow id="JF128486" begin="420" fromJunction="J6" toJunction="J7" end="480" vehsPerHour="8.243723426333798" departLane="free"/>
  <flow id="JF128487" begin="420" fromJunction="J6" toJunction="J4" end="480" vehsPerHour="44.18398183096938" departLane="free"/>
  <flow id="JF128488" begin="420" fromJunction="J6" toJunction="J5" end="480" vehsPerHour="28.15339966620992" departLane="free"/>
  <flow id="JF128489" begin="420" fromJunction="J5" toJunction="J7" end="480" vehsPerHour="9.106099324380578" departLane="free"/>
  <flow id="JF128490" begin="420" fromJunction="J5" toJunction="J4" end="480" vehsPerHour="42.436209712137526" departLane="free"/>
  <flow id="JF128491" begin="420" fromJunction="J5" toJunction="J6" end="480" vehsPerHour="50.04237748870027" departLane="free"/>
  <flow id="JF128492" begin="420" fromJunction="J7" toJunction="J3" end="480" vehsPerHour="93.88163836453866" departLane="free"/>
  <flow id="JF128493" begin="420" fromJunction="J7" toJunction="J0" end="480" vehsPerHour="240.48830131531128" departLane="free"/>
  <flow id="JF128494" begin="420" fromJunction="J4" toJunction="J3" end="480" vehsPerHour="72.78244650967555" departLane="free"/>
  <flow id="JF128495" begin="420" fromJunction="J4" toJunction="J0" end="480" vehsPerHour="114.72033690890719" departLane="free"/>
  <flow id="JF128496" begin="420" fromJunction="J6" toJunction="J3" end="480" vehsPerHour="10.161878864008361" departLane="free"/>
  <flow id="JF128497" begin="420" fromJunction="J6" toJunction="J0" end="480" vehsPerHour="178.91264410031184" departLane="free"/>
  <flow id="JF128498" begin="420" fromJunction="J5" toJunction="J3" end="480" vehsPerHour="19.110796833803857" departLane="free"/>
  <flow id="JF128499" begin="420" fromJunction="J5" toJunction="J0" end="480" vehsPerHour="247.92904969555266" departLane="free"/>
  <flow id="JF128500" begin="480" fromJunction="J3" toJunction="J0" end="540" vehsPerHour="64.54427686538351" departLane="free"/>
  <flow id="JF128501" begin="480" fromJunction="J0" toJunction="J3" end="540" vehsPerHour="131.2581867945625" departLane="free"/>
  <flow id="JF128502" begin="480" fromJunction="J3" toJunction="J7" end="540" vehsPerHour="414.9044934567118" departLane="free"/>
  <flow id="JF128503" begin="480" fromJunction="J3" toJunction="J4" end="540" vehsPerHour="34.152420268122505" departLane="free"/>
  <flow id="JF128504" begin="480" fromJunction="J3" toJunction="J6" end="540" vehsPerHour="370.6728175361421" departLane="free"/>
  <flow id="JF128505" begin="480" fromJunction="J3" toJunction="J5" end="540" vehsPerHour="17.802019891071136" departLane="free"/>
  <flow id="JF128506" begin="480" fromJunction="J0" toJunction="J7" end="540" vehsPerHour="161.60830048350937" departLane="free"/>
  <flow id="JF128507" begin="480" fromJunction="J0" toJunction="J4" end="540" vehsPerHour="286.7238146413156" departLane="free"/>
  <flow id="JF128508" begin="480" fromJunction="J0" toJunction="J6" end="540" vehsPerHour="434.26972802222593" departLane="free"/>
  <flow id="JF128509" begin="480" fromJunction="J0" toJunction="J5" end="540" vehsPerHour="459.60630238921385" departLane="free"/>
  <flow id="JF128510" begin="480" fromJunction="J7" toJunction="J4" end="540" vehsPerHour="23.35165548061006" departLane="free"/>
  <flow id="JF128511" begin="480" fromJunction="J7" toJunction="J6" end="540" vehsPerHour="5.619371262914035" departLane="free"/>
  <flow id="JF128512" begin="480" fromJunction="J7" toJunction="J5" end="540" vehsPerHour="33.497187515003006" departLane="free"/>
  <flow id="JF128513" begin="480" fromJunction="J4" toJunction="J7" end="540" vehsPerHour="51.12355247111617" departLane="free"/>
  <flow id="JF128514" begin="480" fromJunction="J4" toJunction="J6" end="540" vehsPerHour="9.350011120885826" departLane="free"/>
  <flow id="JF128515" begin="480" fromJunction="J4" toJunction="J5" end="540" vehsPerHour="4.619045658367128" departLane="free"/>
  <flow id="JF128516" begin="480" fromJunction="J6" toJunction="J7" end="540" vehsPerHour="10.45635180329427" departLane="free"/>
  <flow id="JF128517" begin="480" fromJunction="J6" toJunction="J4" end="540" vehsPerHour="35.19510104727156" departLane="free"/>
  <flow id="JF128518" begin="480" fromJunction="J6" toJunction="J5" end="540" vehsPerHour="6.214969183484984" departLane="free"/>
  <flow id="JF128519" begin="480" fromJunction="J5" toJunction="J7" end="540" vehsPerHour="63.307061583745686" departLane="free"/>
  <flow id="JF128520" begin="480" fromJunction="J5" toJunction="J4" end="540" vehsPerHour="10.663428437536933" departLane="free"/>
  <flow id="JF128521" begin="480" fromJunction="J5" toJunction="J6" end="540" vehsPerHour="60.52612345938995" departLane="free"/>
  <flow id="JF128522" begin="480" fromJunction="J7" toJunction="J3" end="540" vehsPerHour="20.65970419318375" departLane="free"/>
  <flow id="JF128523" begin="480" fromJunction="J7" toJunction="J0" end="540" vehsPerHour="166.09289077144575" departLane="free"/>
  <flow id="JF128524" begin="480" fromJunction="J4" toJunction="J3" end="540" vehsPerHour="31.486850339287148" departLane="free"/>
  <flow id="JF128525" begin="480" fromJunction="J4" toJunction="J0" end="540" vehsPerHour="128.75573991270082" departLane="free"/>
  <flow id="JF128526" begin="480" fromJunction="J6" toJunction="J3" end="540" vehsPerHour="180.16538096250952" departLane="free"/>
  <flow id="JF128527" begin="480" fromJunction="J6" toJunction="J0" end="540" vehsPerHour="268.72730711679475" departLane="free"/>
  <flow id="JF128528" begin="480" fromJunction="J5" toJunction="J3" end="540" vehsPerHour="224.95519823555986" departLane="free"/>
  <flow id="JF128529" begin="480" fromJunction="J5" toJunction="J0" end="540" vehsPerHour="73.43722208346202" departLane="free"/>
  <flow id="JF128530" begin="540" fromJunction="J3" toJunction="J0" end="600" vehsPerHour="113.24462799696445" departLane="free"/>
  <flow id="JF128531" begin="540" fromJunction="J0" toJunction="J3" end="600" vehsPerHour="115.75338636864043" departLane="free"/>
  <flow id="JF128532" begin="540" fromJunction="J3" toJunction="J7" end="600" vehsPerHour="189.90893414956636" departLane="free"/>
  <flow id="JF128533" begin="540" fromJunction="J3" toJunction="J4" end="600" vehsPerHour="3.488152111168443" departLane="free"/>
  <flow id="JF128534" begin="540" fromJunction="J3" toJunction="J6" end="600" vehsPerHour="483.15521295344024" departLane="free"/>
  <flow id="JF128535" begin="540" fromJunction="J3" toJunction="J5" end="600" vehsPerHour="342.4379228599659" departLane="free"/>
  <flow id="JF128536" begin="540" fromJunction="J0" toJunction="J7" end="600" vehsPerHour="17.954147762079522" departLane="free"/>
  <flow id="JF128537" begin="540" fromJunction="J0" toJunction="J4" end="600" vehsPerHour="310.6751797396253" departLane="free"/>
  <flow id="JF128538" begin="540" fromJunction="J0" toJunction="J6" end="600" vehsPerHour="348.3695676733819" departLane="free"/>
  <flow id="JF128539" begin="540" fromJunction="J0" toJunction="J5" end="600" vehsPerHour="480.598087578645" departLane="free"/>
  <flow id="JF128540" begin="540" fromJunction="J7" toJunction="J4" end="600" vehsPerHour="68.54676200362063" departLane="free"/>
  <flow id="JF128541" begin="540" fromJunction="J7" toJunction="J6" end="600" vehsPerHour="34.56756335753684" departLane="free"/>
  <flow id="JF128542" begin="540" fromJunction="J7" toJunction="J5" end="600" vehsPerHour="42.55619271092861" departLane="free"/>
  <flow id="JF128543" begin="540" fromJunction="J4" toJunction="J7" end="600" vehsPerHour="40.4004572207552" departLane="free"/>
  <flow id="JF128544" begin="540" fromJunction="J4" toJunction="J6" end="600" vehsPerHour="52.85503586666992" departLane="free"/>
  <flow id="JF128545" begin="540" fromJunction="J4" toJunction="J5" end="600" vehsPerHour="66.04484557420022" departLane="free"/>
  <flow id="JF128546" begin="540" fromJunction="J6" toJunction="J7" end="600" vehsPerHour="65.0657046369801" departLane="free"/>
  <flow id="JF128547" begin="540" fromJunction="J6" toJunction="J4" end="600" vehsPerHour="8.759534536718471" departLane="free"/>
  <flow id="JF128548" begin="540" fromJunction="J6" toJunction="J5" end="600" vehsPerHour="42.94573873810664" departLane="free"/>
  <flow id="JF128549" begin="540" fromJunction="J5" toJunction="J7" end="600" vehsPerHour="68.66011224098231" departLane="free"/>
  <flow id="JF128550" begin="540" fromJunction="J5" toJunction="J4" end="600" vehsPerHour="42.05224561573736" departLane="free"/>
  <flow id="JF128551" begin="540" fromJunction="J5" toJunction="J6" end="600" vehsPerHour="18.0330303044586" departLane="free"/>
  <flow id="JF128552" begin="540" fromJunction="J7" toJunction="J3" end="600" vehsPerHour="99.63431841820727" departLane="free"/>
  <flow id="JF128553" begin="540" fromJunction="J7" toJunction="J0" end="600" vehsPerHour="249.98464724324944" departLane="free"/>
  <flow id="JF128554" begin="540" fromJunction="J4" toJunction="J3" end="600" vehsPerHour="89.67594205153041" departLane="free"/>
  <flow id="JF128555" begin="540" fromJunction="J4" toJunction="J0" end="600" vehsPerHour="238.0557789698822" departLane="free"/>
  <flow id="JF128556" begin="540" fromJunction="J6" toJunction="J3" end="600" vehsPerHour="179.0980385298565" departLane="free"/>
  <flow id="JF128557" begin="540" fromJunction="J6" toJunction="J0" end="600" vehsPerHour="79.31832905491058" departLane="free"/>
  <flow id="JF128558" begin="540" fromJunction="J5" toJunction="J3" end="600" vehsPerHour="53.85645028191488" departLane="free"/>
  <flow id="JF128559" begin="540" fromJunction="J5" toJunction="J0" end="600" vehsPerHour="84.01982173049394" departLane="free"/>
  <flow id="JF128560" begin="600" fromJunction="J3" toJunction="J0" end="660" vehsPerHour="110.91292642083242" departLane="free"/>
  <flow id="JF128561" begin="600" fromJunction="J0" toJunction="J3" end="660" vehsPerHour="1.6025951429601661" departLane="free"/>
  <flow id="JF128562" begin="600" fromJunction="J3" toJunction="J7" end="660" vehsPerHour="209.78445974923207" departLane="free"/>
  <flow id="JF128563" begin="600" fromJunction="J3" toJunction="J4" end="660" vehsPerHour="105.81543864408597" departLane="free"/>
  <flow id="JF128564" begin="600" fromJunction="J3" toJunction="J6" end="660" vehsPerHour="52.79994367750477" departLane="free"/>
  <flow id="JF128565" begin="600" fromJunction="J3" toJunction="J5" end="660" vehsPerHour="330.5181990175307" departLane="free"/>
  <flow id="JF128566" begin="600" fromJunction="J0" toJunction="J7" end="660" vehsPerHour="63.560426037488156" departLane="free"/>
  <flow id="JF128567" begin="600" fromJunction="J0" toJunction="J4" end="660" vehsPerHour="29.626053692060495" departLane="free"/>
  <flow id="JF128568" begin="600" fromJunction="J0" toJunction="J6" end="660" vehsPerHour="525.221977211712" departLane="free"/>
  <flow id="JF128569" begin="600" fromJunction="J0" toJunction="J5" end="660" vehsPerHour="309.85122303251717" departLane="free"/>
  <flow id="JF128570" begin="600" fromJunction="J7" toJunction="J4" end="660" vehsPerHour="17.473513647224536" departLane="free"/>
  <flow id="JF128571" begin="600" fromJunction="J7" toJunction="J6" end="660" vehsPerHour="68.02713483471335" departLane="free"/>
  <flow id="JF128572" begin="600" fromJunction="J7" toJunction="J5" end="660" vehsPerHour="15.80733802425177" departLane="free"/>
  <flow id="JF128573" begin="600" fromJunction="J4" toJunction="J7" end="660" vehsPerHour="1.369120342926968" departLane="free"/>
  <flow id="JF128574" begin="600" fromJunction="J4" toJunction="J6" end="660" vehsPerHour="60.88642222083547" departLane="free"/>
  <flow id="JF128575" begin="600" fromJunction="J4" toJunction="J5" end="660" vehsPerHour="50.16381292405387" departLane="free"/>
  <flow id="JF128576" begin="600" fromJunction="J6" toJunction="J7" end="660" vehsPerHour="67.85894137202038" departLane="free"/>
  <flow id="JF128577" begin="600" fromJunction="J6" toJunction="J4" end="660" vehsPerHour="16.505756430577925" departLane="free"/>
  <flow id="JF128578" begin="600" fromJunction="J6" toJunction="J5" end="660" vehsPerHour="29.769038671748234" departLane="free"/>
  <flow id="JF128579" begin="600" fromJunction="J5" toJunction="J7" end="660" vehsPerHour="66.28242337141499" departLane="free"/>
  <flow id="JF128580" begin="600" fromJunction="J5" toJunction="J4" end="660" vehsPerHour="64.40865405484791" departLane="free"/>
  <flow id="JF128581" begin="600" fromJunction="J5" toJunction="J6" end="660" vehsPerHour="9.902004286634352" departLane="free"/>
  <flow id="JF128582" begin="600" fromJunction="J7" toJunction="J3" end="660" vehsPerHour="3.527650864778472" departLane="free"/>
  <flow id="JF128583" begin="600" fromJunction="J7" toJunction="J0" end="660" vehsPerHour="187.31168490223578" departLane="free"/>
  <flow id="JF128584" begin="600" fromJunction="J4" toJunction="J3" end="660" vehsPerHour="245.18830480366563" departLane="free"/>
  <flow id="JF128585" begin="600" fromJunction="J4" toJunction="J0" end="660" vehsPerHour="216.49762948631948" departLane="free"/>
  <flow id="JF128586" begin="600" fromJunction="J6" toJunction="J3" end="660" vehsPerHour="181.82280021220552" departLane="free"/>
  <flow id="JF128587" begin="600" fromJunction="J6" toJunction="J0" end="660" vehsPerHour="125.55405898798382" departLane="free"/>
  <flow id="JF128588" begin="600" fromJunction="J5" toJunction="J3" end="660" vehsPerHour="124.76587834962379" departLane="free"/>