<?xml version="1.0" encoding="UTF-8"?>
<routes xmlns:xsi="http://www.w3.org/2001/XMLSchema-instance" xsi:noNamespaceSchemaLocation="http://sumo.dlr.de/xsd/routes_file.xsd">
  <flow id="JF124260" begin="0" fromJunction="J3" toJunction="J0" end="60" vehsPerHour="95.24402886139363" departLane="free"/>
  <flow id="JF124261" begin="0" fromJunction="J0" toJunction="J3" end="60" vehsPerHour="27.6711190852089" departLane="free"/>
  <flow id="JF124262" begin="0" fromJunction="J3" toJunction="J7" end="60" vehsPerHour="41.07222776258017" departLane="free"/>
  <flow id="JF124263" begin="0" fromJunction="J3" toJunction="J4" end="60" vehsPerHour="290.08935188970537" departLane="free"/>
  <flow id="JF124264" begin="0" fromJunction="J3" toJunction="J6" end="60" vehsPerHour="201.61002946858645" departLane="free"/>
  <flow id="JF124265" begin="0" fromJunction="J3" toJunction="J5" end="60" vehsPerHour="188.86971574393894" departLane="free"/>
  <flow id="JF124266" begin="0" fromJunction="J0" toJunction="J7" end="60" vehsPerHour="209.71143625446697" departLane="free"/>
  <flow id="JF124267" begin="0" fromJunction="J0" toJunction="J4" end="60" vehsPerHour="91.21042378726021" departLane="free"/>
  <flow id="JF124268" begin="0" fromJunction="J0" toJunction="J6" end="60" vehsPerHour="91.13657654693576" departLane="free"/>
  <flow id="JF124269" begin="0" fromJunction="J0" toJunction="J5" end="60" vehsPerHour="343.1420261471374" departLane="free"/>
  <flow id="JF124270" begin="0" fromJunction="J7" toJunction="J4" end="60" vehsPerHour="52.4437928327313" departLane="free"/>
  <flow id="JF124271" begin="0" fromJunction="J7" toJunction="J6" end="60" vehsPerHour="14.655108813911829" departLane="free"/>
  <flow id="JF124272" begin="0" fromJunction="J7" toJunction="J5" end="60" vehsPerHour="14.917398942738231" departLane="free"/>
  <flow id="JF124273" begin="0" fromJunction="J4" toJunction="J7" end="60" vehsPerHour="66.40089575846432" departLane="free"/>
  <flow id="JF124274" begin="0" fromJunction="J4" toJunction="J6" end="60" vehsPerHour="67.93589796047497" departLane="free"/>
  <flow id="JF124275" begin="0" fromJunction="J4" toJunction="J5" end="60" vehsPerHour="65.26918429579555" departLane="free"/>
  <flow id="JF124276" begin="0" fromJunction="J6" toJunction="J7" end="60" vehsPerHour="61.91637833212596" departLane="free"/>
  <flow id="JF124277" begin="0" fromJunction="J6" toJunction="J4" end="60" vehsPerHour="43.228462176809714" departLane="free"/>
  <flow id="JF124278" begin="0" fromJunction="J6" toJunction="J5" end="60" vehsPerHour="5.71232381037905" departLane="free"/>
  <flow id="JF124279" begin="0" fromJunction="J5" toJunction="J7" end="60" vehsPerHour="20.87133688903619" departLane="free"/>
  <flow id="JF124280" begin="0" fromJunction="J5" toJunction="J4" end="60" vehsPerHour="49.654448759605636" departLane="free"/>
  <flow id="JF124281" begin="0" fromJunction="J5" toJunction="J6" end="60" vehsPerHour="14.227976624936158" departLane="free"/>
  <flow id="JF124282" begin="0" fromJunction="J7" toJunction="J3" end="60" vehsPerHour="72.03707205195299" departLane="free"/>
  <flow id="JF124283" begin="0" fromJunction="J7" toJunction="J0" end="60" vehsPerHour="118.99685145584424" departLane="free"/>
  <flow id="JF124284" begin="0" fromJunction="J4" toJunction="J3" end="60" vehsPerHour="32.304443030196374" departLane="free"/>
  <flow id="JF124285" begin="0" fromJunction="J4" toJunction="J0" end="60" vehsPerHour="69.72129785804137" departLane="free"/>
  <flow id="JF124286" begin="0" fromJunction="J6" toJunction="J3" end="60" vehsPerHour="66.87170712745902" departLane="free"/>
  <flow id="JF124287" begin="0" fromJunction="J6" toJunction="J0" end="60" vehsPerHour="154.13083403561325" departLane="free"/>
  <flow id="JF124288" begin="0" fromJunction="J5" toJunction="J3" end="60" vehsPerHour="249.4011492054376" departLane="free"/>
  <flow id="JF124289" begin="0" fromJunction="J5" toJunction="J0" end="60" vehsPerHour="246.86079292385892" departLane="free"/>
  <flow id="JF124290" begin="60" fromJunction="J3" toJunction="J0" end="120" vehsPerHour="17.727589779917693" departLane="free"/>
  <flow id="JF124291" begin="60" fromJunction="J0" toJunction="J3" end="120" vehsPerHour="61.8823257272433" departLane="free"/>
  <flow id="JF124292" begin="60" fromJunction="J3" toJunction="J7" end="120" vehsPerHour="66.4365239109137" departLane="free"/>
  <flow id="JF124293" begin="60" fromJunction="J3" toJunction="J4" end="120" vehsPerHour="522.942101482779" departLane="free"/>
  <flow id="JF124294" begin="60" fromJunction="J3" toJunction="J6" end="120" vehsPerHour="338.5560670763034" departLane="free"/>
  <flow id="JF124295" begin="60" fromJunction="J3" toJunction="J5" end="120" vehsPerHour="392.64663777649196" departLane="free"/>
  <flow id="JF124296" begin="60" fromJunction="J0" toJunction="J7" end="120" vehsPerHour="2.2563091312559926" departLane="free"/>
  <flow id="JF124297" begin="60" fromJunction="J0" toJunction="J4" end="120" vehsPerHour="145.31981057698616" departLane="free"/>
  <flow id="JF124298" begin="60" fromJunction="J0" toJunction="J6" end="120" vehsPerHour="70.66933608161804" departLane="free"/>
  <flow id="JF124299" begin="60" fromJunction="J0" toJunction="J5" end="120" vehsPerHour="330.8983163924533" departLane="free"/>
  <flow id="JF124300" begin="120" fromJunction="J3" toJunction="J0" end="180" vehsPerHour="82.76855509415442" departLane="free"/>
  <flow id="JF124301" begin="120" fromJunction="J0" toJunction="J3" end="180" vehsPerHour="106.9495188268319" departLane="free"/>
  <flow id="JF124302" begin="120" fromJunction="J3" toJunction="J7" end="180" vehsPerHour="451.7495285400061" departLane="free"/>
  <flow id="JF124303" begin="120" fromJunction="J3" toJunction="J4" end="180" vehsPerHour="535.0216511785788" departLane="free"/>
  <flow id="JF124304" begin="120" fromJunction="J3" toJunction="J6" end="180" vehsPerHour="75.75105304938796" departLane="free"/>
  <flow id="JF124305" begin="120" fromJunction="J3" toJunction="J5" end="180" vehsPerHour="175.29457683828934" departLane="free"/>
  <flow id="JF124306" begin="120" fromJunction="J0" toJunction="J7" end="180" vehsPerHour="422.25648240546565" departLane="free"/>
  <flow id="JF124307" begin="120" fromJunction="J0" toJunction="J4" end="180" vehsPerHour="326.8926548438665" departLane="free"/>
  <flow id="JF124308" begin="120" fromJunction="J0" toJunction="J6" end="180" vehsPerHour="254.06876729529847" departLane="free"/>
  <flow id="JF124309" begin="120" fromJunction="J0" toJunction="J5" end="180" vehsPerHour="438.96257042720265" departLane="free"/>
  <flow id="JF124310" begin="120" fromJunction="J7" toJunction="J4" end="180" vehsPerHour="4.219294981054724" departLane="free"/>
  <flow id="JF124311" begin="120" fromJunction="J7" toJunction="J6" end="180" vehsPerHour="50.66025461855187" departLane="free"/>
  <flow id="JF124312" begin="120" fromJunction="J7" toJunction="J5" end="180" vehsPerHour="46.61549003535432" departLane="free"/>
  <flow id="JF124313" begin="120" fromJunction="J4" toJunction="J7" end="180" vehsPerHour="60.3480736771875" departLane="free"/>
  <flow id="JF124314" begin="120" fromJunction="J4" toJunction="J6" end="180" vehsPerHour="23.838841239511975" departLane="free"/>
  <flow id="JF124315" begin="120" fromJunction="J4" toJunction="J5" end="180" vehsPerHour="31.442741272953576" departLane="free"/>
  <flow id="JF124316" begin="120" fromJunction="J6" toJunction="J7" end="180" vehsPerHour="6.394317246038563" departLane="free"/>
  <flow id="JF124317" begin="120" fromJunction="J6" toJunction="J4" end="180" vehsPerHour="63.08868121165362" departLane="free"/>
  <flow id="JF124318" begin="120" fromJunction="J6" toJunction="J5" end="180" vehsPerHour="25.633271892183863" departLane="free"/>
  <flow id="JF124319" begin="120" fromJunction="J5" toJunction="J7" end="180" vehsPerHour="20.484685333076566" departLane="free"/>
  <flow id="JF124320" begin="120" fromJunction="J5" toJunction="J4" end="180" vehsPerHour="67.14168503076883" departLane="free"/>
  <flow id="JF124321" begin="120" fromJunction="J5" toJunction="J6" end="180" vehsPerHour="56.74321586291549" departLane="free"/>
  <flow id="JF124322" begin="120" fromJunction="J7" toJunction="J3" end="180" vehsPerHour="16.508122818172822" departLane="free"/>
  <flow id="JF124323" begin="120" fromJunction="J7" toJunction="J0" end="180" vehsPerHour="237.3981953601862" departLane="free"/>
  <flow id="JF124324" begin="120" fromJunction="J4" toJunction="J3" end="180" vehsPerHour="6.576123483700839" departLane="free"/>
  <flow id="JF124325" begin="120" fromJunction="J4" toJunction="J0" end="180" vehsPerHour="46.558185288037876" departLane="free"/>
  <flow id="JF124326" begin="120" fromJunction="J6" toJunction="J3" end="180" vehsPerHour="100.16087861684615" departLane="free"/>
  <flow id="JF124327" begin="120" fromJunction="J6" toJunction="J0" end="180" vehsPerHour="157.7511564784361" departLane="free"/>
  <flow id="JF124328" begin="120" fromJunction="J5" toJunction="J3" end="180" vehsPerHour="183.8353031226792" departLane="free"/>
  <flow id="JF124329" begin="120" fromJunction="J5" toJunction="J0" end="180" vehsPerHour="40.164482471986666" departLane="free"/>
  <flow id="JF124330" begin="180" fromJunction="J3" toJunction="J0" end="240" vehsPerHour="87.73034642718044" departLane="free"/>
  <flow id="JF124331" begin="180" fromJunction="J0" toJunction="J3" end="240" vehsPerHour="111.60006341529763" departLane="free"/>
  <flow id="JF124332" begin="180" fromJunction="J3" toJunction="J7" end="240" vehsPerHour="446.5261321723379" departLane="free"/>
  <flow id="JF124333" begin="180" fromJunction="J3" toJunction="J4" end="240" vehsPerHour="528.6718244571296" departLane="free"/>
  <flow id="JF124334" begin="180" fromJunction="J3" toJunction="J6" end="240" vehsPerHour="494.68287807183594" departLane="free"/>
  <flow id="JF124335" begin="180" fromJunction="J3" toJunction="J5" end="240" vehsPerHour="189.7132180613967" departLane="free"/>
  <flow id="JF124336" begin="180" fromJunction="J0" toJunction="J7" end="240" vehsPerHour="187.75670125687637" departLane="free"/>
  <flow id="JF124337" begin="180" fromJunction="J0" toJunction="J4" end="240" vehsPerHour="517.5246689307637" departLane="free"/>
  <flow id="JF124338" begin="180" fromJunction="J0" toJunction="J6" end="240" vehsPerHour="271.53799048455124" departLane="free"/>
  <flow id="JF124339" begin="180" fromJunction="J0" toJunction="J5" end="240" vehsPerHour="485.5615527913262" departLane="free"/>
  <flow id="JF124340" begin="240" fromJunction="J3" toJunction="J0" end="300" vehsPerHour="28.020594447757237" departLane="free"/>
  <flow id="JF124341" begin="240" fromJunction="J0" toJunction="J3" end="300" vehsPerHour="12.34890795733201" departLane="free"/>
  <flow id="JF124342" begin="240" fromJunction="J3" toJunction="J7" end="300" vehsPerHour="514.8634579666672" departLane="free"/>
  <flow id="JF124343" begin="240" fromJunction="J3" toJunction="J4" end="300" vehsPerHour="175.88009362355578" departLane="free"/>
  <flow id="JF124344" begin="240" fromJunction="J3" toJunction="J6" end="300" vehsPerHour="35.896952488200796" departLane="free"/>
  <flow id="JF124345" begin="240" fromJunction="J3" toJunction="J5" end="300" vehsPerHour="44.56263900307878" departLane="free"/>
  <flow id="JF124346" begin="240" fromJunction="J0" toJunction="J7" end="300" vehsPerHour="468.8418144924877" departLane="free"/>
  <flow id="JF124347" begin="240" fromJunction="J0" toJunction="J4" end="300" vehsPerHour="146.1908783309756" departLane="free"/>
  <flow id="JF124348" begin="240" fromJunction="J0" toJunction="J6" end="300" vehsPerHour="340.51935307472075" departLane="free"/>
  <flow id="JF124349" begin="240" fromJunction="J0" toJunction="J5" end="300" vehsPerHour="4.904304247326565" departLane="free"/>
  <flow id="JF124350" begin="240" fromJunction="J7" toJunction="J4" end="300" vehsPerHour="19.518868940046023" departLane="free"/>
  <flow id="JF124351" begin="240" fromJunction="J7" toJunction="J6" end="300" vehsPerHour="44.86815365852117" departLane="free"/>
  <flow id="JF124352" begin="240" fromJunction="J7" toJunction="J5" end="300" vehsPerHour="44.54974612465193" departLane="free"/>
  <flow id="JF124353" begin="240" fromJunction="J4" toJunction="J7" end="300" vehsPerHour="66.87404307456259" departLane="free"/>
  <flow id="JF124354" begin="240" fromJunction="J4" toJunction="J6" end="300" vehsPerHour="9.684973086405744" departLane="free"/>
  <flow id="JF124355" begin="240" fromJunction="J4" toJunction="J5" end="300" vehsPerHour="34.82736377819704" departLane="free"/>
  <flow id="JF124356" begin="240" fromJunction="J6" toJunction="J7" end="300" vehsPerHour="13.569717975903478" departLane="free"/>
  <flow id="JF124357" begin="240" fromJunction="J6" toJunction="J4" end="300" vehsPerHour="29.298280140618175" departLane="free"/>
  <flow id="JF124358" begin="240" fromJunction="J6" toJunction="J5" end="300" vehsPerHour="2.7540101645229282" departLane="free"/>
  <flow id="JF124359" begin="240" fromJunction="J5" toJunction="J7" end="300" vehsPerHour="21.649406666845316" departLane="free"/>
  <flow id="JF124360" begin="240" fromJunction="J5" toJunction="J4" end="300" vehsPerHour="17.353842187945983" departLane="free"/>
  <flow id="JF124361" begin="240" fromJunction="J5" toJunction="J6" end="300" vehsPerHour="31.8139871369546" departLane="free"/>
  <flow id="JF124362" begin="240" fromJunction="J7" toJunction="J3" end="300" vehsPerHour="194.78340365667648" departLane="free"/>
  <flow id="JF124363" begin="240" fromJunction="J7" toJunction="J0" end="300" vehsPerHour="77.25033862207485" departLane="free"/>
  <flow id="JF124364" begin="240" fromJunction="J4" toJunction="J3" end="300" vehsPerHour="104.84260351785422" departLane="free"/>
  <flow id="JF124365" begin="240" fromJunction="J4" toJunction="J0" end="300" vehsPerHour="204.0004756391917" departLane="free"/>
  <flow id="JF124366" begin="240" fromJunction="J6" toJunction="J3" end="300" vehsPerHour="274.48379884369666" departLane="free"/>
  <flow id="JF124367" begin="240" fromJunction="J6" toJunction="J0" end="300" vehsPerHour="228.55290938867842" departLane="free"/>
  <flow id="JF124368" begin="240" fromJunction="J5" toJunction="J3" end="300" vehsPerHour="85.03629588560514" departLane="free"/>
  <flow id="JF124369" begin="240" fromJunction="J5" toJunction="J0" end="300" vehsPerHour="227.35881351001925" departLane="free"/>
  <flow id="JF124370" begin="300" fromJunction="J3" toJunction="J0" end="360" vehsPerHour="96.22077382620779" departLane="free"/>
  <flow id="JF124371" begin="300" fromJunction="J0" toJunction="J3" end="360" vehsPerHour="32.07645664106891" departLane="free"/>
  <flow id="JF124372" begin="300" fromJunction="J3" toJunction="J7" end="360" vehsPerHour="5.898792566188942" departLane="free"/>
  <flow id="JF124373" begin="300" fromJunction="J3" toJunction="J4" end="360" vehsPerHour="52.631905555365954" departLane="free"/>
  <flow id="JF124374" begin="300" fromJunction="J3" toJunction="J6" end="360" vehsPerHour="160.84007012879195" departLane="free"/>
  <flow id="JF124375" begin="300" fromJunction="J3" toJunction="J5" end="360" vehsPerHour="313.65457415311835" departLane="free"/>
  <flow id="JF124376" begin="300" fromJunction="J0" toJunction="J7" end="360" vehsPerHour="115.56587734343671" departLane="free"/>
  <flow id="JF124377" begin="300" fromJunction="J0" toJunction="J4" end="360" vehsPerHour="145.2776106854824" departLane="free"/>
  <flow id="JF124378" begin="300" fromJunction="J0" toJunction="J6" end="360" vehsPerHour="99.08113581776925" departLane="free"/>
  <flow id="JF124379" begin="300" fromJunction="J0" toJunction="J5" end="360" vehsPerHour="536.592018372023" departLane="free"/>
  <flow id="JF124380" begin="300" fromJunction="J7" toJunction="J4" end="360" vehsPerHour="21.28100462770306" departLane="free"/>
  <flow id="JF124381" begin="300" fromJunction="J7" toJunction="J6" end="360" vehsPerHour="49.279499275327225" departLane="free"/>
  <flow id="JF124382" begin="300" fromJunction="J7" toJunction="J5" end="360" vehsPerHour="45.99446016518303" departLane="free"/>
  <flow id="JF124383" begin="300" fromJunction="J4" toJunction="J7" end="360" vehsPerHour="2.181334839492611" departLane="free"/>
  <flow id="JF124384" begin="300" fromJunction="J4" toJunction="J6" end="360" vehsPerHour="45.57488393436569" departLane="free"/>
  <flow id="JF124385" begin="300" fromJunction="J4" toJunction="J5" end="360" vehsPerHour="55.70769695811534" departLane="free"/>
  <flow id="JF124386" begin="300" fromJunction="J6" toJunction="J7" end="360" vehsPerHour="24.83836566056656" departLane="free"/>
  <flow id="JF124387" begin="300" fromJunction="J6" toJunction="J4" end="360" vehsPerHour="12.682262530114368" departLane="free"/>
  <flow id="JF124388" begin="300" fromJunction="J6" toJunction="J5" end="360" vehsPerHour="66.99068260875868" departLane="free"/>
  <flow id="JF124389" begin="300" fromJunction="J5" toJunction="J7" end="360" vehsPerHour="61.085855551257" departLane="free"/>
  <flow id="JF124390" begin="300" fromJunction="J5" toJunction="J4" end="360" vehsPerHour="6.907945673551248" departLane="free"/>
  <flow id="JF124391" begin="300" fromJunction="J5" toJunction="J6" end="360" vehsPerHour="10.319735803585615" departLane="free"/>
  <flow id="JF124392" begin="300" fromJunction="J7" toJunction="J3" end="360" vehsPerHour="251.8181852837642" departLane="free"/>
  <flow id="JF124393" begin="300" fromJunction="J7" toJunction="J0" end="360" vehsPerHour="119.91114782373849" departLane="free"/>
  <flow id="JF124394" begin="300" fromJunction="J4" toJunction="J3" end="360" vehsPerHour="166.95655608612566" departLane="free"/>
  <flow id="JF124395" begin="300" fromJunction="J4" toJunction="J0" end="360" vehsPerHour="216.40353263950496" departLane="free"/>
  <flow id="JF124396" begin="300" fromJunction="J6" toJunction="J3" end="360" vehsPerHour="29.476209459600344" departLane="free"/>
  <flow id="JF124397" begin="300" fromJunction="J6" toJunction="J0" end="360" vehsPerHour="68.28060272359652" departLane="free"/>
  <flow id="JF124398" begin="300" fromJunction="J5" toJunction="J3" end="360" vehsPerHour="174.88629485315778" departLane="free"/>
  <flow id="JF124399" begin="300" fromJunction="J5" toJunction="J0" end="360" vehsPerHour="203.40845335158053" departLane="free"/>
  <flow id="JF124400" begin="360" fromJunction="J3" toJunction="J0" end="420" vehsPerHour="28.28105860839194" departLane="free"/>
  <flow id="JF124401" begin="360" fromJunction="J0" toJunction="J3" end="420" vehsPerHour="21.66887955290208" departLane="free"/>
  <flow id="JF124402" begin="360" fromJunction="J3" toJunction="J7" end="420" vehsPerHour="309.777272615738" departLane="free"/>
  <flow id="JF124403" begin="360" fromJunction="J3" toJunction="J4" end="420" vehsPerHour="89.98943311906363" departLane="free"/>
  <flow id="JF124404" begin="360" fromJunction="J3" toJunction="J6" end="420" vehsPerHour="322.7397065599574" departLane="free"/>
  <flow id="JF124405" begin="360" fromJunction="J3" toJunction="J5" end="420" vehsPerHour="356.8757746020542" departLane="free"/>
  <flow id="JF124406" begin="360" fromJunction="J0" toJunction="J7" end="420" vehsPerHour="140.5357381031674" departLane="free"/>
  <flow id="JF124407" begin="360" fromJunction="J0" toJunction="J4" end="420" vehsPerHour="530.5951246633998" departLane="free"/>
  <flow id="JF124408" begin="360" fromJunction="J0" toJunction="J6" end="420" vehsPerHour="315.2494899958349" departLane="free"/>
  <flow id="JF124409" begin="360" fromJunction="J0" toJunction="J5" end="420" vehsPerHour="304.1293122729679" departLane="free"/>
  <flow id="JF124410" begin="360" fromJunction="J7" toJunction="J4" end="420" vehsPerHour="25.404425959004328" departLane="free"/>
  <flow id="JF124411" begin="360" fromJunction="J7" toJunction="J6" end="420" vehsPerHour="62.78624530418896" departLane="free"/>
  <flow id="JF124412" begin="360" fromJunction="J7" toJunction="J5" end="420" vehsPerHour="60.161235398503386" departLane="free"/>
  <flow id="JF124413" begin="360" fromJunction="J4" toJunction="J7" end="420" vehsPerHour="34.69790447965289" departLane="free"/>
  <flow id="JF124414" begin="360" fromJunction="J4" toJunction="J6" end="420" vehsPerHour="41.560786873536294" departLane="free"/>
  <flow id="JF124415" begin="360" fromJunction="J4" toJunction="J5" end="420" vehsPerHour="1.9727061085454565" departLane="free"/>
  <flow id="JF124416" begin="360" fromJunction="J6" toJunction="J7" end="420" vehsPerHour="56.09802243302419" departLane="free"/>
  <flow id="JF124417" begin="360" fromJunction="J6" toJunction="J4" end="420" vehsPerHour="61.751264508916044" departLane="free"/>
  <flow id="JF124418" begin="360" fromJunction="J6" toJunction="J5" end="420" vehsPerHour="8.751190190938217" departLane="free"/>
  <flow id="JF124419" begin="360" fromJunction="J5" toJunction="J7" end="420" vehsPerHour="43.84872480248879" departLane="free"/>
  <flow id="JF124420" begin="360" fromJunction="J5" toJunction="J4" end="420" vehsPerHour="38.490771678981076" departLane="free"/>
  <flow id="JF124421" begin="360" fromJunction="J5" toJunction="J6" end="420" vehsPerHour="68.47403125195424" departLane="free"/>
  <flow id="JF124422" begin="360" fromJunction="J7" toJunction="J3" end="420" vehsPerHour="2.0139881237563086" departLane="free"/>
  <flow id="JF124423" begin="360" fromJunction="J7" toJunction="J0" end="420" vehsPerHour="234.85818407995095" departLane="free"/>
  <flow id="JF124424" begin="360" fromJunction="J4" toJunction="J3" end="420" vehsPerHour="265.4574639928022" departLane="free"/>
  <flow id="JF124425" begin="360" fromJunction="J4" toJunction="J0" end="420" vehsPerHour="269.7127686244523" departLane="free"/>
  <flow id="JF124426" begin="360" fromJunction="J6" toJunction="J3" end="420" vehsPerHour="217.6839674579177" departLane="free"/>
  <flow id="JF124427" begin="360" fromJunction="J6" toJunction="J0" end="420" vehsPerHour="131.80046580310125" departLane="free"/>
  <flow id="JF124428" begin="360" fromJunction="J5" toJunction="J3" end="420" vehsPerHour="231.49407383175765" departLane="free"/>
  <flow id="JF124429" begin="360" fromJunction="J5" toJunction="J0" end="420" vehsPerHour="67.88575923827221" departLane="free"/>
  <flow id="JF124430" begin="420" fromJunction="J3" toJunction="J0" end="480" vehsPerHour="109.17386235960993" departLane="free"/>
  <flow id="JF124431" begin="420" fromJunction="J0" toJunction="J3" end="480" vehsPerHour="4.599268539549015" departLane="free"/>
  <flow id="JF124432" begin="420" fromJunction="J3" toJunction="J7" end="480" vehsPerHour="32.9097541386362" departLane="free"/>
  <flow id="JF124433" begin="420" fromJunction="J3" toJunction="J4" end="480" vehsPerHour="40.49606555147274" departLane="free"/>
  <flow id="JF124434" begin="420" fromJunction="J3" toJunction="J6" end="480" vehsPerHour="263.02101303476644" departLane="free"/>
  <flow id="JF124435" begin="420" fromJunction="J3" toJunction="J5" end="480" vehsPerHour="488.5788225765121" departLane="free"/>
  <flow id="JF124436" begin="420" fromJunction="J0" toJunction="J7" end="480" vehsPerHour="27.351157213229573" departLane="free"/>
  <flow id="JF124437" begin="420" fromJunction="J0" toJunction="J4" end="480" vehsPerHour="117.66485305935086" departLane="free"/>
  <flow id="JF124438" begin="420" fromJunction="J0" toJunction="J6" end="480" vehsPerHour="386.5578340601718" departLane="free"/>
  <flow id="JF124439" begin="420" fromJunction="J0" toJunction="J5" end="480" vehsPerHour="184.27712118560032" departLane="free"/>
  <flow id="JF124440" begin="420" fromJunction="J7" toJunction="J4" end="480" vehsPerHour="15.02275996361979" departLane="free"/>
  <flow id="JF124441" begin="420" fromJunction="J7" toJunction="J6" end="480" vehsPerHour="66.43396106706156" departLane="free"/>
  <flow id="JF124442" begin="420" fromJunction="J7" toJunction="J5" end="480" vehsPerHour="53.26419519542916" departLane="free"/>
  <flow id="JF124443" begin="420" fromJunction="J4" toJunction="J7" end="480" vehsPerHour="54.88040801006449" departLane="free"/>
  <flow id="JF124444" begin="420" fromJunction="J4" toJunction="J6" end="480" vehsPerHour="34.691850102036206" departLane="free"/>
  <flow id="JF124445" begin="420" fromJunction="J4" toJunction="J5" end="480" vehsPerHour="21.62276220775239" departLane="free"/>
  <flow id="JF124446" begin="420" fromJunction="J6" toJunction="J7" end="480" vehsPerHour="48.64573527472223" departLane="free"/>
  <flow id="JF124447" begin="420" fromJunction="J6" toJunction="J4" end="480" vehsPerHour="40.21398557380534" departLane="free"/>
  <flow id="JF124448" begin="420" fromJunction="J6" toJunction="J5" end="480" vehsPerHour="22.76032969651116" departLane="free"/>
  <flow id="JF124449" begin="420" fromJunction="J5" toJunction="J7" end="480" vehsPerHour="61.279228360469034" departLane="free"/>
  <flow id="JF124450" begin="420" fromJunction="J5" toJunction="J4" end="480" vehsPerHour="26.436352701647895" departLane="free"/>
  <flow id="JF124451" begin="420" fromJunction="J5" toJunction="J6" end="480" vehsPerHour="32.768043752144656" departLane="free"/>
  <flow id="JF124452" begin="420" fromJunction="J7" toJunction="J3" end="480" vehsPerHour="83.2276467620102" departLane="free"/>
  <flow id="JF124453" begin="420" fromJunction="J7" toJunction="J0" end="480" vehsPerHour="172.77381859016134" departLane="free"/>
  <flow id="JF124454" begin="420" fromJunction="J4" toJunction="J3" end="480" vehsPerHour="1.0514502235799492" departLane="free"/>
  <flow id="JF124455" begin="420" fromJunction="J4" toJunction="J0" end="480" vehsPerHour="163.680368776172" departLane="free"/>
  <flow id="JF124456" begin="420" fromJunction="J6" toJunction="J3" end="480" vehsPerHour="177.04063173217168" departLane="free"/>
  <flow id="JF124457" begin="420" fromJunction="J6" toJunction="J0" end="480" vehsPerHour="188.41902558393232" departLane="free"/>
  <flow id="JF124458" begin="420" fromJunction="J5" toJunction="J3" end="480" vehsPerHour="148.94253773927767" departLane="free"/>
  <flow id="JF124459" begin="420" fromJunction="J5" toJunction="J0" end="480" vehsPerHour="116.93922947969206" departLane="free"/>
  <flow id="JF124460" begin="480" fromJunction="J3" toJunction="J0" end="540" vehsPerHour="58.44765728784524" departLane="free"/>
  <flow id="JF124461" begin="480" fromJunction="J0" toJunction="J3" end="540" vehsPerHour="94.93522988870731" departLane="free"/>
  <flow id="JF124462" begin="480" fromJunction="J3" toJunction="J7" end="540" vehsPerHour="479.57033583124763" departLane="free"/>
  <flow id="JF124463" begin="480" fromJunction="J3" toJunction="J4" end="540" vehsPerHour="223.4558538936148" departLane="free"/>
  <flow id="JF124464" begin="480" fromJunction="J3" toJunction="J6" end="540" vehsPerHour="385.97972792265443" departLane="free"/>
  <flow id="JF124465" begin="480" fromJunction="J3" toJunction="J5" end="540" vehsPerHour="108.70267848531657" departLane="free"/>
  <flow id="JF124466" begin="480" fromJunction="J0" toJunction="J7" end="540" vehsPerHour="428.1287742651796" departLane="free"/>
  <flow id="JF124467" begin="480" fromJunction="J0" toJunction="J4" end="540" vehsPerHour="436.1530019844105" departLane="free"/>
  <flow id="JF124468" begin="480" fromJunction="J0" toJunction="J6" end="540" vehsPerHour="173.321780946343" departLane="free"/>
  <flow id="JF124469" begin="480" fromJunction="J0" toJunction="J5" end="540" vehsPerHour="169.39801501484942" departLane="free"/>
  <flow id="JF124470" begin="540" fromJunction="J3" toJunction="J0" end="600" vehsPerHour="131.29578253819497" departLane="free"/>
  <flow id="JF124471" begin="540" fromJunction="J0" toJunction="J3" end="600" vehsPerHour="128.71496098527425" departLane="free"/>
  <flow id="JF124472" begin="540" fromJunction="J3" toJunction="J7" end="600" vehsPerHour="322.7334859404429" departLane="free"/>
  <flow id="JF124473" begin="540" fromJunction="J3" toJunction="J4" end="600" vehsPerHour="349.8466459560767" departLane="free"/>
  <flow id="JF124474" begin="540" fromJunction="J3" toJunction="J6" end="600" vehsPerHour="52.52891480418023" departLane="free"/>
  <flow id="JF124475" begin="540" fromJunction="J3" toJunction="J5" end="600" vehsPerHour="254.04665595519336" departLane="free"/>
  <flow id="JF124476" begin="540" fromJunction="J0" toJunction="J7" end="600" vehsPerHour="87.20381076692136" departLane="free"/>
  <flow id="JF124477" begin="540" fromJunction="J0" toJunction="J4" end="600" vehsPerHour="107.72742461459782" departLane="free"/>
  <flow id="JF124478" begin="540" fromJunction="J0" toJunction="J6" end="600" vehsPerHour="406.3933388176028" departLane="free"/>
  <flow id="JF124479" begin="540" fromJunction="J0" toJunction="J5" end="600" vehsPerHour="17.37063689514501" departLane="free"/>
  <flow id="JF124480" begin="600" fromJunction="J3" toJunction="J0" end="660" vehsPerHour="64.53188977105647" departLane="free"/>
  <flow id="JF124481" begin="600" fromJunction="J0" toJunction="J3" end="660" vehsPerHour="61.750715737544105" departLane="free"/>
  <flow id="JF124482" begin="600" fromJunction="J3" toJunction="J7" end="660" vehsPerHour="141.71161131895914" departLane="free"/>
  <flow id="JF124483" begin="600" fromJunction="J3" toJunction="J4" end="660" vehsPerHour="405.64759413751534" departLane="free"/>
  <flow id="JF124484" begin="600" fromJunction="J3" toJunction="J6" end="660" vehsPerHour="236.6995179503511" departLane="free"/>
  <flow id="JF124485" begin="600" fromJunction="J3" toJunction="J5" end="660" vehsPerHour="324.35710399956787" departLane="free"/>
  <flow id="JF124486" begin="600" fromJunction="J0" toJunction="J7" end="660" vehsPerHour="423.33646838043626" departLane="free"/>
  <flow id="JF124487" begin="600" fromJunction="J0" toJunction="J4" end="660" vehsPerHour="177.41741608048537" departLane="free"/>
  <flow id="JF124488" begin="600" fromJunction="J0" toJunction="J6" end="660" vehsPerHour="38.92664182683511" departLane="free"/>