<?xml version="1.0" encoding="UTF-8"?>
<routes xmlns:xsi="http://www.w3.org/2001/XMLSchema-instance" xsi:noNamespaceSchemaLocation="http://sumo.dlr.de/xsd/routes_file.xsd">
  <flow id="JF3529" begin="0" fromJunction="J0" toJunction="J7" end="360" vehsPerHour="43.103192466314106" departLane="free" arrivalSpeed="0.0"/>
  <flow id="JF3530" begin="0" fromJunction="J3" toJunction="J0" end="360" vehsPerHour="68.65987506975671" departLane="free" arrivalSpeed="0.0"/>
  <flow id="JF3531" begin="0" fromJunction="J3" toJunction="J4" end="360" vehsPerHour="124.42025898263557" departLane="free" arrivalSpeed="0.0"/>
  <flow id="JF3532" begin="0" fromJunction="J3" toJunction="J5" end="360" vehsPerHour="77.43046150845645" departLane="free" arrivalSpeed="0.0"/>
  <flow id="JF3533" begin="0" fromJunction="J3" toJunction="J6" end="360" vehsPerHour="111.13761671251773" departLane="free" arrivalSpeed="0.0"/>
  <flow id="JF3534" begin="0" fromJunction="J4" toJunction="J3" end="360" vehsPerHour="22.405012126133467" departLane="free" arrivalSpeed="0.0"/>
  <flow id="JF3535" begin="0" fromJunction="J4" toJunction="J5" end="360" vehsPerHour="51.40965755013059" departLane="free" arrivalSpeed="0.0"/>
  <flow id="JF3536" begin="0" fromJunction="J4" toJunction="J6" end="360" vehsPerHour="57.12918789914018" departLane="free" arrivalSpeed="0.0"/>
  <flow id="JF3537" begin="0" fromJunction="J4" toJunction="J7" end="360" vehsPerHour="7.854878928725092" departLane="free" arrivalSpeed="0.0"/>
  <flow id="JF3538" begin="0" fromJunction="J5" toJunction="J0" end="360" vehsPerHour="21.816321688257705" departLane="free" arrivalSpeed="0.0"/>
  <flow id="JF3539" begin="0" fromJunction="J5" toJunction="J3" end="360" vehsPerHour="37.234206606974766" departLane="free" arrivalSpeed="0.0"/>
  <flow id="JF3540" begin="0" fromJunction="J5" toJunction="J4" end="360" vehsPerHour="36.80093178729491" departLane="free" arrivalSpeed="0.0"/>
  <flow id="JF3541" begin="0" fromJunction="J5" toJunction="J6" end="360" vehsPerHour="52.78258195461048" departLane="free" arrivalSpeed="0.0"/>
  <flow id="JF3542" begin="0" fromJunction="J5" toJunction="J7" end="360" vehsPerHour="24.85370930581099" departLane="free" arrivalSpeed="0.0"/>
  <flow id="JF3543" begin="0" fromJunction="J6" toJunction="J4" end="360" vehsPerHour="64.97711510089546" departLane="free" arrivalSpeed="0.0"/>
  <flow id="JF3544" begin="0" fromJunction="J6" toJunction="J7" end="360" vehsPerHour="29.33907981511228" departLane="free" arrivalSpeed="0.0"/>
  <flow id="JF3545" begin="0" fromJunction="J7" toJunction="J0" end="360" vehsPerHour="54.82591741900627" departLane="free" arrivalSpeed="0.0"/>
  <flow id="JF3546" begin="0" fromJunction="J7" toJunction="J3" end="360" vehsPerHour="0.29548363216649143" departLane="free" arrivalSpeed="0.0"/>
  <flow id="JF3547" begin="0" fromJunction="J7" toJunction="J4" end="360" vehsPerHour="68.08145327257427" departLane="free" arrivalSpeed="0.0"/>
  <flow id="JF3548" begin="360" fromJunction="J0" toJunction="J3" end="720" vehsPerHour="116.2599403939805" departLane="free" arrivalSpeed="0.0"/>
  <flow id="JF3549" begin="360" fromJunction="J0" toJunction="J4" end="720" vehsPerHour="70.29347312898496" departLane="free" arrivalSpeed="0.0"/>
  <flow id="JF3550" begin="360" fromJunction="J0" toJunction="J6" end="720" vehsPerHour="87.06590791919548" departLane="free" arrivalSpeed="0.0"/>
  <flow id="JF3551" begin="360" fromJunction="J3" toJunction="J0" end="720" vehsPerHour="118.89567533466548" departLane="free" arrivalSpeed="0.0"/>
  <flow id="JF3552" begin="360" fromJunction="J4" toJunction="J0" end="720" vehsPerHour="9.76337068991969" departLane="free" arrivalSpeed="0.0"/>
  <flow id="JF3553" begin="360" fromJunction="J4" toJunction="J3" end="720" vehsPerHour="0.2420915372453672" departLane="free" arrivalSpeed="0.0"/>
  <flow id="JF3554" begin="360" fromJunction="J4" toJunction="J5" end="720" vehsPerHour="43.6086846486265" departLane="free" arrivalSpeed="0.0"/>
  <flow id="JF3555" begin="360" fromJunction="J4" toJunction="J6" end="720" vehsPerHour="22.657230129563423" departLane="free" arrivalSpeed="0.0"/>
  <flow id="JF3556" begin="360" fromJunction="J4" toJunction="J7" end="720" vehsPerHour="49.413013627884695" departLane="free" arrivalSpeed="0.0"/>
  <flow id="JF3557" begin="360" fromJunction="J5" toJunction="J3" end="720" vehsPerHour="7.219732809994674" departLane="free" arrivalSpeed="0.0"/>
  <flow id="JF3558" begin="360" fromJunction="J5" toJunction="J7" end="720" vehsPerHour="31.92276671833016" departLane="free" arrivalSpeed="0.0"/>
  <flow id="JF3559" begin="360" fromJunction="J6" toJunction="J3" end="720" vehsPerHour="57.58811962818549" departLane="free" arrivalSpeed="0.0"/>
  <flow id="JF3560" begin="360" fromJunction="J6" toJunction="J7" end="720" vehsPerHour="51.00075256494269" departLane="free" arrivalSpeed="0.0"/>
  <flow id="JF3561" begin="360" fromJunction="J7" toJunction="J0" end="720" vehsPerHour="22.634952910077022" departLane="free" arrivalSpeed="0.0"/>
  <flow id="JF3562" begin="360" fromJunction="J7" toJunction="J4" end="720" vehsPerHour="41.2958437027158" departLane="free" arrivalSpeed="0.0"/>
  <flow id="JF3563" begin="720" fromJunction="J0" toJunction="J3" end="1080" vehsPerHour="79.72947108722165" departLane="free" arrivalSpeed="0.0"/>
  <flow id="JF3564" begin="720" fromJunction="J0" toJunction="J4" end="1080" vehsPerHour="23.901129179085714" departLane="free" arrivalSpeed="0.0"/>
  <flow id="JF3565" begin="720" fromJunction="J0" toJunction="J5" end="1080" vehsPerHour="22.407282022556693" departLane="free" arrivalSpeed="0.0"/>
  <flow id="JF3566" begin="720" fromJunction="J0" toJunction="J6" end="1080" vehsPerHour="30.891806502748146" departLane="free" arrivalSpeed="0.0"/>
  <flow id="JF3567" begin="720" fromJunction="J0" toJunction="J7" end="1080" vehsPerHour="66.9262390447215" departLane="free" arrivalSpeed="0.0"/>
  <flow id="JF3568" begin="720" fromJunction="J3" toJunction="J5" end="1080" vehsPerHour="120.9370908774928" departLane="free" arrivalSpeed="0.0"/>
  <flow id="JF3569" begin="720" fromJunction="J3" toJunction="J6" end="1080" vehsPerHour="48.200220121975974" departLane="free" arrivalSpeed="0.0"/>
  <flow id="JF3570" begin="720" fromJunction="J3" toJunction="J7" end="1080" vehsPerHour="40.406016848201745" departLane="free" arrivalSpeed="0.0"/>
  <flow id="JF3571" begin="720" fromJunction="J4" toJunction="J5" end="1080" vehsPerHour="13.094132976904053" departLane="free" arrivalSpeed="0.0"/>
  <flow id="JF3572" begin="720" fromJunction="J5" toJunction="J0" end="1080" vehsPerHour="6.499002226914866" departLane="free" arrivalSpeed="0.0"/>
  <flow id="JF3573" begin="720" fromJunction="J5" toJunction="J4" end="1080" vehsPerHour="58.59691302796685" departLane="free" arrivalSpeed="0.0"/>
  <flow id="JF3574" begin="720" fromJunction="J5" toJunction="J6" end="1080" vehsPerHour="63.55780836414357" departLane="free" arrivalSpeed="0.0"/>
  <flow id="JF3575" begin="720" fromJunction="J5" toJunction="J7" end="1080" vehsPerHour="7.134095469147208" departLane="free" arrivalSpeed="0.0"/>
  <flow id="JF3576" begin="720" fromJunction="J6" toJunction="J0" end="1080" vehsPerHour="47.34964780214766" departLane="free" arrivalSpeed="0.0"/>
  <flow id="JF3577" begin="720" fromJunction="J6" toJunction="J3" end="1080" vehsPerHour="13.426468133063988" departLane="free" arrivalSpeed="0.0"/>
  <flow id="JF3578" begin="720" fromJunction="J6" toJunction="J5" end="1080" vehsPerHour="37.145936993719936" departLane="free" arrivalSpeed="0.0"/>
  <flow id="JF3579" begin="720" fromJunction="J6" toJunction="J7" end="1080" vehsPerHour="6.666225815443988" departLane="free" arrivalSpeed="0.0"/>
  <flow id="JF3580" begin="720" fromJunction="J7" toJunction="J0" end="1080" vehsPerHour="29.538756553829305" departLane="free" arrivalSpeed="0.0"/>
  <flow id="JF3581" begin="720" fromJunction="J7" toJunction="J3" end="1080" vehsPerHour="29.47416773256663" departLane="free" arrivalSpeed="0.0"/>
  <flow id="JF3582" begin="720" fromJunction="J7" toJunction="J4" end="1080" vehsPerHour="14.361625413861864" departLane="free" arrivalSpeed="0.0"/>
  <flow id="JF3583" begin="720" fromJunction="J7" toJunction="J5" end="1080" vehsPerHour="12.294548576452806" departLane="free" arrivalSpeed="0.0"/>
  <flow id="JF3584" begin="720" fromJunction="J7" toJunction="J6" end="1080" vehsPerHour="34.91923042056822" departLane="free" arrivalSpeed="0.0"/>
  <flow id="JF3585" begin="1080" fromJunction="J0" toJunction="J3" end="1440" vehsPerHour="68.90153813263417" departLane="free" arrivalSpeed="0.0"/>
  <flow id="JF3586" begin="1080" fromJunction="J0" toJunction="J4" end="1440" vehsPerHour="136.20617957603108" departLane="free" arrivalSpeed="0.0"/>
  <flow id="JF3587" begin="1080" fromJunction="J0" toJunction="J5" end="1440" vehsPerHour="36.116477844469316" departLane="free" arrivalSpeed="0.0"/>
  <flow id="JF3588" begin="1080" fromJunction="J0" toJunction="J6" end="1440" vehsPerHour="111.5690966930903" departLane="free" arrivalSpeed="0.0"/>
  <flow id="JF3589" begin="1080" fromJunction="J0" toJunction="J7" end="1440" vehsPerHour="79.37507311760176" departLane="free" arrivalSpeed="0.0"/>
  <flow id="JF3590" begin="1080" fromJunction="J3" toJunction="J0" end="1440" vehsPerHour="111.51113667136282" departLane="free" arrivalSpeed="0.0"/>
  <flow id="JF3591" begin="1080" fromJunction="J3" toJunction="J5" end="1440" vehsPerHour="126.3664211402208" departLane="free" arrivalSpeed="0.0"/>
  <flow id="JF3592" begin="1080" fromJunction="J3" toJunction="J7" end="1440" vehsPerHour="62.80387575191304" departLane="free" arrivalSpeed="0.0"/>
  <flow id="JF3593" begin="1080" fromJunction="J4" toJunction="J0" end="1440" vehsPerHour="67.64275421503972" departLane="free" arrivalSpeed="0.0"/>
  <flow id="JF3594" begin="1080" fromJunction="J4" toJunction="J3" end="1440" vehsPerHour="6.0976613652349" departLane="free" arrivalSpeed="0.0"/>
  <flow id="JF3595" begin="1080" fromJunction="J4" toJunction="J5" end="1440" vehsPerHour="22.978247548883132" departLane="free" arrivalSpeed="0.0"/>
  <flow id="JF3596" begin="1080" fromJunction="J4" toJunction="J6" end="1440" vehsPerHour="3.307216824608998" departLane="free" arrivalSpeed="0.0"/>
  <flow id="JF3597" begin="1080" fromJunction="J4" toJunction="J7" end="1440" vehsPerHour="50.48543494558594" departLane="free" arrivalSpeed="0.0"/>
  <flow id="JF3598" begin="1080" fromJunction="J5" toJunction="J0" end="1440" vehsPerHour="11.037453547099865" departLane="free" arrivalSpeed="0.0"/>
  <flow id="JF3599" begin="1080" fromJunction="J5" toJunction="J3" end="1440" vehsPerHour="13.043789113557642" departLane="free" arrivalSpeed="0.0"/>
  <flow id="JF3600" begin="1080" fromJunction="J5" toJunction="J4" end="1440" vehsPerHour="16.658708805017636" departLane="free" arrivalSpeed="0.0"/>
  <flow id="JF3601" begin="1080" fromJunction="J5" toJunction="J6" end="1440" vehsPerHour="66.87617027122823" departLane="free" arrivalSpeed="0.0"/>
  <flow id="JF3602" begin="1080" fromJunction="J5" toJunction="J7" end="1440" vehsPerHour="22.632859180026355" departLane="free" arrivalSpeed="0.0"/>
  <flow id="JF3603" begin="1080" fromJunction="J6" toJunction="J0" end="1440" vehsPerHour="14.462940566744702" departLane="free" arrivalSpeed="0.0"/>
  <flow id="JF3604" begin="1080" fromJunction="J6" toJunction="J3" end="1440" vehsPerHour="2.1341254801908986" departLane="free" arrivalSpeed="0.0"/>
  <flow id="JF3605" begin="1080" fromJunction="J6" toJunction="J4" end="1440" vehsPerHour="56.289919305339545" departLane="free" arrivalSpeed="0.0"/>
  <flow id="JF3606" begin="1080" fromJunction="J7" toJunction="J0" end="1440" vehsPerHour="22.76670517579442" departLane="free" arrivalSpeed="0.0"/>
  <flow id="JF3607" begin="1080" fromJunction="J7" toJunction="J3" end="1440" vehsPerHour="35.460462425777465" departLane="free" arrivalSpeed="0.0"/>
  <flow id="JF3608" begin="1080" fromJunction="J7" toJunction="J4" end="1440" vehsPerHour="33.213912132117095" departLane="free" arrivalSpeed="0.0"/>
  <flow id="JF3609" begin="1080" fromJunction="J7" toJunction="J5" end="1440" vehsPerHour="9.424762257014185" departLane="free" arrivalSpeed="0.0"/>
  <flow id="JF3610" begin="1440" fromJunction="J0" toJunction="J3" end="1800" vehsPerHour="123.26283132560525" departLane="free" arrivalSpeed="0.0"/>
  <flow id="JF3611" begin="1440" fromJunction="J0" toJunction="J4" end="1800" vehsPerHour="22.27502534367622" departLane="free" arrivalSpeed="0.0"/>
  <flow id="JF3612" begin="1440" fromJunction="J0" toJunction="J5" end="1800" vehsPerHour="72.49507205129945" departLane="free" arrivalSpeed="0.0"/>
  <flow id="JF3613" begin="1440" fromJunction="J0" toJunction="J7" end="1800" vehsPerHour="68.60459840028213" departLane="free" arrivalSpeed="0.0"/>
  <flow id="JF3614" begin="1440" fromJunction="J3" toJunction="J0" end="1800" vehsPerHour="28.4267036468669" departLane="free" arrivalSpeed="0.0"/>
  <flow id="JF3615" begin="1440" fromJunction="J3" toJunction="J4" end="1800" vehsPerHour="31.362628266926844" departLane="free" arrivalSpeed="0.0"/>
  <flow id="JF3616" begin="1440" fromJunction="J3" toJunction="J5" end="1800" vehsPerHour="97.75616642339111" departLane="free" arrivalSpeed="0.0"/>
  <flow id="JF3617" begin="1440" fromJunction="J3" toJunction="J6" end="1800" vehsPerHour="105.03472821836888" departLane="free" arrivalSpeed="0.0"/>
  <flow id="JF3618" begin="1440" fromJunction="J3" toJunction="J7" end="1800" vehsPerHour="96.79370008468773" departLane="free" arrivalSpeed="0.0"/>
  <flow id="JF3619" begin="1440" fromJunction="J4" toJunction="J0" end="1800" vehsPerHour="67.3418280419627" departLane="free" arrivalSpeed="0.0"/>
  <flow id="JF3620" begin="1440" fromJunction="J4" toJunction="J5" end="1800" vehsPerHour="8.634924844429579" departLane="free" arrivalSpeed="0.0"/>
  <flow id="JF3621" begin="1440" fromJunction="J4" toJunction="J6" end="1800" vehsPerHour="58.708479513114405" departLane="free" arrivalSpeed="0.0"/>
  <flow id="JF3622" begin="1440" fromJunction="J5" toJunction="J0" end="1800" vehsPerHour="51.00783224609173" departLane="free" arrivalSpeed="0.0"/>
  <flow id="JF3623" begin="1440" fromJunction="J5" toJunction="J4" end="1800" vehsPerHour="67.65831284160961" departLane="free" arrivalSpeed="0.0"/>
  <flow id="JF3624" begin="1440" fromJunction="J5" toJunction="J6" end="1800" vehsPerHour="22.137925406485145" departLane="free" arrivalSpeed="0.0"/>
  <flow id="JF3625" begin="1440" fromJunction="J5" toJunction="J7" end="1800" vehsPerHour="12.639927473265905" departLane="free" arrivalSpeed="0.0"/>
  <flow id="JF3626" begin="1440" fromJunction="J6" toJunction="J0" end="1800" vehsPerHour="67.41468595488028" departLane="free" arrivalSpeed="0.0"/>
  <flow id="JF3627" begin="1440" fromJunction="J6" toJunction="J3" end="1800" vehsPerHour="46.99302674526126" departLane="free" arrivalSpeed="0.0"/>
  <flow id="JF3628" begin="1440" fromJunction="J6" toJunction="J4" end="1800" vehsPerHour="56.776860809462256" departLane="free" arrivalSpeed="0.0"/>
  <flow id="JF3629" begin="1440" fromJunction="J6" toJunction="J7" end="1800" vehsPerHour="40.311294936268524" departLane="free" arrivalSpeed="0.0"/>
  <flow id="JF3630" begin="1440" fromJunction="J7" toJunction="J0" end="1800" vehsPerHour="61.88228846076595" departLane="free" arrivalSpeed="0.0"/>
  <flow id="JF3631" begin="1440" fromJunction="J7" toJunction="J3" end="1800" vehsPerHour="51.306837692161054" departLane="free" arrivalSpeed="0.0"/>
  <flow id="JF3632" begin="1440" fromJunction="J7" toJunction="J4" end="1800" vehsPerHour="3.0646272252205575" departLane="free" arrivalSpeed="0.0"/>
  <flow id="JF3633" begin="1440" fromJunction="J7" toJunction="J5" end="1800" vehsPerHour="45.378945858645935" departLane="free" arrivalSpeed="0.0"/>
  <flow id="JF3634" begin="1800" fromJunction="J0" toJunction="J4" end="2160" vehsPerHour="86.67556310795007" departLane="free" arrivalSpeed="0.0"/>
  <flow id="JF3635" begin="1800" fromJunction="J0" toJunction="J6" end="2160" vehsPerHour="104.85423518838552" departLane="free" arrivalSpeed="0.0"/>
  <flow id="JF3636" begin="1800" fromJunction="J0" toJunction="J7" end="2160" vehsPerHour="97.79089782742027" departLane="free" arrivalSpeed="0.0"/>
  <flow id="JF3637" begin="1800" fromJunction="J3" toJunction="J0" end="2160" vehsPerHour="74.61319830449857" departLane="free" arrivalSpeed="0.0"/>
  <flow id="JF3638" begin="1800" fromJunction="J3" toJunction="J4" end="2160" vehsPerHour="97.08321543367599" departLane="free" arrivalSpeed="0.0"/>
  <flow id="JF3639" begin="1800" fromJunction="J4" toJunction="J0" end="2160" vehsPerHour="24.597651836937267" departLane="free" arrivalSpeed="0.0"/>
  <flow id="JF3640" begin="1800" fromJunction="J4" toJunction="J3" end="2160" vehsPerHour="18.66731104379099" departLane="free" arrivalSpeed="0.0"/>
  <flow id="JF3641" begin="1800" fromJunction="J4" toJunction="J5" end="2160" vehsPerHour="18.655381304116986" departLane="free" arrivalSpeed="0.0"/>
  <flow id="JF3642" begin="1800" fromJunction="J4" toJunction="J6" end="2160" vehsPerHour="20.520631153115907" departLane="free" arrivalSpeed="0.0"/>
  <flow id="JF3643" begin="1800" fromJunction="J5" toJunction="J0" end="2160" vehsPerHour="16.54622861194671" departLane="free" arrivalSpeed="0.0"/>
  <flow id="JF3644" begin="1800" fromJunction="J5" toJunction="J6" end="2160" vehsPerHour="24.688276260527118" departLane="free" arrivalSpeed="0.0"/>
  <flow id="JF3645" begin="1800" fromJunction="J6" toJunction="J3" end="2160" vehsPerHour="44.656482856609976" departLane="free" arrivalSpeed="0.0"/>
  <flow id="JF3646" begin="1800" fromJunction="J6" toJunction="J4" end="2160" vehsPerHour="66.94669641593968" departLane="free" arrivalSpeed="0.0"/>
  <flow id="JF3647" begin="1800" fromJunction="J6" toJunction="J7" end="2160" vehsPerHour="15.22138815715021" departLane="free" arrivalSpeed="0.0"/>
  <flow id="JF3648" begin="1800" fromJunction="J7" toJunction="J3" end="2160" vehsPerHour="10.74921291205665" departLane="free" arrivalSpeed="0.0"/>
  <flow id="JF3649" begin="2160" fromJunction="J0" toJunction="J3" end="2520" vehsPerHour="122.14440159060906" departLane="free" arrivalSpeed="0.0"/>
  <flow id="JF3650" begin="2160" fromJunction="J0" toJunction="J4" end="2520" vehsPerHour="97.79289477578655" departLane="free" arrivalSpeed="0.0"/>
  <flow id="JF3651" begin="2160" fromJunction="J0" toJunction="J6" end="2520" vehsPerHour="31.79848456812444" departLane="free" arrivalSpeed="0.0"/>
  <flow id="JF3652" begin="2160" fromJunction="J0" toJunction="J7" end="2520" vehsPerHour="49.161536093790936" departLane="free" arrivalSpeed="0.0"/>
  <flow id="JF3653" begin="2160" fromJunction="J3" toJunction="J0" end="2520" vehsPerHour="110.57438594481225" departLane="free" arrivalSpeed="0.0"/>
  <flow id="JF3654" begin="2160" fromJunction="J3" toJunction="J4" end="2520" vehsPerHour="92.737247021172" departLane="free" arrivalSpeed="0.0"/>
  <flow id="JF3655" begin="2160" fromJunction="J3" toJunction="J5" end="2520" vehsPerHour="119.65070022232852" departLane="free" arrivalSpeed="0.0"/>
  <flow id="JF3656" begin="2160" fromJunction="J3" toJunction="J6" end="2520" vehsPerHour="85.2441930936042" departLane="free" arrivalSpeed="0.0"/>
  <flow id="JF3657" begin="2160" fromJunction="J3" toJunction="J7" end="2520" vehsPerHour="11.31278186332831" departLane="free" arrivalSpeed="0.0"/>
  <flow id="JF3658" begin="2160" fromJunction="J4" toJunction="J0" end="2520" vehsPerHour="20.27815774806487" departLane="free" arrivalSpeed="0.0"/>
  <flow id="JF3659" begin="2160" fromJunction="J4" toJunction="J6" end="2520" vehsPerHour="53.30227830832143" departLane="free" arrivalSpeed="0.0"/>
  <flow id="JF3660" begin="2160" fromJunction="J5" toJunction="J0" end="2520" vehsPerHour="53.01135839033975" departLane="free" arrivalSpeed="0.0"/>
  <flow id="JF3661" begin="2160" fromJunction="J6" toJunction="J0" end="2520" vehsPerHour="12.514518736844769" departLane="free" arrivalSpeed="0.0"/>
  <flow id="JF3662" begin="2160" fromJunction="J6" toJunction="J4" end="2520" vehsPerHour="57.57318919227859" departLane="free" arrivalSpeed="0.0"/>
  <flow id="JF3663" begin="2160" fromJunction="J6" toJunction="J5" end="2520" vehsPerHour="38.96796416056144" departLane="free" arrivalSpeed="0.0"/>
  <flow id="JF3664" begin="2160" fromJunction="J7" toJunction="J0" end="2520" vehsPerHour="27.36966573766373" departLane="free" arrivalSpeed="0.0"/>
  <flow id="JF3665" begin="2160" fromJunction="J7" toJunction="J4" end="2520" vehsPerHour="13.666793508282638" departLane="free" arrivalSpeed="0.0"/>
  <flow id="JF3666" begin="2160" fromJunction="J7" toJunction="J6" end="2520" vehsPerHour="51.53581906032237" departLane="free" arrivalSpeed="0.0"/>
  <flow id="JF3667" begin="2520" fromJunction="J0" toJunction="J3" end="2880" vehsPerHour="16.24403101531543" departLane="free" arrivalSpeed="0.0"/>
  <flow id="JF3668" begin="2520" fromJunction="J0" toJunction="J4" end="2880" vehsPerHour="59.9857280918453" departLane="free" arrivalSpeed="0.0"/>
  <flow id="JF3669" begin="2520" fromJunction="J0" toJunction="J5" end="2880" vehsPerHour="22.93701716676113" departLane="free" arrivalSpeed="0.0"/>
  <flow id="JF3670" begin="2520" fromJunction="J0" toJunction="J7" end="2880" vehsPerHour="72.4349291885473" departLane="free" arrivalSpeed="0.0"/>
  <flow id="JF3671" begin="2520" fromJunction="J3" toJunction="J0" end="2880" vehsPerHour="108.18013282747619" departLane="free" arrivalSpeed="0.0"/>
  <flow id="JF3672" begin="2520" fromJunction="J3" toJunction="J5" end="2880" vehsPerHour="56.932993225207156" departLane="free" arrivalSpeed="0.0"/>
  <flow id="JF3673" begin="2520" fromJunction="J3" toJunction="J7" end="2880" vehsPerHour="60.57757779778548" departLane="free" arrivalSpeed="0.0"/>
  <flow id="JF3674" begin="2520" fromJunction="J4" toJunction="J3" end="2880" vehsPerHour="4.136373598112885" departLane="free" arrivalSpeed="0.0"/>
  <flow id="JF3675" begin="2520" fromJunction="J5" toJunction="J6" end="2880" vehsPerHour="18.58183395701431" departLane="free" arrivalSpeed="0.0"/>
  <flow id="JF3676" begin="2520" fromJunction="J5" toJunction="J7" end="2880" vehsPerHour="38.54762494925526" departLane="free" arrivalSpeed="0.0"/>
  <flow id="JF3677" begin="2520" fromJunction="J6" toJunction="J0" end="2880" vehsPerHour="49.10034443347828" departLane="free" arrivalSpeed="0.0"/>
  <flow id="JF3678" begin="2520" fromJunction="J6" toJunction="J4" end="2880" vehsPerHour="67.14802290119736" departLane="free" arrivalSpeed="0.0"/>
  <flow id="JF3679" begin="2520" fromJunction="J6" toJunction="J5" end="2880" vehsPerHour="49.17890837570069" departLane="free" arrivalSpeed="0.0"/>
  <flow id="JF3680" begin="2520" fromJunction="J6" toJunction="J7" end="2880" vehsPerHour="29.823795273785173" departLane="free" arrivalSpeed="0.0"/>
  <flow id="JF3681" begin="2520" fromJunction="J7" toJunction="J5" end="2880" vehsPerHour="5.606721369703388" departLane="free" arrivalSpeed="0.0"/>
  <flow id="JF3682" begin="2520" fromJunction="J7" toJunction="J6" end="2880" vehsPerHour="41.02328903516698" departLane="free" arrivalSpeed="0.0"/>
  <flow id="JF3683" begin="2880" fromJunction="J0" toJunction="J3" end="3240" vehsPerHour="70.97776708415783" departLane="free" arrivalSpeed="0.0"/>
  <flow id="JF3684" begin="2880" fromJunction="J0" toJunction="J4" end="3240" vehsPerHour="111.39375822479556" departLane="free" arrivalSpeed="0.0"/>
  <flow id="JF3685" begin="2880" fromJunction="J0" toJunction="J6" end="3240" vehsPerHour="81.09664971600638" departLane="free" arrivalSpeed="0.0"/>
  <flow id="JF3686" begin="2880" fromJunction="J0" toJunction="J7" end="3240" vehsPerHour="111.02753874401647" departLane="free" arrivalSpeed="0.0"/>
  <flow id="JF3687" begin="2880" fromJunction="J3" toJunction="J0" end="3240" vehsPerHour="119.34097601930412" departLane="free" arrivalSpeed="0.0"/>
  <flow id="JF3688" begin="2880" fromJunction="J3" toJunction="J4" end="3240" vehsPerHour="62.43870351634232" departLane="free" arrivalSpeed="0.0"/>
  <flow id="JF3689" begin="2880" fromJunction="J3" toJunction="J5" end="3240" vehsPerHour="93.63100250106753" departLane="free" arrivalSpeed="0.0"/>
  <flow id="JF3690" begin="2880" fromJunction="J3" toJunction="J6" end="3240" vehsPerHour="106.40712212583104" departLane="free" arrivalSpeed="0.0"/>
  <flow id="JF3691" begin="2880" fromJunction="J3" toJunction="J7" end="3240" vehsPerHour="136.4457832171707" departLane="free" arrivalSpeed="0.0"/>
  <flow id="JF3692" begin="2880" fromJunction="J4" toJunction="J6" end="3240" vehsPerHour="60.930058613412754" departLane="free" arrivalSpeed="0.0"/>
  <flow id="JF3693" begin="2880" fromJunction="J4" toJunction="J7" end="3240" vehsPerHour="64.50871526406131" departLane="free" arrivalSpeed="0.0"/>
  <flow id="JF3694" begin="2880" fromJunction="J5" toJunction="J0" end="3240" vehsPerHour="6.4417202083024785" departLane="free" arrivalSpeed="0.0"/>
  <flow id="JF3695" begin="2880" fromJunction="J5" toJunction="J4" end="3240" vehsPerHour="66.75997995834351" departLane="free" arrivalSpeed="0.0"/>
  <flow id="JF3696" begin="2880" fromJunction="J5" toJunction="J6" end="3240" vehsPerHour="63.29773650283611" departLane="free" arrivalSpeed="0.0"/>
  <flow id="JF3697" begin="2880" fromJunction="J5" toJunction="J7" end="3240" vehsPerHour="21.135472802473362" departLane="free" arrivalSpeed="0.0"/>
  <flow id="JF3698" begin="2880" fromJunction="J6" toJunction="J0" end="3240" vehsPerHour="31.931729038528264" departLane="free" arrivalSpeed="0.0"/>
  <flow id="JF3699" begin="2880" fromJunction="J6" toJunction="J3" end="3240" vehsPerHour="30.131316614551448" departLane="free" arrivalSpeed="0.0"/>
  <flow id="JF3700" begin="2880" fromJunction="J6" toJunction="J4" end="3240" vehsPerHour="14.661894269069462" departLane="free" arrivalSpeed="0.0"/>
  <flow id="JF3701" begin="2880" fromJunction="J6" toJunction="J5" end="3240" vehsPerHour="66.41200119927572" departLane="free" arrivalSpeed="0.0"/>
  <flow id="JF3702" begin="2880" fromJunction="J7" toJunction="J0" end="3240" vehsPerHour="41.81628617525688" departLane="free" arrivalSpeed="0.0"/>
  <flow id="JF3703" begin="2880" fromJunction="J7" toJunction="J3" end="3240" vehsPerHour="31.381475841470237" departLane="free" arrivalSpeed="0.0"/>
  <flow id="JF3704" begin="2880" fromJunction="J7" toJunction="J5" end="3240" vehsPerHour="38.08643048696479" departLane="free" arrivalSpeed="0.0"/>
  <flow id="JF3705" begin="3240" fromJunction="J0" toJunction="J4" end="3600" vehsPerHour="53.02562997931332" departLane="free" arrivalSpeed="0.0"/>
  <flow id="JF3706" begin="3240" fromJunction="J0" toJunction="J5" end="3600" vehsPerHour="20.21801821242897" departLane="free" arrivalSpeed="0.0"/>
  <flow id="JF3707" begin="3240" fromJunction="J0" toJunction="J6" end="3600" vehsPerHour="18.218149082013944" departLane="free" arrivalSpeed="0.0"/>
  <flow id="JF3708" begin="3240" fromJunction="J0" toJunction="J7" end="3600" vehsPerHour="61.99154124518873" departLane="free" arrivalSpeed="0.0"/>
  <flow id="JF3709" begin="3240" fromJunction="J3" toJunction="J0" end="3600" vehsPerHour="135.20566140112973" departLane="free" arrivalSpeed="0.0"/>
  <flow id="JF3710" begin="3240" fromJunction="J3" toJunction="J4" end="3600" vehsPerHour="104.77009242312386" departLane="free" arrivalSpeed="0.0"/>
  <flow id="JF3711" begin="3240" fromJunction="J3" toJunction="J5" end="3600" vehsPerHour="23.507757598623186" departLane="free" arrivalSpeed="0.0"/>
  <flow id="JF3712" begin="3240" fromJunction="J3" toJunction="J6" end="3600" vehsPerHour="13.664244159478926" departLane="free" arrivalSpeed="0.0"/>
  <flow id="JF3713" begin="3240" fromJunction="J4" toJunction="J0" end="3600" vehsPerHour="26.25747971831925" departLane="free" arrivalSpeed="0.0"/>
  <flow id="JF3714" begin="3240" fromJunction="J4" toJunction="J3" end="3600" vehsPerHour="63.07798116790546" departLane="free" arrivalSpeed="0.0"/>
  <flow id="JF3715" begin="3240" fromJunction="J4" toJunction="J5" end="3600" vehsPerHour="42.10614760065489" departLane="free" arrivalSpeed="0.0"/>
  <flow id="JF3716" begin="3240" fromJunction="J4" toJunction="J7" end="3600" vehsPerHour="1.2707808113607997" departLane="free" arrivalSpeed="0.0"/>
  <flow id="JF3717" begin="3240" fromJunction="J5" toJunction="J0" end="3600" vehsPerHour="54.56695956652262" departLane="free" arrivalSpeed="0.0"/>
  <flow id="JF3718" begin="3240" fromJunction="J5" toJunction="J3" end="3600" vehsPerHour="66.92681191547778" departLane="free" arrivalSpeed="0.0"/>
  <flow id="JF3719" begin="3240" fromJunction="J5" toJunction="J4" end="3600" vehsPerHour="56.99783129172813" departLane="free" arrivalSpeed="0.0"/>
  <flow id="JF3720" begin="3240" fromJunction="J5" toJunction="J6" end="3600" vehsPerHour="64.78151345828543" departLane="free" arrivalSpeed="0.0"/>
  <flow id="JF3721" begin="3240" fromJunction="J5" toJunction="J7" end="3600" vehsPerHour="28.604981225011926" departLane="free" arrivalSpeed="0.0"/>
  <flow id="JF3722" begin="3240" fromJunction="J6" toJunction="J0" end="3600" vehsPerHour="9.48496562680181" departLane="free" arrivalSpeed="0.0"/>
  <flow id="JF3723" begin="3240" fromJunction="J6" toJunction="J3" end="3600" vehsPerHour="12.387306756558413" departLane="free" arrivalSpeed="0.0"/>
  <flow id="JF3724" begin="3240" fromJunction="J6" toJunction="J5" end="3600" vehsPerHour="19.12243395041492" departLane="free" arrivalSpeed="0.0"/>
  <flow id="JF3725" begin="3240" fromJunction="J7" toJunction="J0" end="3600" vehsPerHour="65.82141327873114" departLane="free" arrivalSpeed="0.0"/>
  <flow id="JF3726" begin="3240" fromJunction="J7" toJunction="J3" end="3600" vehsPerHour="46.58183560716389" departLane="free" arrivalSpeed="0.0"/>
  <flow id="JF3727" begin="3240" fromJunction="J7" toJunction="J4" end="3600" vehsPerHour="27.0198455448103" departLane="free" arrivalSpeed="0.0"/>
  <flow id="JF3728" begin="3240" fromJunction="J7" toJunction="J5" end="3600" vehsPerHour="9.061652107575286" departLane="free" arrivalSpeed="0.0"/>