<?xml version="1.0" encoding="UTF-8"?>
<routes xmlns:xsi="http://www.w3.org/2001/XMLSchema-instance" xsi:noNamespaceSchemaLocation="http://sumo.dlr.de/xsd/routes_file.xsd">
  <flow id="JF222150" begin="0" fromJunction="J0" toJunction="J6" end="60" vehsPerHour="43.996243689495294" departLane="free"/>
  <flow id="JF222151" begin="0" fromJunction="J0" toJunction="J7" end="60" vehsPerHour="40.87991947990722" departLane="free"/>
  <flow id="JF222152" begin="0" fromJunction="J3" toJunction="J0" end="60" vehsPerHour="54.802453468747814" departLane="free"/>
  <flow id="JF222153" begin="0" fromJunction="J3" toJunction="J4" end="60" vehsPerHour="49.2397497207472" departLane="free"/>
  <flow id="JF222154" begin="0" fromJunction="J3" toJunction="J5" end="60" vehsPerHour="136.0956114507169" departLane="free"/>
  <flow id="JF222155" begin="0" fromJunction="J3" toJunction="J7" end="60" vehsPerHour="133.50976310030296" departLane="free"/>
  <flow id="JF222156" begin="0" fromJunction="J4" toJunction="J0" end="60" vehsPerHour="9.622116087895174" departLane="free"/>
  <flow id="JF222157" begin="0" fromJunction="J4" toJunction="J3" end="60" vehsPerHour="64.05383783748788" departLane="free"/>
  <flow id="JF222158" begin="0" fromJunction="J4" toJunction="J6" end="60" vehsPerHour="47.398618436395125" departLane="free"/>
  <flow id="JF222159" begin="0" fromJunction="J5" toJunction="J0" end="60" vehsPerHour="47.10095270284144" departLane="free"/>
  <flow id="JF222160" begin="0" fromJunction="J5" toJunction="J3" end="60" vehsPerHour="21.662765972051698" departLane="free"/>
  <flow id="JF222161" begin="0" fromJunction="J5" toJunction="J6" end="60" vehsPerHour="50.24417515658589" departLane="free"/>
  <flow id="JF222162" begin="0" fromJunction="J5" toJunction="J7" end="60" vehsPerHour="57.55616783388849" departLane="free"/>
  <flow id="JF222163" begin="0" fromJunction="J6" toJunction="J0" end="60" vehsPerHour="21.136643081105102" departLane="free"/>
  <flow id="JF222164" begin="0" fromJunction="J6" toJunction="J3" end="60" vehsPerHour="13.760869893055636" departLane="free"/>
  <flow id="JF222165" begin="0" fromJunction="J6" toJunction="J5" end="60" vehsPerHour="2.703200085787167" departLane="free"/>
  <flow id="JF222166" begin="0" fromJunction="J6" toJunction="J7" end="60" vehsPerHour="62.62960480019439" departLane="free"/>
  <flow id="JF222167" begin="0" fromJunction="J7" toJunction="J0" end="60" vehsPerHour="65.86176405356936" departLane="free"/>
  <flow id="JF222168" begin="0" fromJunction="J7" toJunction="J3" end="60" vehsPerHour="40.06193162728208" departLane="free"/>
  <flow id="JF222169" begin="0" fromJunction="J7" toJunction="J5" end="60" vehsPerHour="14.52073173157229" departLane="free"/>
  <flow id="JF222170" begin="0" fromJunction="J7" toJunction="J6" end="60" vehsPerHour="65.79970615136874" departLane="free"/>
  <flow id="JF222171" begin="60" fromJunction="J0" toJunction="J5" end="120" vehsPerHour="128.9919988103974" departLane="free"/>
  <flow id="JF222172" begin="60" fromJunction="J0" toJunction="J6" end="120" vehsPerHour="20.96510484680388" departLane="free"/>
  <flow id="JF222173" begin="60" fromJunction="J3" toJunction="J0" end="120" vehsPerHour="123.4608219563818" departLane="free"/>
  <flow id="JF222174" begin="60" fromJunction="J3" toJunction="J4" end="120" vehsPerHour="70.76872474729309" departLane="free"/>
  <flow id="JF222175" begin="60" fromJunction="J3" toJunction="J5" end="120" vehsPerHour="112.3939860067778" departLane="free"/>
  <flow id="JF222176" begin="60" fromJunction="J3" toJunction="J6" end="120" vehsPerHour="18.578456521625625" departLane="free"/>
  <flow id="JF222177" begin="60" fromJunction="J4" toJunction="J3" end="120" vehsPerHour="53.75838035303696" departLane="free"/>
  <flow id="JF222178" begin="60" fromJunction="J4" toJunction="J5" end="120" vehsPerHour="51.67919047996166" departLane="free"/>
  <flow id="JF222179" begin="60" fromJunction="J4" toJunction="J6" end="120" vehsPerHour="47.51749350668119" departLane="free"/>
  <flow id="JF222180" begin="60" fromJunction="J4" toJunction="J7" end="120" vehsPerHour="18.857277400629364" departLane="free"/>
  <flow id="JF222181" begin="60" fromJunction="J5" toJunction="J0" end="120" vehsPerHour="51.46283951939195" departLane="free"/>
  <flow id="JF222182" begin="60" fromJunction="J5" toJunction="J3" end="120" vehsPerHour="12.907301821788227" departLane="free"/>
  <flow id="JF222183" begin="60" fromJunction="J5" toJunction="J7" end="120" vehsPerHour="40.75022760145475" departLane="free"/>
  <flow id="JF222184" begin="60" fromJunction="J6" toJunction="J0" end="120" vehsPerHour="65.31262441814559" departLane="free"/>
  <flow id="JF222185" begin="60" fromJunction="J6" toJunction="J3" end="120" vehsPerHour="17.349129026457824" departLane="free"/>
  <flow id="JF222186" begin="60" fromJunction="J6" toJunction="J5" end="120" vehsPerHour="61.894312197306775" departLane="free"/>
  <flow id="JF222187" begin="60" fromJunction="J6" toJunction="J7" end="120" vehsPerHour="59.82451064266105" departLane="free"/>
  <flow id="JF222188" begin="60" fromJunction="J7" toJunction="J0" end="120" vehsPerHour="3.6545947164250934" departLane="free"/>
  <flow id="JF222189" begin="60" fromJunction="J7" toJunction="J3" end="120" vehsPerHour="0.11618227825709294" departLane="free"/>
  <flow id="JF222190" begin="60" fromJunction="J7" toJunction="J4" end="120" vehsPerHour="39.30000521033765" departLane="free"/>
  <flow id="JF222191" begin="60" fromJunction="J7" toJunction="J5" end="120" vehsPerHour="15.583062421605874" departLane="free"/>
  <flow id="JF222192" begin="120" fromJunction="J0" toJunction="J3" end="180" vehsPerHour="76.65220999858217" departLane="free"/>
  <flow id="JF222193" begin="120" fromJunction="J0" toJunction="J4" end="180" vehsPerHour="12.633329544273398" departLane="free"/>
  <flow id="JF222194" begin="120" fromJunction="J0" toJunction="J7" end="180" vehsPerHour="68.0467650347832" departLane="free"/>
  <flow id="JF222195" begin="120" fromJunction="J3" toJunction="J0" end="180" vehsPerHour="81.4308373813833" departLane="free"/>
  <flow id="JF222196" begin="120" fromJunction="J3" toJunction="J4" end="180" vehsPerHour="70.3851784461688" departLane="free"/>
  <flow id="JF222197" begin="120" fromJunction="J3" toJunction="J6" end="180" vehsPerHour="57.014186405679034" departLane="free"/>
  <flow id="JF222198" begin="120" fromJunction="J3" toJunction="J7" end="180" vehsPerHour="61.286050034376515" departLane="free"/>
  <flow id="JF222199" begin="120" fromJunction="J4" toJunction="J0" end="180" vehsPerHour="33.220516069120414" departLane="free"/>
  <flow id="JF222200" begin="120" fromJunction="J4" toJunction="J3" end="180" vehsPerHour="42.958566482199" departLane="free"/>
  <flow id="JF222201" begin="120" fromJunction="J4" toJunction="J5" end="180" vehsPerHour="27.125714350332288" departLane="free"/>
  <flow id="JF222202" begin="120" fromJunction="J4" toJunction="J7" end="180" vehsPerHour="35.70487580097532" departLane="free"/>
  <flow id="JF222203" begin="120" fromJunction="J5" toJunction="J3" end="180" vehsPerHour="58.68034241141768" departLane="free"/>
  <flow id="JF222204" begin="120" fromJunction="J5" toJunction="J4" end="180" vehsPerHour="68.69277284500959" departLane="free"/>
  <flow id="JF222205" begin="120" fromJunction="J5" toJunction="J6" end="180" vehsPerHour="0.5158920890842927" departLane="free"/>
  <flow id="JF222206" begin="120" fromJunction="J5" toJunction="J7" end="180" vehsPerHour="6.252413595512944" departLane="free"/>
  <flow id="JF222207" begin="120" fromJunction="J6" toJunction="J0" end="180" vehsPerHour="23.84495970618526" departLane="free"/>
  <flow id="JF222208" begin="120" fromJunction="J6" toJunction="J7" end="180" vehsPerHour="41.13289116822804" departLane="free"/>
  <flow id="JF222209" begin="120" fromJunction="J7" toJunction="J0" end="180" vehsPerHour="26.143665943987134" departLane="free"/>
  <flow id="JF222210" begin="120" fromJunction="J7" toJunction="J3" end="180" vehsPerHour="22.08012880908651" departLane="free"/>
  <flow id="JF222211" begin="120" fromJunction="J7" toJunction="J6" end="180" vehsPerHour="39.463398585495995" departLane="free"/>
  <flow id="JF222212" begin="180" fromJunction="J0" toJunction="J3" end="240" vehsPerHour="70.40819322784553" departLane="free"/>
  <flow id="JF222213" begin="180" fromJunction="J0" toJunction="J4" end="240" vehsPerHour="112.71887786372992" departLane="free"/>
  <flow id="JF222214" begin="180" fromJunction="J0" toJunction="J7" end="240" vehsPerHour="121.61987538455185" departLane="free"/>
  <flow id="JF222215" begin="180" fromJunction="J3" toJunction="J0" end="240" vehsPerHour="104.6807289709997" departLane="free"/>
  <flow id="JF222216" begin="180" fromJunction="J3" toJunction="J4" end="240" vehsPerHour="44.762266254495465" departLane="free"/>
  <flow id="JF222217" begin="180" fromJunction="J3" toJunction="J5" end="240" vehsPerHour="15.63723854646123" departLane="free"/>
  <flow id="JF222218" begin="180" fromJunction="J4" toJunction="J0" end="240" vehsPerHour="25.107564008708877" departLane="free"/>
  <flow id="JF222219" begin="180" fromJunction="J4" toJunction="J3" end="240" vehsPerHour="53.928929377225536" departLane="free"/>
  <flow id="JF222220" begin="180" fromJunction="J4" toJunction="J7" end="240" vehsPerHour="12.096883156713945" departLane="free"/>
  <flow id="JF222221" begin="180" fromJunction="J5" toJunction="J0" end="240" vehsPerHour="59.224770964691" departLane="free"/>
  <flow id="JF222222" begin="180" fromJunction="J5" toJunction="J4" end="240" vehsPerHour="41.76427453807886" departLane="free"/>
  <flow id="JF222223" begin="180" fromJunction="J5" toJunction="J7" end="240" vehsPerHour="25.159820705231557" departLane="free"/>
  <flow id="JF222224" begin="180" fromJunction="J6" toJunction="J0" end="240" vehsPerHour="22.389874899834506" departLane="free"/>
  <flow id="JF222225" begin="180" fromJunction="J6" toJunction="J3" end="240" vehsPerHour="41.79549068031959" departLane="free"/>
  <flow id="JF222226" begin="180" fromJunction="J6" toJunction="J4" end="240" vehsPerHour="47.63025013715271" departLane="free"/>
  <flow id="JF222227" begin="180" fromJunction="J6" toJunction="J5" end="240" vehsPerHour="32.60967814456848" departLane="free"/>
  <flow id="JF222228" begin="180" fromJunction="J6" toJunction="J7" end="240" vehsPerHour="18.730665550091018" departLane="free"/>
  <flow id="JF222229" begin="180" fromJunction="J7" toJunction="J0" end="240" vehsPerHour="7.392911418093568" departLane="free"/>
  <flow id="JF222230" begin="180" fromJunction="J7" toJunction="J3" end="240" vehsPerHour="36.05259035351403" departLane="free"/>
  <flow id="JF222231" begin="180" fromJunction="J7" toJunction="J4" end="240" vehsPerHour="1.7855420769004575" departLane="free"/>
  <flow id="JF222232" begin="180" fromJunction="J7" toJunction="J5" end="240" vehsPerHour="54.07645948965499" departLane="free"/>
  <flow id="JF222233" begin="180" fromJunction="J7" toJunction="J6" end="240" vehsPerHour="27.797044393125617" departLane="free"/>
  <flow id="JF222234" begin="240" fromJunction="J0" toJunction="J4" end="300" vehsPerHour="83.51253403348862" departLane="free"/>
  <flow id="JF222235" begin="240" fromJunction="J0" toJunction="J5" end="300" vehsPerHour="103.83686042772845" departLane="free"/>
  <flow id="JF222236" begin="240" fromJunction="J0" toJunction="J7" end="300" vehsPerHour="47.670779254505284" departLane="free"/>
  <flow id="JF222237" begin="240" fromJunction="J3" toJunction="J5" end="300" vehsPerHour="58.69841686722073" departLane="free"/>
  <flow id="JF222238" begin="240" fromJunction="J3" toJunction="J6" end="300" vehsPerHour="26.505057354995422" departLane="free"/>
  <flow id="JF222239" begin="240" fromJunction="J4" toJunction="J3" end="300" vehsPerHour="35.06472459416629" departLane="free"/>
  <flow id="JF222240" begin="240" fromJunction="J4" toJunction="J5" end="300" vehsPerHour="35.688313559948305" departLane="free"/>
  <flow id="JF222241" begin="240" fromJunction="J4" toJunction="J7" end="300" vehsPerHour="67.80567331810096" departLane="free"/>
  <flow id="JF222242" begin="240" fromJunction="J5" toJunction="J0" end="300" vehsPerHour="50.2847894945256" departLane="free"/>
  <flow id="JF222243" begin="240" fromJunction="J5" toJunction="J3" end="300" vehsPerHour="47.41118936447283" departLane="free"/>
  <flow id="JF222244" begin="240" fromJunction="J5" toJunction="J4" end="300" vehsPerHour="58.37417072141737" departLane="free"/>
  <flow id="JF222245" begin="240" fromJunction="J5" toJunction="J6" end="300" vehsPerHour="20.085809476343325" departLane="free"/>
  <flow id="JF222246" begin="240" fromJunction="J5" toJunction="J7" end="300" vehsPerHour="28.22194364680359" departLane="free"/>
  <flow id="JF222247" begin="240" fromJunction="J6" toJunction="J0" end="300" vehsPerHour="9.210583791235797" departLane="free"/>
  <flow id="JF222248" begin="240" fromJunction="J6" toJunction="J3" end="300" vehsPerHour="48.36159187431433" departLane="free"/>
  <flow id="JF222249" begin="240" fromJunction="J6" toJunction="J4" end="300" vehsPerHour="14.812168452563425" departLane="free"/>
  <flow id="JF222250" begin="240" fromJunction="J6" toJunction="J5" end="300" vehsPerHour="43.39369660486638" departLane="free"/>
  <flow id="JF222251" begin="240" fromJunction="J6" toJunction="J7" end="300" vehsPerHour="5.9518611173451275" departLane="free"/>
  <flow id="JF222252" begin="240" fromJunction="J7" toJunction="J0" end="300" vehsPerHour="44.659845123807045" departLane="free"/>
  <flow id="JF222253" begin="240" fromJunction="J7" toJunction="J3" end="300" vehsPerHour="60.77835139502416" departLane="free"/>
  <flow id="JF222254" begin="240" fromJunction="J7" toJunction="J4" end="300" vehsPerHour="38.45908445393844" departLane="free"/>
  <flow id="JF222255" begin="300" fromJunction="J0" toJunction="J3" end="360" vehsPerHour="79.81324860977504" departLane="free"/>
  <flow id="JF222256" begin="300" fromJunction="J0" toJunction="J6" end="360" vehsPerHour="131.06506182852908" departLane="free"/>
  <flow id="JF222257" begin="300" fromJunction="J3" toJunction="J6" end="360" vehsPerHour="114.15911800235428" departLane="free"/>
  <flow id="JF222258" begin="300" fromJunction="J4" toJunction="J3" end="360" vehsPerHour="49.34947370204049" departLane="free"/>
  <flow id="JF222259" begin="300" fromJunction="J4" toJunction="J6" end="360" vehsPerHour="3.730364802081362" departLane="free"/>
  <flow id="JF222260" begin="300" fromJunction="J4" toJunction="J7" end="360" vehsPerHour="16.92644635658741" departLane="free"/>
  <flow id="JF222261" begin="300" fromJunction="J5" toJunction="J3" end="360" vehsPerHour="3.881074193190765" departLane="free"/>
  <flow id="JF222262" begin="300" fromJunction="J5" toJunction="J4" end="360" vehsPerHour="47.64913882730009" departLane="free"/>
  <flow id="JF222263" begin="300" fromJunction="J5" toJunction="J6" end="360" vehsPerHour="12.436316213761403" departLane="free"/>
  <flow id="JF222264" begin="300" fromJunction="J5" toJunction="J7" end="360" vehsPerHour="17.34577066362003" departLane="free"/>
  <flow id="JF222265" begin="300" fromJunction="J6" toJunction="J3" end="360" vehsPerHour="41.948775355587415" departLane="free"/>
  <flow id="JF222266" begin="300" fromJunction="J6" toJunction="J4" end="360" vehsPerHour="32.535219644441696" departLane="free"/>
  <flow id="JF222267" begin="300" fromJunction="J6" toJunction="J5" end="360" vehsPerHour="15.159605548955906" departLane="free"/>
  <flow id="JF222268" begin="300" fromJunction="J6" toJunction="J7" end="360" vehsPerHour="50.40783160051058" departLane="free"/>
  <flow id="JF222269" begin="300" fromJunction="J7" toJunction="J0" end="360" vehsPerHour="65.38603789437933" departLane="free"/>
  <flow id="JF222270" begin="300" fromJunction="J7" toJunction="J4" end="360" vehsPerHour="0.4013690545375316" departLane="free"/>
  <flow id="JF222271" begin="360" fromJunction="J0" toJunction="J3" end="420" vehsPerHour="71.4264382937413" departLane="free"/>
  <flow id="JF222272" begin="360" fromJunction="J0" toJunction="J4" end="420" vehsPerHour="81.6977940728296" departLane="free"/>
  <flow id="JF222273" begin="360" fromJunction="J0" toJunction="J5" end="420" vehsPerHour="62.329961689212354" departLane="free"/>
  <flow id="JF222274" begin="360" fromJunction="J0" toJunction="J6" end="420" vehsPerHour="123.82547527108032" departLane="free"/>
  <flow id="JF222275" begin="360" fromJunction="J3" toJunction="J0" end="420" vehsPerHour="21.11379799649506" departLane="free"/>
  <flow id="JF222276" begin="360" fromJunction="J3" toJunction="J4" end="420" vehsPerHour="80.99270319593934" departLane="free"/>
  <flow id="JF222277" begin="360" fromJunction="J3" toJunction="J6" end="420" vehsPerHour="66.61140845762893" departLane="free"/>
  <flow id="JF222278" begin="360" fromJunction="J3" toJunction="J7" end="420" vehsPerHour="41.802057163125625" departLane="free"/>
  <flow id="JF222279" begin="360" fromJunction="J4" toJunction="J0" end="420" vehsPerHour="37.560926736940644" departLane="free"/>
  <flow id="JF222280" begin="360" fromJunction="J4" toJunction="J3" end="420" vehsPerHour="24.687189342847162" departLane="free"/>
  <flow id="JF222281" begin="360" fromJunction="J4" toJunction="J5" end="420" vehsPerHour="12.869289594741637" departLane="free"/>
  <flow id="JF222282" begin="360" fromJunction="J4" toJunction="J6" end="420" vehsPerHour="28.122691094369422" departLane="free"/>
  <flow id="JF222283" begin="360" fromJunction="J4" toJunction="J7" end="420" vehsPerHour="0.03590693717229139" departLane="free"/>
  <flow id="JF222284" begin="360" fromJunction="J5" toJunction="J0" end="420" vehsPerHour="33.01926075077358" departLane="free"/>
  <flow id="JF222285" begin="360" fromJunction="J5" toJunction="J3" end="420" vehsPerHour="31.058316298250844" departLane="free"/>
  <flow id="JF222286" begin="360" fromJunction="J5" toJunction="J4" end="420" vehsPerHour="11.7518949524905" departLane="free"/>
  <flow id="JF222287" begin="360" fromJunction="J5" toJunction="J6" end="420" vehsPerHour="42.89966045950403" departLane="free"/>
  <flow id="JF222288" begin="360" fromJunction="J5" toJunction="J7" end="420" vehsPerHour="19.251736699354645" departLane="free"/>
  <flow id="JF222289" begin="360" fromJunction="J6" toJunction="J0" end="420" vehsPerHour="56.234325311661784" departLane="free"/>
  <flow id="JF222290" begin="360" fromJunction="J6" toJunction="J3" end="420" vehsPerHour="65.89402046392499" departLane="free"/>
  <flow id="JF222291" begin="360" fromJunction="J6" toJunction="J7" end="420" vehsPerHour="45.44624272916992" departLane="free"/>
  <flow id="JF222292" begin="360" fromJunction="J7" toJunction="J0" end="420" vehsPerHour="62.619760001847425" departLane="free"/>
  <flow id="JF222293" begin="360" fromJunction="J7" toJunction="J4" end="420" vehsPerHour="26.887928886308817" departLane="free"/>
  <flow id="JF222294" begin="360" fromJunction="J7" toJunction="J5" end="420" vehsPerHour="63.73035831552689" departLane="free"/>
  <flow id="JF222295" begin="420" fromJunction="J0" toJunction="J3" end="480" vehsPerHour="41.92819454997243" departLane="free"/>
  <flow id="JF222296" begin="420" fromJunction="J0" toJunction="J4" end="480" vehsPerHour="114.98204678716665" departLane="free"/>
  <flow id="JF222297" begin="420" fromJunction="J0" toJunction="J5" end="480" vehsPerHour="109.036538094895" departLane="free"/>
  <flow id="JF222298" begin="420" fromJunction="J0" toJunction="J6" end="480" vehsPerHour="80.95871343871934" departLane="free"/>
  <flow id="JF222299" begin="420" fromJunction="J3" toJunction="J0" end="480" vehsPerHour="20.031340451731946" departLane="free"/>
  <flow id="JF222300" begin="420" fromJunction="J3" toJunction="J5" end="480" vehsPerHour="42.10349796125281" departLane="free"/>
  <flow id="JF222301" begin="420" fromJunction="J3" toJunction="J6" end="480" vehsPerHour="132.68663579433425" departLane="free"/>
  <flow id="JF222302" begin="420" fromJunction="J3" toJunction="J7" end="480" vehsPerHour="131.07282179613748" departLane="free"/>
  <flow id="JF222303" begin="420" fromJunction="J4" toJunction="J0" end="480" vehsPerHour="29.329720571088142" departLane="free"/>
  <flow id="JF222304" begin="420" fromJunction="J4" toJunction="J3" end="480" vehsPerHour="25.39337163410068" departLane="free"/>
  <flow id="JF222305" begin="420" fromJunction="J4" toJunction="J5" end="480" vehsPerHour="32.45777391370471" departLane="free"/>
  <flow id="JF222306" begin="420" fromJunction="J4" toJunction="J7" end="480" vehsPerHour="51.26109475334434" departLane="free"/>
  <flow id="JF222307" begin="420" fromJunction="J5" toJunction="J3" end="480" vehsPerHour="10.445222533507216" departLane="free"/>
  <flow id="JF222308" begin="420" fromJunction="J5" toJunction="J4" end="480" vehsPerHour="61.81175393875186" departLane="free"/>
  <flow id="JF222309" begin="420" fromJunction="J5" toJunction="J6" end="480" vehsPerHour="0.01057095826739407" departLane="free"/>
  <flow id="JF222310" begin="420" fromJunction="J5" toJunction="J7" end="480" vehsPerHour="3.3738379347885044" departLane="free"/>
  <flow id="JF222311" begin="420" fromJunction="J6" toJunction="J0" end="480" vehsPerHour="52.70643258432317" departLane="free"/>
  <flow id="JF222312" begin="420" fromJunction="J6" toJunction="J3" end="480" vehsPerHour="51.58060471568382" departLane="free"/>
  <flow id="JF222313" begin="420" fromJunction="J7" toJunction="J0" end="480" vehsPerHour="0.6412650910422433" departLane="free"/>
  <flow id="JF222314" begin="420" fromJunction="J7" toJunction="J4" end="480" vehsPerHour="19.832737826982733" departLane="free"/>
  <flow id="JF222315" begin="420" fromJunction="J7" toJunction="J6" end="480" vehsPerHour="34.695238465140676" departLane="free"/>
  <flow id="JF222316" begin="480" fromJunction="J0" toJunction="J6" end="540" vehsPerHour="70.61282101260865" departLane="free"/>
  <flow id="JF222317" begin="480" fromJunction="J0" toJunction="J7" end="540" vehsPerHour="49.85200950458284" departLane="free"/>
  <flow id="JF222318" begin="480" fromJunction="J3" toJunction="J4" end="540" vehsPerHour="107.76243804078813" departLane="free"/>
  <flow id="JF222319" begin="480" fromJunction="J3" toJunction="J5" end="540" vehsPerHour="112.1235084272239" departLane="free"/>
  <flow id="JF222320" begin="480" fromJunction="J3" toJunction="J7" end="540" vehsPerHour="78.96544988842959" departLane="free"/>
  <flow id="JF222321" begin="480" fromJunction="J4" toJunction="J0" end="540" vehsPerHour="33.564954136861274" departLane="free"/>
  <flow id="JF222322" begin="480" fromJunction="J4" toJunction="J3" end="540" vehsPerHour="40.041064242713254" departLane="free"/>
  <flow id="JF222323" begin="480" fromJunction="J4" toJunction="J5" end="540" vehsPerHour="5.70056638767379" departLane="free"/>
  <flow id="JF222324" begin="480" fromJunction="J4" toJunction="J6" end="540" vehsPerHour="22.16680236858052" departLane="free"/>
  <flow id="JF222325" begin="480" fromJunction="J5" toJunction="J0" end="540" vehsPerHour="52.349248613713534" departLane="free"/>
  <flow id="JF222326" begin="480" fromJunction="J5" toJunction="J3" end="540" vehsPerHour="21.470306244060804" departLane="free"/>
  <flow id="JF222327" begin="480" fromJunction="J5" toJunction="J4" end="540" vehsPerHour="56.785346520373025" departLane="free"/>
  <flow id="JF222328" begin="480" fromJunction="J6" toJunction="J0" end="540" vehsPerHour="13.208613517232331" departLane="free"/>
  <flow id="JF222329" begin="480" fromJunction="J6" toJunction="J3" end="540" vehsPerHour="41.44144268691033" departLane="free"/>
  <flow id="JF222330" begin="480" fromJunction="J6" toJunction="J5" end="540" vehsPerHour="26.355591154302836" departLane="free"/>
  <flow id="JF222331" begin="480" fromJunction="J6" toJunction="J7" end="540" vehsPerHour="46.99767335354913" departLane="free"/>
  <flow id="JF222332" begin="480" fromJunction="J7" toJunction="J0" end="540" vehsPerHour="56.17813419039588" departLane="free"/>
  <flow id="JF222333" begin="480" fromJunction="J7" toJunction="J3" end="540" vehsPerHour="21.63010951080799" departLane="free"/>
  <flow id="JF222334" begin="480" fromJunction="J7" toJunction="J4" end="540" vehsPerHour="39.77167748366135" departLane="free"/>
  <flow id="JF222335" begin="480" fromJunction="J7" toJunction="J5" end="540" vehsPerHour="35.517583135944115" departLane="free"/>
  <flow id="JF222336" begin="480" fromJunction="J7" toJunction="J6" end="540" vehsPerHour="19.536957863893484" departLane="free"/>
  <flow id="JF222337" begin="540" fromJunction="J0" toJunction="J4" end="600" vehsPerHour="40.527085319906554" departLane="free"/>
  <flow id="JF222338" begin="540" fromJunction="J0" toJunction="J7" end="600" vehsPerHour="26.35977795781535" departLane="free"/>
  <flow id="JF222339" begin="540" fromJunction="J3" toJunction="J6" end="600" vehsPerHour="76.98836975619633" departLane="free"/>
  <flow id="JF222340" begin="540" fromJunction="J3" toJunction="J7" end="600" vehsPerHour="54.94091279052276" departLane="free"/>
  <flow id="JF222341" begin="540" fromJunction="J4" toJunction="J0" end="600" vehsPerHour="34.136164896820134" departLane="free"/>
  <flow id="JF222342" begin="540" fromJunction="J4" toJunction="J5" end="600" vehsPerHour="46.15482736376854" departLane="free"/>
  <flow id="JF222343" begin="540" fromJunction="J4" toJunction="J6" end="600" vehsPerHour="27.485619455995188" departLane="free"/>
  <flow id="JF222344" begin="540" fromJunction="J4" toJunction="J7" end="600" vehsPerHour="9.297422585083247" departLane="free"/>
  <flow id="JF222345" begin="540" fromJunction="J5" toJunction="J0" end="600" vehsPerHour="16.441874813541048" departLane="free"/>
  <flow id="JF222346" begin="540" fromJunction="J5" toJunction="J3" end="600" vehsPerHour="55.823838279596664" departLane="free"/>
  <flow id="JF222347" begin="540" fromJunction="J5" toJunction="J4" end="600" vehsPerHour="11.936101174049247" departLane="free"/>
  <flow id="JF222348" begin="540" fromJunction="J5" toJunction="J6" end="600" vehsPerHour="50.97713308516639" departLane="free"/>
  <flow id="JF222349" begin="540" fromJunction="J5" toJunction="J7" end="600" vehsPerHour="33.70364890903997" departLane="free"/>
  <flow id="JF222350" begin="540" fromJunction="J6" toJunction="J5" end="600" vehsPerHour="43.017435533987765" departLane="free"/>
  <flow id="JF222351" begin="540" fromJunction="J6" toJunction="J7" end="600" vehsPerHour="34.56625844353305" departLane="free"/>
  <flow id="JF222352" begin="540" fromJunction="J7" toJunction="J0" end="600" vehsPerHour="67.535613389804" departLane="free"/>
  <flow id="JF222353" begin="540" fromJunction="J7" toJunction="J3" end="600" vehsPerHour="61.555360511621885" departLane="free"/>
  <flow id="JF222354" begin="540" fromJunction="J7" toJunction="J5" end="600" vehsPerHour="37.862579023509205" departLane="free"/>
  <flow id="JF222355" begin="540" fromJunction="J7" toJunction="J6" end="600" vehsPerHour="31.849188408424894" departLane="free"/>
  <flow id="JF222356" begin="600" fromJunction="J0" toJunction="J3" end="660" vehsPerHour="16.236552202120226" departLane="free"/>
  <flow id="JF222357" begin="600" fromJunction="J0" toJunction="J6" end="660" vehsPerHour="78.91166685120122" departLane="free"/>
  <flow id="JF222358" begin="600" fromJunction="J0" toJunction="J7" end="660" vehsPerHour="110.36303059266092" departLane="free"/>
  <flow id="JF222359" begin="600" fromJunction="J3" toJunction="J5" end="660" vehsPerHour="97.53110359789375" departLane="free"/>
  <flow id="JF222360" begin="600" fromJunction="J3" toJunction="J6" end="660" vehsPerHour="33.9444447322899" departLane="free"/>
  <flow id="JF222361" begin="600" fromJunction="J3" toJunction="J7" end="660" vehsPerHour="25.923762203068218" departLane="free"/>
  <flow id="JF222362" begin="600" fromJunction="J4" toJunction="J0" end="660" vehsPerHour="29.52650260519047" departLane="free"/>
  <flow id="JF222363" begin="600" fromJunction="J4" toJunction="J3" end="660" vehsPerHour="29.719274567572004" departLane="free"/>
  <flow id="JF222364" begin="600" fromJunction="J4" toJunction="J5" end="660" vehsPerHour="7.807477272542175" departLane="free"/>
  <flow id="JF222365" begin="600" fromJunction="J4" toJunction="J6" end="660" vehsPerHour="3.954263983416391" departLane="free"/>
  <flow id="JF222366" begin="600" fromJunction="J5" toJunction="J0" end="660" vehsPerHour="48.57801631384975" departLane="free"/>
  <flow id="JF222367" begin="600" fromJunction="J5" toJunction="J3" end="660" vehsPerHour="2.08833301101168" departLane="free"/>
  <flow id="JF222368" begin="600" fromJunction="J5" toJunction="J7" end="660" vehsPerHour="34.12884174383897" departLane="free"/>
  <flow id="JF222369" begin="600" fromJunction="J6" toJunction="J3" end="660" vehsPerHour="4.680366173445683" departLane="free"/>
  <flow id="JF222370" begin="600" fromJunction="J6" toJunction="J5" end="660" vehsPerHour="32.414902638862536" departLane="free"/>
  <flow id="JF222371" begin="600" fromJunction="J6" toJunction="J7" end="660" vehsPerHour="29.517349643704765" departLane="free"/>
  <flow id="JF222372" begin="600" fromJunction="J7" toJunction="J0" end="660" vehsPerHour="48.276409048910885" departLane="free"/>
  <flow id="JF222373" begin="600" fromJunction="J7" toJunction="J3" end="660" vehsPerHour="66.7246161512331" departLane="free"/>
  <flow id="JF222374" begin="600" fromJunction="J7" toJunction="J4" end="660" vehsPerHour="34.491862103196894" departLane="free"/>
  <flow id="JF222375" begin="600" fromJunction="J7" toJunction="J5" end="660" vehsPerHour="47.833794146078624" departLane="free"/>
  <flow id="JF222376" begin="600" fromJunction="J7" toJunction="J6" end="660" vehsPerHour="7.579055961783897" departLane="free"/>
  <flow id="JF222377" begin="660" fromJunction="J0" toJunction="J3" end="720" vehsPerHour="8.751762024509016" departLane="free"/>
  <flow id="JF222378" begin="660" fromJunction="J0" toJunction="J4" end="720" vehsPerHour="107.01922741674167" departLane="free"/>