<?xml version="1.0" encoding="UTF-8"?>
<routes xmlns:xsi="http://www.w3.org/2001/XMLSchema-instance" xsi:noNamespaceSchemaLocation="http://sumo.dlr.de/xsd/routes_file.xsd">
  <flow id="JF214753" begin="0" fromJunction="J0" toJunction="J3" end="60" vehsPerHour="70.50283052432272" departLane="free"/>
  <flow id="JF214754" begin="0" fromJunction="J0" toJunction="J4" end="60" vehsPerHour="134.21899517873078" departLane="free"/>
  <flow id="JF214755" begin="0" fromJunction="J0" toJunction="J5" end="60" vehsPerHour="49.01606622008908" departLane="free"/>
  <flow id="JF214756" begin="0" fromJunction="J0" toJunction="J6" end="60" vehsPerHour="89.55861622387422" departLane="free"/>
  <flow id="JF214757" begin="0" fromJunction="J0" toJunction="J7" end="60" vehsPerHour="133.48927158008019" departLane="free"/>
  <flow id="JF214758" begin="0" fromJunction="J3" toJunction="J0" end="60" vehsPerHour="98.92757311291528" departLane="free"/>
  <flow id="JF214759" begin="0" fromJunction="J3" toJunction="J6" end="60" vehsPerHour="63.51756032643107" departLane="free"/>
  <flow id="JF214760" begin="0" fromJunction="J3" toJunction="J7" end="60" vehsPerHour="74.5995068657504" departLane="free"/>
  <flow id="JF214761" begin="0" fromJunction="J4" toJunction="J0" end="60" vehsPerHour="37.79913958585707" departLane="free"/>
  <flow id="JF214762" begin="0" fromJunction="J4" toJunction="J3" end="60" vehsPerHour="53.82925508636912" departLane="free"/>
  <flow id="JF214763" begin="0" fromJunction="J4" toJunction="J5" end="60" vehsPerHour="42.04971472198595" departLane="free"/>
  <flow id="JF214764" begin="0" fromJunction="J4" toJunction="J6" end="60" vehsPerHour="53.90382566587859" departLane="free"/>
  <flow id="JF214765" begin="0" fromJunction="J4" toJunction="J7" end="60" vehsPerHour="18.187265710621944" departLane="free"/>
  <flow id="JF214766" begin="0" fromJunction="J5" toJunction="J4" end="60" vehsPerHour="3.6848422958056384" departLane="free"/>
  <flow id="JF214767" begin="0" fromJunction="J5" toJunction="J7" end="60" vehsPerHour="30.088234195974312" departLane="free"/>
  <flow id="JF214768" begin="0" fromJunction="J6" toJunction="J0" end="60" vehsPerHour="52.51463146113028" departLane="free"/>
  <flow id="JF214769" begin="0" fromJunction="J6" toJunction="J3" end="60" vehsPerHour="60.52982859134328" departLane="free"/>
  <flow id="JF214770" begin="0" fromJunction="J6" toJunction="J4" end="60" vehsPerHour="5.205020228624099" departLane="free"/>
  <flow id="JF214771" begin="0" fromJunction="J6" toJunction="J5" end="60" vehsPerHour="44.4975073423564" departLane="free"/>
  <flow id="JF214772" begin="0" fromJunction="J6" toJunction="J7" end="60" vehsPerHour="4.506111272929525" departLane="free"/>
  <flow id="JF214773" begin="0" fromJunction="J7" toJunction="J3" end="60" vehsPerHour="19.53747630720795" departLane="free"/>
  <flow id="JF214774" begin="0" fromJunction="J7" toJunction="J5" end="60" vehsPerHour="60.52899217373785" departLane="free"/>
  <flow id="JF214775" begin="0" fromJunction="J7" toJunction="J6" end="60" vehsPerHour="61.56423065751651" departLane="free"/>
  <flow id="JF214776" begin="60" fromJunction="J0" toJunction="J3" end="120" vehsPerHour="132.33378343561665" departLane="free"/>
  <flow id="JF214777" begin="60" fromJunction="J0" toJunction="J4" end="120" vehsPerHour="2.570866833165412" departLane="free"/>
  <flow id="JF214778" begin="60" fromJunction="J0" toJunction="J5" end="120" vehsPerHour="133.25479016502683" departLane="free"/>
  <flow id="JF214779" begin="60" fromJunction="J3" toJunction="J0" end="120" vehsPerHour="42.62481280233662" departLane="free"/>
  <flow id="JF214780" begin="60" fromJunction="J3" toJunction="J5" end="120" vehsPerHour="48.964403825060074" departLane="free"/>
  <flow id="JF214781" begin="60" fromJunction="J3" toJunction="J7" end="120" vehsPerHour="18.41926920119012" departLane="free"/>
  <flow id="JF214782" begin="60" fromJunction="J4" toJunction="J0" end="120" vehsPerHour="15.09225561658923" departLane="free"/>
  <flow id="JF214783" begin="60" fromJunction="J4" toJunction="J3" end="120" vehsPerHour="0.4373848636775104" departLane="free"/>
  <flow id="JF214784" begin="60" fromJunction="J4" toJunction="J5" end="120" vehsPerHour="44.032142084225455" departLane="free"/>
  <flow id="JF214785" begin="60" fromJunction="J4" toJunction="J6" end="120" vehsPerHour="58.04987307689854" departLane="free"/>
  <flow id="JF214786" begin="60" fromJunction="J4" toJunction="J7" end="120" vehsPerHour="46.55683134590482" departLane="free"/>
  <flow id="JF214787" begin="60" fromJunction="J5" toJunction="J6" end="120" vehsPerHour="0.8912981116601988" departLane="free"/>
  <flow id="JF214788" begin="60" fromJunction="J5" toJunction="J7" end="120" vehsPerHour="49.0821211972075" departLane="free"/>
  <flow id="JF214789" begin="60" fromJunction="J6" toJunction="J0" end="120" vehsPerHour="0.8324871983114462" departLane="free"/>
  <flow id="JF214790" begin="60" fromJunction="J6" toJunction="J4" end="120" vehsPerHour="1.440640552742991" departLane="free"/>
  <flow id="JF214791" begin="60" fromJunction="J6" toJunction="J5" end="120" vehsPerHour="9.12610390205986" departLane="free"/>
  <flow id="JF214792" begin="60" fromJunction="J6" toJunction="J7" end="120" vehsPerHour="58.74746672802159" departLane="free"/>
  <flow id="JF214793" begin="60" fromJunction="J7" toJunction="J0" end="120" vehsPerHour="28.356090738036247" departLane="free"/>
  <flow id="JF214794" begin="60" fromJunction="J7" toJunction="J3" end="120" vehsPerHour="43.63068763679354" departLane="free"/>
  <flow id="JF214795" begin="60" fromJunction="J7" toJunction="J4" end="120" vehsPerHour="4.465111847911107" departLane="free"/>
  <flow id="JF214796" begin="60" fromJunction="J7" toJunction="J5" end="120" vehsPerHour="43.58003881092984" departLane="free"/>
  <flow id="JF214797" begin="60" fromJunction="J7" toJunction="J6" end="120" vehsPerHour="67.72795710500839" departLane="free"/>
  <flow id="JF214798" begin="120" fromJunction="J0" toJunction="J5" end="180" vehsPerHour="70.29927744577265" departLane="free"/>
  <flow id="JF214799" begin="120" fromJunction="J0" toJunction="J7" end="180" vehsPerHour="65.94785033525037" departLane="free"/>
  <flow id="JF214800" begin="120" fromJunction="J3" toJunction="J0" end="180" vehsPerHour="123.13919738688043" departLane="free"/>
  <flow id="JF214801" begin="120" fromJunction="J3" toJunction="J4" end="180" vehsPerHour="128.0903985802171" departLane="free"/>
  <flow id="JF214802" begin="120" fromJunction="J3" toJunction="J5" end="180" vehsPerHour="110.48516203609009" departLane="free"/>
  <flow id="JF214803" begin="120" fromJunction="J3" toJunction="J7" end="180" vehsPerHour="130.00356985082811" departLane="free"/>
  <flow id="JF214804" begin="120" fromJunction="J4" toJunction="J0" end="180" vehsPerHour="61.03221919804658" departLane="free"/>
  <flow id="JF214805" begin="120" fromJunction="J4" toJunction="J3" end="180" vehsPerHour="64.48712762394258" departLane="free"/>
  <flow id="JF214806" begin="120" fromJunction="J4" toJunction="J6" end="180" vehsPerHour="23.872669659394056" departLane="free"/>
  <flow id="JF214807" begin="120" fromJunction="J4" toJunction="J7" end="180" vehsPerHour="33.14939158202984" departLane="free"/>
  <flow id="JF214808" begin="120" fromJunction="J5" toJunction="J3" end="180" vehsPerHour="11.110621992001514" departLane="free"/>
  <flow id="JF214809" begin="120" fromJunction="J5" toJunction="J4" end="180" vehsPerHour="9.043068119015114" departLane="free"/>
  <flow id="JF214810" begin="120" fromJunction="J5" toJunction="J6" end="180" vehsPerHour="3.773465117235118" departLane="free"/>
  <flow id="JF214811" begin="120" fromJunction="J5" toJunction="J7" end="180" vehsPerHour="56.70115716411283" departLane="free"/>
  <flow id="JF214812" begin="120" fromJunction="J6" toJunction="J0" end="180" vehsPerHour="59.92425345365227" departLane="free"/>
  <flow id="JF214813" begin="120" fromJunction="J6" toJunction="J3" end="180" vehsPerHour="22.47202145686519" departLane="free"/>
  <flow id="JF214814" begin="120" fromJunction="J6" toJunction="J5" end="180" vehsPerHour="36.203968580955284" departLane="free"/>
  <flow id="JF214815" begin="120" fromJunction="J7" toJunction="J0" end="180" vehsPerHour="40.457465724585425" departLane="free"/>
  <flow id="JF214816" begin="120" fromJunction="J7" toJunction="J4" end="180" vehsPerHour="10.043511689404392" departLane="free"/>
  <flow id="JF214817" begin="120" fromJunction="J7" toJunction="J5" end="180" vehsPerHour="64.61368768301988" departLane="free"/>
  <flow id="JF214818" begin="180" fromJunction="J0" toJunction="J3" end="240" vehsPerHour="113.43455741330588" departLane="free"/>
  <flow id="JF214819" begin="180" fromJunction="J0" toJunction="J5" end="240" vehsPerHour="27.680329885198585" departLane="free"/>
  <flow id="JF214820" begin="180" fromJunction="J0" toJunction="J6" end="240" vehsPerHour="27.165027655690906" departLane="free"/>
  <flow id="JF214821" begin="180" fromJunction="J0" toJunction="J7" end="240" vehsPerHour="49.92324274318979" departLane="free"/>
  <flow id="JF214822" begin="180" fromJunction="J3" toJunction="J0" end="240" vehsPerHour="99.09127211418009" departLane="free"/>
  <flow id="JF214823" begin="180" fromJunction="J3" toJunction="J4" end="240" vehsPerHour="5.8464202489864086" departLane="free"/>
  <flow id="JF214824" begin="180" fromJunction="J3" toJunction="J5" end="240" vehsPerHour="38.81882445889243" departLane="free"/>
  <flow id="JF214825" begin="180" fromJunction="J3" toJunction="J7" end="240" vehsPerHour="129.10566021485366" departLane="free"/>
  <flow id="JF214826" begin="180" fromJunction="J4" toJunction="J3" end="240" vehsPerHour="40.77425324196349" departLane="free"/>
  <flow id="JF214827" begin="180" fromJunction="J4" toJunction="J5" end="240" vehsPerHour="4.614810544650207" departLane="free"/>
  <flow id="JF214828" begin="180" fromJunction="J4" toJunction="J7" end="240" vehsPerHour="46.79152660746071" departLane="free"/>
  <flow id="JF214829" begin="180" fromJunction="J5" toJunction="J0" end="240" vehsPerHour="35.720724675854264" departLane="free"/>
  <flow id="JF214830" begin="180" fromJunction="J5" toJunction="J3" end="240" vehsPerHour="55.514973314099166" departLane="free"/>
  <flow id="JF214831" begin="180" fromJunction="J5" toJunction="J6" end="240" vehsPerHour="57.77675764431614" departLane="free"/>
  <flow id="JF214832" begin="180" fromJunction="J5" toJunction="J7" end="240" vehsPerHour="20.48936838842803" departLane="free"/>
  <flow id="JF214833" begin="180" fromJunction="J6" toJunction="J0" end="240" vehsPerHour="52.048428013737464" departLane="free"/>
  <flow id="JF214834" begin="180" fromJunction="J6" toJunction="J3" end="240" vehsPerHour="45.664771895606" departLane="free"/>
  <flow id="JF214835" begin="180" fromJunction="J6" toJunction="J7" end="240" vehsPerHour="8.419190658137902" departLane="free"/>
  <flow id="JF214836" begin="180" fromJunction="J7" toJunction="J0" end="240" vehsPerHour="31.139432012325294" departLane="free"/>
  <flow id="JF214837" begin="180" fromJunction="J7" toJunction="J4" end="240" vehsPerHour="35.769097369326346" departLane="free"/>
  <flow id="JF214838" begin="180" fromJunction="J7" toJunction="J5" end="240" vehsPerHour="25.230472369521042" departLane="free"/>
  <flow id="JF214839" begin="240" fromJunction="J0" toJunction="J3" end="300" vehsPerHour="96.67099187612473" departLane="free"/>
  <flow id="JF214840" begin="240" fromJunction="J0" toJunction="J5" end="300" vehsPerHour="22.312674911131605" departLane="free"/>
  <flow id="JF214841" begin="240" fromJunction="J0" toJunction="J6" end="300" vehsPerHour="11.60125111941746" departLane="free"/>
  <flow id="JF214842" begin="240" fromJunction="J3" toJunction="J5" end="300" vehsPerHour="83.88985451479675" departLane="free"/>
  <flow id="JF214843" begin="240" fromJunction="J3" toJunction="J7" end="300" vehsPerHour="102.83221606342465" departLane="free"/>
  <flow id="JF214844" begin="240" fromJunction="J4" toJunction="J0" end="300" vehsPerHour="38.16809207326837" departLane="free"/>
  <flow id="JF214845" begin="240" fromJunction="J4" toJunction="J5" end="300" vehsPerHour="7.323402396504872" departLane="free"/>
  <flow id="JF214846" begin="240" fromJunction="J4" toJunction="J6" end="300" vehsPerHour="67.22423858804393" departLane="free"/>
  <flow id="JF214847" begin="240" fromJunction="J5" toJunction="J3" end="300" vehsPerHour="27.542534697624784" departLane="free"/>
  <flow id="JF214848" begin="240" fromJunction="J5" toJunction="J6" end="300" vehsPerHour="41.97794890426913" departLane="free"/>
  <flow id="JF214849" begin="240" fromJunction="J5" toJunction="J7" end="300" vehsPerHour="43.55787089777149" departLane="free"/>
  <flow id="JF214850" begin="240" fromJunction="J6" toJunction="J0" end="300" vehsPerHour="52.061278273623984" departLane="free"/>
  <flow id="JF214851" begin="240" fromJunction="J6" toJunction="J3" end="300" vehsPerHour="36.06909482152539" departLane="free"/>
  <flow id="JF214852" begin="240" fromJunction="J6" toJunction="J5" end="300" vehsPerHour="0.13635304385727287" departLane="free"/>
  <flow id="JF214853" begin="240" fromJunction="J6" toJunction="J7" end="300" vehsPerHour="62.40916106984751" departLane="free"/>
  <flow id="JF214854" begin="240" fromJunction="J7" toJunction="J0" end="300" vehsPerHour="40.11619964496369" departLane="free"/>
  <flow id="JF214855" begin="240" fromJunction="J7" toJunction="J3" end="300" vehsPerHour="61.66314959074284" departLane="free"/>
  <flow id="JF214856" begin="240" fromJunction="J7" toJunction="J4" end="300" vehsPerHour="17.25264999441702" departLane="free"/>
  <flow id="JF214857" begin="240" fromJunction="J7" toJunction="J5" end="300" vehsPerHour="56.99878836330201" departLane="free"/>
  <flow id="JF214858" begin="240" fromJunction="J7" toJunction="J6" end="300" vehsPerHour="4.214422485925158" departLane="free"/>
  <flow id="JF214859" begin="300" fromJunction="J0" toJunction="J4" end="360" vehsPerHour="106.31075499003484" departLane="free"/>
  <flow id="JF214860" begin="300" fromJunction="J0" toJunction="J5" end="360" vehsPerHour="30.453132314459758" departLane="free"/>
  <flow id="JF214861" begin="300" fromJunction="J0" toJunction="J6" end="360" vehsPerHour="130.35900337369333" departLane="free"/>
  <flow id="JF214862" begin="300" fromJunction="J0" toJunction="J7" end="360" vehsPerHour="20.215742562495706" departLane="free"/>
  <flow id="JF214863" begin="300" fromJunction="J3" toJunction="J4" end="360" vehsPerHour="83.64996051482798" departLane="free"/>
  <flow id="JF214864" begin="300" fromJunction="J3" toJunction="J5" end="360" vehsPerHour="31.60384266154474" departLane="free"/>
  <flow id="JF214865" begin="300" fromJunction="J3" toJunction="J7" end="360" vehsPerHour="92.08227654889197" departLane="free"/>
  <flow id="JF214866" begin="300" fromJunction="J4" toJunction="J0" end="360" vehsPerHour="25.17572310439503" departLane="free"/>
  <flow id="JF214867" begin="300" fromJunction="J4" toJunction="J3" end="360" vehsPerHour="14.228140265509355" departLane="free"/>
  <flow id="JF214868" begin="300" fromJunction="J4" toJunction="J5" end="360" vehsPerHour="67.65850716226956" departLane="free"/>
  <flow id="JF214869" begin="300" fromJunction="J4" toJunction="J6" end="360" vehsPerHour="30.00710370046694" departLane="free"/>
  <flow id="JF214870" begin="300" fromJunction="J4" toJunction="J7" end="360" vehsPerHour="50.23191990623455" departLane="free"/>
  <flow id="JF214871" begin="300" fromJunction="J5" toJunction="J0" end="360" vehsPerHour="19.198105966827686" departLane="free"/>
  <flow id="JF214872" begin="300" fromJunction="J5" toJunction="J3" end="360" vehsPerHour="15.258029652418218" departLane="free"/>
  <flow id="JF214873" begin="300" fromJunction="J5" toJunction="J4" end="360" vehsPerHour="26.759593077617563" departLane="free"/>
  <flow id="JF214874" begin="300" fromJunction="J5" toJunction="J6" end="360" vehsPerHour="22.80319400659684" departLane="free"/>
  <flow id="JF214875" begin="300" fromJunction="J5" toJunction="J7" end="360" vehsPerHour="52.61870385064866" departLane="free"/>
  <flow id="JF214876" begin="300" fromJunction="J6" toJunction="J0" end="360" vehsPerHour="16.066990678085006" departLane="free"/>
  <flow id="JF214877" begin="300" fromJunction="J6" toJunction="J3" end="360" vehsPerHour="64.01289065472646" departLane="free"/>
  <flow id="JF214878" begin="300" fromJunction="J6" toJunction="J5" end="360" vehsPerHour="67.251762303629" departLane="free"/>
  <flow id="JF214879" begin="300" fromJunction="J6" toJunction="J7" end="360" vehsPerHour="58.306310084999915" departLane="free"/>
  <flow id="JF214880" begin="300" fromJunction="J7" toJunction="J5" end="360" vehsPerHour="12.880976734770163" departLane="free"/>
  <flow id="JF214881" begin="300" fromJunction="J7" toJunction="J6" end="360" vehsPerHour="63.730600665490165" departLane="free"/>
  <flow id="JF214882" begin="360" fromJunction="J0" toJunction="J3" end="420" vehsPerHour="134.97847661970172" departLane="free"/>
  <flow id="JF214883" begin="360" fromJunction="J0" toJunction="J4" end="420" vehsPerHour="68.22666437027098" departLane="free"/>
  <flow id="JF214884" begin="360" fromJunction="J0" toJunction="J6" end="420" vehsPerHour="2.184138209915535" departLane="free"/>
  <flow id="JF214885" begin="360" fromJunction="J0" toJunction="J7" end="420" vehsPerHour="101.83295790593647" departLane="free"/>
  <flow id="JF214886" begin="360" fromJunction="J3" toJunction="J6" end="420" vehsPerHour="96.51561656233051" departLane="free"/>
  <flow id="JF214887" begin="360" fromJunction="J3" toJunction="J7" end="420" vehsPerHour="35.10209447294836" departLane="free"/>
  <flow id="JF214888" begin="360" fromJunction="J4" toJunction="J0" end="420" vehsPerHour="30.856920883125845" departLane="free"/>
  <flow id="JF214889" begin="360" fromJunction="J4" toJunction="J3" end="420" vehsPerHour="17.399377831951423" departLane="free"/>
  <flow id="JF214890" begin="360" fromJunction="J4" toJunction="J5" end="420" vehsPerHour="45.89729783188538" departLane="free"/>
  <flow id="JF214891" begin="360" fromJunction="J4" toJunction="J6" end="420" vehsPerHour="63.30256575791487" departLane="free"/>
  <flow id="JF214892" begin="360" fromJunction="J5" toJunction="J0" end="420" vehsPerHour="14.347709060795331" departLane="free"/>
  <flow id="JF214893" begin="360" fromJunction="J5" toJunction="J3" end="420" vehsPerHour="35.05901296780199" departLane="free"/>
  <flow id="JF214894" begin="360" fromJunction="J5" toJunction="J4" end="420" vehsPerHour="40.96311661961485" departLane="free"/>
  <flow id="JF214895" begin="360" fromJunction="J5" toJunction="J6" end="420" vehsPerHour="43.14028404297621" departLane="free"/>
  <flow id="JF214896" begin="360" fromJunction="J5" toJunction="J7" end="420" vehsPerHour="33.35285217887324" departLane="free"/>
  <flow id="JF214897" begin="360" fromJunction="J6" toJunction="J3" end="420" vehsPerHour="24.684992487365815" departLane="free"/>
  <flow id="JF214898" begin="360" fromJunction="J6" toJunction="J4" end="420" vehsPerHour="25.906193037094443" departLane="free"/>
  <flow id="JF214899" begin="360" fromJunction="J6" toJunction="J7" end="420" vehsPerHour="18.923107293317262" departLane="free"/>
  <flow id="JF214900" begin="360" fromJunction="J7" toJunction="J0" end="420" vehsPerHour="58.31827361726326" departLane="free"/>
  <flow id="JF214901" begin="360" fromJunction="J7" toJunction="J4" end="420" vehsPerHour="63.83378450071633" departLane="free"/>
  <flow id="JF214902" begin="360" fromJunction="J7" toJunction="J5" end="420" vehsPerHour="41.28391154310828" departLane="free"/>
  <flow id="JF214903" begin="420" fromJunction="J0" toJunction="J3" end="480" vehsPerHour="106.21676175720907" departLane="free"/>
  <flow id="JF214904" begin="420" fromJunction="J0" toJunction="J4" end="480" vehsPerHour="70.07601693087061" departLane="free"/>
  <flow id="JF214905" begin="420" fromJunction="J0" toJunction="J5" end="480" vehsPerHour="21.029412379983093" departLane="free"/>
  <flow id="JF214906" begin="420" fromJunction="J0" toJunction="J7" end="480" vehsPerHour="47.40522096896942" departLane="free"/>
  <flow id="JF214907" begin="420" fromJunction="J3" toJunction="J0" end="480" vehsPerHour="10.28306138823366" departLane="free"/>
  <flow id="JF214908" begin="420" fromJunction="J3" toJunction="J4" end="480" vehsPerHour="75.68221964917987" departLane="free"/>
  <flow id="JF214909" begin="420" fromJunction="J3" toJunction="J5" end="480" vehsPerHour="73.52737084333508" departLane="free"/>
  <flow id="JF214910" begin="420" fromJunction="J4" toJunction="J0" end="480" vehsPerHour="24.691518334669105" departLane="free"/>
  <flow id="JF214911" begin="420" fromJunction="J4" toJunction="J3" end="480" vehsPerHour="60.81924446859174" departLane="free"/>
  <flow id="JF214912" begin="420" fromJunction="J4" toJunction="J5" end="480" vehsPerHour="64.26042285032598" departLane="free"/>
  <flow id="JF214913" begin="420" fromJunction="J4" toJunction="J7" end="480" vehsPerHour="31.40723350339908" departLane="free"/>
  <flow id="JF214914" begin="420" fromJunction="J5" toJunction="J0" end="480" vehsPerHour="59.754828989331976" departLane="free"/>
  <flow id="JF214915" begin="420" fromJunction="J5" toJunction="J3" end="480" vehsPerHour="0.7463061044570903" departLane="free"/>
  <flow id="JF214916" begin="420" fromJunction="J5" toJunction="J7" end="480" vehsPerHour="23.09166346457121" departLane="free"/>
  <flow id="JF214917" begin="420" fromJunction="J6" toJunction="J0" end="480" vehsPerHour="21.740934801889395" departLane="free"/>
  <flow id="JF214918" begin="420" fromJunction="J6" toJunction="J3" end="480" vehsPerHour="29.17201015056264" departLane="free"/>
  <flow id="JF214919" begin="420" fromJunction="J6" toJunction="J5" end="480" vehsPerHour="43.022182419718256" departLane="free"/>
  <flow id="JF214920" begin="420" fromJunction="J6" toJunction="J7" end="480" vehsPerHour="23.942554221261712" departLane="free"/>
  <flow id="JF214921" begin="420" fromJunction="J7" toJunction="J0" end="480" vehsPerHour="51.73155073252318" departLane="free"/>
  <flow id="JF214922" begin="420" fromJunction="J7" toJunction="J4" end="480" vehsPerHour="31.539332105117722" departLane="free"/>
  <flow id="JF214923" begin="420" fromJunction="J7" toJunction="J5" end="480" vehsPerHour="32.888682768745255" departLane="free"/>
  <flow id="JF214924" begin="480" fromJunction="J0" toJunction="J3" end="540" vehsPerHour="24.352441669430345" departLane="free"/>
  <flow id="JF214925" begin="480" fromJunction="J0" toJunction="J6" end="540" vehsPerHour="118.31973685817235" departLane="free"/>
  <flow id="JF214926" begin="480" fromJunction="J0" toJunction="J7" end="540" vehsPerHour="42.28504389489406" departLane="free"/>
  <flow id="JF214927" begin="480" fromJunction="J3" toJunction="J0" end="540" vehsPerHour="44.00663831793474" departLane="free"/>
  <flow id="JF214928" begin="480" fromJunction="J3" toJunction="J4" end="540" vehsPerHour="50.07019662218491" departLane="free"/>
  <flow id="JF214929" begin="480" fromJunction="J3" toJunction="J5" end="540" vehsPerHour="0.4471939272126584" departLane="free"/>
  <flow id="JF214930" begin="480" fromJunction="J4" toJunction="J0" end="540" vehsPerHour="14.597453882932408" departLane="free"/>
  <flow id="JF214931" begin="480" fromJunction="J4" toJunction="J3" end="540" vehsPerHour="6.635454233991587" departLane="free"/>
  <flow id="JF214932" begin="480" fromJunction="J4" toJunction="J5" end="540" vehsPerHour="39.641477421950256" departLane="free"/>
  <flow id="JF214933" begin="480" fromJunction="J4" toJunction="J6" end="540" vehsPerHour="62.54112975485695" departLane="free"/>
  <flow id="JF214934" begin="480" fromJunction="J4" toJunction="J7" end="540" vehsPerHour="10.279658231840234" departLane="free"/>
  <flow id="JF214935" begin="480" fromJunction="J5" toJunction="J0" end="540" vehsPerHour="22.092108460065557" departLane="free"/>
  <flow id="JF214936" begin="480" fromJunction="J5" toJunction="J7" end="540" vehsPerHour="61.077758142735995" departLane="free"/>
  <flow id="JF214937" begin="480" fromJunction="J6" toJunction="J0" end="540" vehsPerHour="67.42642605019053" departLane="free"/>
  <flow id="JF214938" begin="480" fromJunction="J6" toJunction="J3" end="540" vehsPerHour="50.2888017900452" departLane="free"/>
  <flow id="JF214939" begin="480" fromJunction="J6" toJunction="J5" end="540" vehsPerHour="24.974415071472094" departLane="free"/>
  <flow id="JF214940" begin="480" fromJunction="J6" toJunction="J7" end="540" vehsPerHour="65.73345920369073" departLane="free"/>
  <flow id="JF214941" begin="480" fromJunction="J7" toJunction="J0" end="540" vehsPerHour="48.71550664739047" departLane="free"/>
  <flow id="JF214942" begin="480" fromJunction="J7" toJunction="J3" end="540" vehsPerHour="13.513426454023104" departLane="free"/>
  <flow id="JF214943" begin="480" fromJunction="J7" toJunction="J4" end="540" vehsPerHour="61.0711439551186" departLane="free"/>
  <flow id="JF214944" begin="480" fromJunction="J7" toJunction="J5" end="540" vehsPerHour="56.256863484404626" departLane="free"/>
  <flow id="JF214945" begin="480" fromJunction="J7" toJunction="J6" end="540" vehsPerHour="23.101387534607053" departLane="free"/>
  <flow id="JF214946" begin="540" fromJunction="J0" toJunction="J4" end="600" vehsPerHour="50.45420443457138" departLane="free"/>
  <flow id="JF214947" begin="540" fromJunction="J0" toJunction="J5" end="600" vehsPerHour="9.508797697255707" departLane="free"/>
  <flow id="JF214948" begin="540" fromJunction="J0" toJunction="J7" end="600" vehsPerHour="79.60561303805959" departLane="free"/>
  <flow id="JF214949" begin="540" fromJunction="J3" toJunction="J6" end="600" vehsPerHour="115.06741203085697" departLane="free"/>
  <flow id="JF214950" begin="540" fromJunction="J4" toJunction="J3" end="600" vehsPerHour="5.291978445957375" departLane="free"/>
  <flow id="JF214951" begin="540" fromJunction="J4" toJunction="J5" end="600" vehsPerHour="7.016942270682118" departLane="free"/>
  <flow id="JF214952" begin="540" fromJunction="J4" toJunction="J6" end="600" vehsPerHour="34.50915597004536" departLane="free"/>
  <flow id="JF214953" begin="540" fromJunction="J4" toJunction="J7" end="600" vehsPerHour="28.21034652570217" departLane="free"/>
  <flow id="JF214954" begin="540" fromJunction="J5" toJunction="J0" end="600" vehsPerHour="47.05548383029955" departLane="free"/>
  <flow id="JF214955" begin="540" fromJunction="J5" toJunction="J3" end="600" vehsPerHour="38.200210544619814" departLane="free"/>
  <flow id="JF214956" begin="540" fromJunction="J5" toJunction="J4" end="600" vehsPerHour="4.303687569675609" departLane="free"/>
  <flow id="JF214957" begin="540" fromJunction="J5" toJunction="J6" end="600" vehsPerHour="33.89204806004301" departLane="free"/>
  <flow id="JF214958" begin="540" fromJunction="J5" toJunction="J7" end="600" vehsPerHour="45.204859858411645" departLane="free"/>
  <flow id="JF214959" begin="540" fromJunction="J6" toJunction="J0" end="600" vehsPerHour="33.43801086609333" departLane="free"/>
  <flow id="JF214960" begin="540" fromJunction="J6" toJunction="J3" end="600" vehsPerHour="20.013910097403386" departLane="free"/>
  <flow id="JF214961" begin="540" fromJunction="J6" toJunction="J4" end="600" vehsPerHour="45.48918881859656" departLane="free"/>
  <flow id="JF214962" begin="540" fromJunction="J6" toJunction="J5" end="600" vehsPerHour="41.56859080233771" departLane="free"/>
  <flow id="JF214963" begin="540" fromJunction="J6" toJunction="J7" end="600" vehsPerHour="26.500675909176348" departLane="free"/>
  <flow id="JF214964" begin="540" fromJunction="J7" toJunction="J3" end="600" vehsPerHour="61.548962103150345" departLane="free"/>
  <flow id="JF214965" begin="540" fromJunction="J7" toJunction="J4" end="600" vehsPerHour="45.85027894954279" departLane="free"/>
  <flow id="JF214966" begin="540" fromJunction="J7" toJunction="J5" end="600" vehsPerHour="59.0378891057679" departLane="free"/>
  <flow id="JF214967" begin="540" fromJunction="J7" toJunction="J6" end="600" vehsPerHour="31.631836655348074" departLane="free"/>
  <flow id="JF214968" begin="600" fromJunction="J0" toJunction="J3" end="660" vehsPerHour="46.822272191898016" departLane="free"/>
  <flow id="JF214969" begin="600" fromJunction="J0" toJunction="J4" end="660" vehsPerHour="55.621843994474084" departLane="free"/>
  <flow id="JF214970" begin="600" fromJunction="J0" toJunction="J5" end="660" vehsPerHour="18.335627698356568" departLane="free"/>
  <flow id="JF214971" begin="600" fromJunction="J3" toJunction="J0" end="660" vehsPerHour="85.49195532024434" departLane="free"/>
  <flow id="JF214972" begin="600" fromJunction="J3" toJunction="J5" end="660" vehsPerHour="46.60924499843111" departLane="free"/>
  <flow id="JF214973" begin="600" fromJunction="J3" toJunction="J6" end="660" vehsPerHour="78.7009602297225" departLane="free"/>
  <flow id="JF214974" begin="600" fromJunction="J3" toJunction="J7" end="660" vehsPerHour="118.26064115867341" departLane="free"/>
  <flow id="JF214975" begin="600" fromJunction="J4" toJunction="J5" end="660" vehsPerHour="23.74203776776689" departLane="free"/>
  <flow id="JF214976" begin="600" fromJunction="J4" toJunction="J6" end="660" vehsPerHour="65.83222790278283" departLane="free"/>
  <flow id="JF214977" begin="600" fromJunction="J4" toJunction="J7" end="660" vehsPerHour="61.15419286275758" departLane="free"/>
  <flow id="JF214978" begin="600" fromJunction="J5" toJunction="J0" end="660" vehsPerHour="38.41305770955311" departLane="free"/>
  <flow id="JF214979" begin="600" fromJunction="J5" toJunction="J3" end="660" vehsPerHour="43.546493781282365" departLane="free"/>
  <flow id="JF214980" begin="600" fromJunction="J5" toJunction="J4" end="660" vehsPerHour="10.928117470188361" departLane="free"/>
  <flow id="JF214981" begin="600" fromJunction="J5" toJunction="J7" end="660" vehsPerHour="41.17781883845931" departLane="free"/>