<?xml version="1.0" encoding="UTF-8"?>
<routes xmlns:xsi="http://www.w3.org/2001/XMLSchema-instance" xsi:noNamespaceSchemaLocation="http://sumo.dlr.de/xsd/routes_file.xsd">
  <flow id="JF229699" begin="0" fromJunction="J0" toJunction="J3" end="60" vehsPerHour="22.506971995877887" departLane="free"/>
  <flow id="JF229700" begin="0" fromJunction="J0" toJunction="J4" end="60" vehsPerHour="2.9472258429223346" departLane="free"/>
  <flow id="JF229701" begin="0" fromJunction="J0" toJunction="J5" end="60" vehsPerHour="5.281921354348136" departLane="free"/>
  <flow id="JF229702" begin="0" fromJunction="J0" toJunction="J7" end="60" vehsPerHour="61.40946064765968" departLane="free"/>
  <flow id="JF229703" begin="0" fromJunction="J3" toJunction="J0" end="60" vehsPerHour="27.234881306616217" departLane="free"/>
  <flow id="JF229704" begin="0" fromJunction="J3" toJunction="J4" end="60" vehsPerHour="126.21645010239965" departLane="free"/>
  <flow id="JF229705" begin="0" fromJunction="J3" toJunction="J6" end="60" vehsPerHour="39.1352752780212" departLane="free"/>
  <flow id="JF229706" begin="0" fromJunction="J4" toJunction="J0" end="60" vehsPerHour="64.30686151207247" departLane="free"/>
  <flow id="JF229707" begin="0" fromJunction="J4" toJunction="J3" end="60" vehsPerHour="64.90098002353149" departLane="free"/>
  <flow id="JF229708" begin="0" fromJunction="J4" toJunction="J5" end="60" vehsPerHour="1.7040811912331952" departLane="free"/>
  <flow id="JF229709" begin="0" fromJunction="J4" toJunction="J6" end="60" vehsPerHour="63.58459085916212" departLane="free"/>
  <flow id="JF229710" begin="0" fromJunction="J4" toJunction="J7" end="60" vehsPerHour="67.17019386696298" departLane="free"/>
  <flow id="JF229711" begin="0" fromJunction="J5" toJunction="J0" end="60" vehsPerHour="24.21272924342553" departLane="free"/>
  <flow id="JF229712" begin="0" fromJunction="J5" toJunction="J3" end="60" vehsPerHour="42.58682586990389" departLane="free"/>
  <flow id="JF229713" begin="0" fromJunction="J5" toJunction="J4" end="60" vehsPerHour="47.94281037278941" departLane="free"/>
  <flow id="JF229714" begin="0" fromJunction="J5" toJunction="J6" end="60" vehsPerHour="1.0927536854578659" departLane="free"/>
  <flow id="JF229715" begin="0" fromJunction="J5" toJunction="J7" end="60" vehsPerHour="27.32964551326113" departLane="free"/>
  <flow id="JF229716" begin="0" fromJunction="J6" toJunction="J0" end="60" vehsPerHour="24.477384486309788" departLane="free"/>
  <flow id="JF229717" begin="0" fromJunction="J6" toJunction="J3" end="60" vehsPerHour="64.68640206271834" departLane="free"/>
  <flow id="JF229718" begin="0" fromJunction="J6" toJunction="J4" end="60" vehsPerHour="63.68263353421307" departLane="free"/>
  <flow id="JF229719" begin="0" fromJunction="J6" toJunction="J5" end="60" vehsPerHour="24.518526750131" departLane="free"/>
  <flow id="JF229720" begin="0" fromJunction="J6" toJunction="J7" end="60" vehsPerHour="1.3446503901466502" departLane="free"/>
  <flow id="JF229721" begin="0" fromJunction="J7" toJunction="J5" end="60" vehsPerHour="65.75111186803706" departLane="free"/>
  <flow id="JF229722" begin="0" fromJunction="J7" toJunction="J6" end="60" vehsPerHour="10.823228957713125" departLane="free"/>
  <flow id="JF229723" begin="60" fromJunction="J0" toJunction="J3" end="120" vehsPerHour="43.89046600778867" departLane="free"/>
  <flow id="JF229724" begin="60" fromJunction="J0" toJunction="J4" end="120" vehsPerHour="78.31871815335259" departLane="free"/>
  <flow id="JF229725" begin="60" fromJunction="J3" toJunction="J0" end="120" vehsPerHour="49.344955767099975" departLane="free"/>
  <flow id="JF229726" begin="60" fromJunction="J3" toJunction="J6" end="120" vehsPerHour="127.08280302450406" departLane="free"/>
  <flow id="JF229727" begin="60" fromJunction="J3" toJunction="J7" end="120" vehsPerHour="9.123029214224626" departLane="free"/>
  <flow id="JF229728" begin="60" fromJunction="J4" toJunction="J0" end="120" vehsPerHour="39.45338458757123" departLane="free"/>
  <flow id="JF229729" begin="60" fromJunction="J4" toJunction="J5" end="120" vehsPerHour="14.800400236377024" departLane="free"/>
  <flow id="JF229730" begin="60" fromJunction="J5" toJunction="J3" end="120" vehsPerHour="49.11203846750295" departLane="free"/>
  <flow id="JF229731" begin="60" fromJunction="J5" toJunction="J6" end="120" vehsPerHour="63.69243309206205" departLane="free"/>
  <flow id="JF229732" begin="60" fromJunction="J5" toJunction="J7" end="120" vehsPerHour="53.44503254364528" departLane="free"/>
  <flow id="JF229733" begin="60" fromJunction="J6" toJunction="J0" end="120" vehsPerHour="56.31075511039101" departLane="free"/>
  <flow id="JF229734" begin="60" fromJunction="J6" toJunction="J3" end="120" vehsPerHour="65.26781582359928" departLane="free"/>
  <flow id="JF229735" begin="60" fromJunction="J6" toJunction="J5" end="120" vehsPerHour="8.01414238907358" departLane="free"/>
  <flow id="JF229736" begin="60" fromJunction="J6" toJunction="J7" end="120" vehsPerHour="64.2767970245078" departLane="free"/>
  <flow id="JF229737" begin="60" fromJunction="J7" toJunction="J3" end="120" vehsPerHour="12.63365017389524" departLane="free"/>
  <flow id="JF229738" begin="60" fromJunction="J7" toJunction="J4" end="120" vehsPerHour="65.04992358539656" departLane="free"/>
  <flow id="JF229739" begin="60" fromJunction="J7" toJunction="J5" end="120" vehsPerHour="55.96705349935626" departLane="free"/>
  <flow id="JF229740" begin="60" fromJunction="J7" toJunction="J6" end="120" vehsPerHour="43.63758750689652" departLane="free"/>
  <flow id="JF229741" begin="120" fromJunction="J0" toJunction="J4" end="180" vehsPerHour="132.26978015831295" departLane="free"/>
  <flow id="JF229742" begin="120" fromJunction="J0" toJunction="J7" end="180" vehsPerHour="92.86119430888336" departLane="free"/>
  <flow id="JF229743" begin="120" fromJunction="J3" toJunction="J0" end="180" vehsPerHour="57.296426375178825" departLane="free"/>
  <flow id="JF229744" begin="120" fromJunction="J3" toJunction="J5" end="180" vehsPerHour="26.732099675813455" departLane="free"/>
  <flow id="JF229745" begin="120" fromJunction="J3" toJunction="J6" end="180" vehsPerHour="20.328002633548497" departLane="free"/>
  <flow id="JF229746" begin="120" fromJunction="J5" toJunction="J0" end="180" vehsPerHour="27.310256263366405" departLane="free"/>
  <flow id="JF229747" begin="120" fromJunction="J5" toJunction="J3" end="180" vehsPerHour="18.670271825775167" departLane="free"/>
  <flow id="JF229748" begin="120" fromJunction="J5" toJunction="J4" end="180" vehsPerHour="61.02604436211685" departLane="free"/>
  <flow id="JF229749" begin="120" fromJunction="J5" toJunction="J6" end="180" vehsPerHour="59.49861548434444" departLane="free"/>
  <flow id="JF229750" begin="120" fromJunction="J5" toJunction="J7" end="180" vehsPerHour="50.493540762836" departLane="free"/>
  <flow id="JF229751" begin="120" fromJunction="J6" toJunction="J0" end="180" vehsPerHour="49.44715782270569" departLane="free"/>
  <flow id="JF229752" begin="120" fromJunction="J6" toJunction="J3" end="180" vehsPerHour="11.304673799733344" departLane="free"/>
  <flow id="JF229753" begin="120" fromJunction="J6" toJunction="J4" end="180" vehsPerHour="65.99804952998393" departLane="free"/>
  <flow id="JF229754" begin="120" fromJunction="J7" toJunction="J0" end="180" vehsPerHour="60.52873025843626" departLane="free"/>
  <flow id="JF229755" begin="120" fromJunction="J7" toJunction="J3" end="180" vehsPerHour="15.161085613824255" departLane="free"/>
  <flow id="JF229756" begin="120" fromJunction="J7" toJunction="J4" end="180" vehsPerHour="26.148876330999045" departLane="free"/>
  <flow id="JF229757" begin="180" fromJunction="J0" toJunction="J3" end="240" vehsPerHour="14.842942926413485" departLane="free"/>
  <flow id="JF229758" begin="180" fromJunction="J0" toJunction="J4" end="240" vehsPerHour="104.92053308894465" departLane="free"/>
  <flow id="JF229759" begin="180" fromJunction="J0" toJunction="J5" end="240" vehsPerHour="40.36650957339318" departLane="free"/>
  <flow id="JF229760" begin="180" fromJunction="J0" toJunction="J6" end="240" vehsPerHour="39.59311159000262" departLane="free"/>
  <flow id="JF229761" begin="180" fromJunction="J3" toJunction="J4" end="240" vehsPerHour="14.529766576327074" departLane="free"/>
  <flow id="JF229762" begin="180" fromJunction="J3" toJunction="J5" end="240" vehsPerHour="111.12311327249053" departLane="free"/>
  <flow id="JF229763" begin="180" fromJunction="J3" toJunction="J6" end="240" vehsPerHour="68.30524767257391" departLane="free"/>
  <flow id="JF229764" begin="180" fromJunction="J3" toJunction="J7" end="240" vehsPerHour="17.108265335396894" departLane="free"/>
  <flow id="JF229765" begin="180" fromJunction="J4" toJunction="J0" end="240" vehsPerHour="14.247771633784721" departLane="free"/>
  <flow id="JF229766" begin="180" fromJunction="J4" toJunction="J3" end="240" vehsPerHour="16.81026851048962" departLane="free"/>
  <flow id="JF229767" begin="180" fromJunction="J4" toJunction="J5" end="240" vehsPerHour="18.850849125145995" departLane="free"/>
  <flow id="JF229768" begin="180" fromJunction="J5" toJunction="J0" end="240" vehsPerHour="65.84802003959693" departLane="free"/>
  <flow id="JF229769" begin="180" fromJunction="J5" toJunction="J3" end="240" vehsPerHour="20.75434160447345" departLane="free"/>
  <flow id="JF229770" begin="180" fromJunction="J5" toJunction="J4" end="240" vehsPerHour="1.0522235894367393" departLane="free"/>
  <flow id="JF229771" begin="180" fromJunction="J5" toJunction="J6" end="240" vehsPerHour="48.22432691783077" departLane="free"/>
  <flow id="JF229772" begin="180" fromJunction="J5" toJunction="J7" end="240" vehsPerHour="8.763017668741055" departLane="free"/>
  <flow id="JF229773" begin="180" fromJunction="J6" toJunction="J0" end="240" vehsPerHour="28.099829350971824" departLane="free"/>
  <flow id="JF229774" begin="180" fromJunction="J6" toJunction="J5" end="240" vehsPerHour="43.68667885921204" departLane="free"/>
  <flow id="JF229775" begin="180" fromJunction="J6" toJunction="J7" end="240" vehsPerHour="49.525726584337264" departLane="free"/>
  <flow id="JF229776" begin="240" fromJunction="J0" toJunction="J3" end="300" vehsPerHour="43.19832832132962" departLane="free"/>
  <flow id="JF229777" begin="240" fromJunction="J0" toJunction="J4" end="300" vehsPerHour="44.14738377614324" departLane="free"/>
  <flow id="JF229778" begin="240" fromJunction="J0" toJunction="J6" end="300" vehsPerHour="70.94512934310072" departLane="free"/>
  <flow id="JF229779" begin="240" fromJunction="J0" toJunction="J7" end="300" vehsPerHour="132.96485065768013" departLane="free"/>
  <flow id="JF229780" begin="240" fromJunction="J3" toJunction="J0" end="300" vehsPerHour="87.80154085734175" departLane="free"/>
  <flow id="JF229781" begin="240" fromJunction="J4" toJunction="J0" end="300" vehsPerHour="2.163371811845709" departLane="free"/>
  <flow id="JF229782" begin="240" fromJunction="J4" toJunction="J3" end="300" vehsPerHour="38.06109923571014" departLane="free"/>
  <flow id="JF229783" begin="240" fromJunction="J4" toJunction="J5" end="300" vehsPerHour="34.62910132889239" departLane="free"/>
  <flow id="JF229784" begin="240" fromJunction="J4" toJunction="J6" end="300" vehsPerHour="35.62602245777167" departLane="free"/>
  <flow id="JF229785" begin="240" fromJunction="J4" toJunction="J7" end="300" vehsPerHour="64.29710519741147" departLane="free"/>
  <flow id="JF229786" begin="240" fromJunction="J5" toJunction="J0" end="300" vehsPerHour="60.656695547853175" departLane="free"/>
  <flow id="JF229787" begin="240" fromJunction="J5" toJunction="J3" end="300" vehsPerHour="57.328760902170245" departLane="free"/>
  <flow id="JF229788" begin="240" fromJunction="J5" toJunction="J4" end="300" vehsPerHour="33.53393558592925" departLane="free"/>
  <flow id="JF229789" begin="240" fromJunction="J5" toJunction="J6" end="300" vehsPerHour="32.78866659307089" departLane="free"/>
  <flow id="JF229790" begin="240" fromJunction="J5" toJunction="J7" end="300" vehsPerHour="7.557350163019333" departLane="free"/>
  <flow id="JF229791" begin="240" fromJunction="J6" toJunction="J0" end="300" vehsPerHour="49.17459839442709" departLane="free"/>
  <flow id="JF229792" begin="240" fromJunction="J6" toJunction="J4" end="300" vehsPerHour="40.55622256043315" departLane="free"/>
  <flow id="JF229793" begin="240" fromJunction="J6" toJunction="J5" end="300" vehsPerHour="56.912123541200266" departLane="free"/>
  <flow id="JF229794" begin="240" fromJunction="J6" toJunction="J7" end="300" vehsPerHour="46.93706357531191" departLane="free"/>
  <flow id="JF229795" begin="240" fromJunction="J7" toJunction="J0" end="300" vehsPerHour="61.85689459812481" departLane="free"/>
  <flow id="JF229796" begin="300" fromJunction="J0" toJunction="J4" end="360" vehsPerHour="124.50763307053445" departLane="free"/>
  <flow id="JF229797" begin="300" fromJunction="J0" toJunction="J5" end="360" vehsPerHour="61.857231575753595" departLane="free"/>
  <flow id="JF229798" begin="300" fromJunction="J0" toJunction="J6" end="360" vehsPerHour="57.35271864741082" departLane="free"/>
  <flow id="JF229799" begin="300" fromJunction="J0" toJunction="J7" end="360" vehsPerHour="65.68763989849083" departLane="free"/>
  <flow id="JF229800" begin="300" fromJunction="J3" toJunction="J0" end="360" vehsPerHour="132.02215820874255" departLane="free"/>
  <flow id="JF229801" begin="300" fromJunction="J3" toJunction="J4" end="360" vehsPerHour="46.180032755011055" departLane="free"/>
  <flow id="JF229802" begin="300" fromJunction="J3" toJunction="J5" end="360" vehsPerHour="87.98536200516743" departLane="free"/>
  <flow id="JF229803" begin="300" fromJunction="J3" toJunction="J6" end="360" vehsPerHour="8.726504096871858" departLane="free"/>
  <flow id="JF229804" begin="300" fromJunction="J3" toJunction="J7" end="360" vehsPerHour="39.83755764057094" departLane="free"/>
  <flow id="JF229805" begin="300" fromJunction="J4" toJunction="J0" end="360" vehsPerHour="68.68614639922929" departLane="free"/>
  <flow id="JF229806" begin="300" fromJunction="J4" toJunction="J5" end="360" vehsPerHour="52.573916502062836" departLane="free"/>
  <flow id="JF229807" begin="300" fromJunction="J4" toJunction="J6" end="360" vehsPerHour="40.516490972598596" departLane="free"/>
  <flow id="JF229808" begin="300" fromJunction="J4" toJunction="J7" end="360" vehsPerHour="55.03964956650074" departLane="free"/>
  <flow id="JF229809" begin="300" fromJunction="J5" toJunction="J0" end="360" vehsPerHour="3.5238807387776743" departLane="free"/>
  <flow id="JF229810" begin="300" fromJunction="J5" toJunction="J4" end="360" vehsPerHour="49.87396766589855" departLane="free"/>
  <flow id="JF229811" begin="300" fromJunction="J5" toJunction="J6" end="360" vehsPerHour="50.790633198366365" departLane="free"/>
  <flow id="JF229812" begin="300" fromJunction="J5" toJunction="J7" end="360" vehsPerHour="65.59217609845575" departLane="free"/>
  <flow id="JF229813" begin="300" fromJunction="J6" toJunction="J3" end="360" vehsPerHour="67.175896814667" departLane="free"/>
  <flow id="JF229814" begin="300" fromJunction="J6" toJunction="J5" end="360" vehsPerHour="67.26605890786134" departLane="free"/>
  <flow id="JF229815" begin="300" fromJunction="J7" toJunction="J0" end="360" vehsPerHour="17.56778070559784" departLane="free"/>
  <flow id="JF229816" begin="300" fromJunction="J7" toJunction="J3" end="360" vehsPerHour="68.41905107790132" departLane="free"/>
  <flow id="JF229817" begin="300" fromJunction="J7" toJunction="J4" end="360" vehsPerHour="62.880400792924085" departLane="free"/>
  <flow id="JF229818" begin="300" fromJunction="J7" toJunction="J5" end="360" vehsPerHour="40.88809904622532" departLane="free"/>
  <flow id="JF229819" begin="300" fromJunction="J7" toJunction="J6" end="360" vehsPerHour="43.450967528673985" departLane="free"/>
  <flow id="JF229820" begin="360" fromJunction="J0" toJunction="J4" end="420" vehsPerHour="0.9735887875098711" departLane="free"/>
  <flow id="JF229821" begin="360" fromJunction="J0" toJunction="J5" end="420" vehsPerHour="16.465170329170263" departLane="free"/>
  <flow id="JF229822" begin="360" fromJunction="J0" toJunction="J7" end="420" vehsPerHour="133.39374933904588" departLane="free"/>
  <flow id="JF229823" begin="360" fromJunction="J3" toJunction="J0" end="420" vehsPerHour="3.242480886800441" departLane="free"/>
  <flow id="JF229824" begin="360" fromJunction="J3" toJunction="J4" end="420" vehsPerHour="35.4154812108458" departLane="free"/>
  <flow id="JF229825" begin="360" fromJunction="J3" toJunction="J6" end="420" vehsPerHour="120.88155805928115" departLane="free"/>
  <flow id="JF229826" begin="360" fromJunction="J4" toJunction="J0" end="420" vehsPerHour="48.465756308121364" departLane="free"/>
  <flow id="JF229827" begin="360" fromJunction="J4" toJunction="J5" end="420" vehsPerHour="65.60499072978409" departLane="free"/>
  <flow id="JF229828" begin="360" fromJunction="J4" toJunction="J6" end="420" vehsPerHour="22.349822490074608" departLane="free"/>
  <flow id="JF229829" begin="360" fromJunction="J4" toJunction="J7" end="420" vehsPerHour="41.519475640155584" departLane="free"/>
  <flow id="JF229830" begin="360" fromJunction="J5" toJunction="J0" end="420" vehsPerHour="49.742112860805754" departLane="free"/>
  <flow id="JF229831" begin="360" fromJunction="J5" toJunction="J3" end="420" vehsPerHour="53.78101457612647" departLane="free"/>
  <flow id="JF229832" begin="360" fromJunction="J5" toJunction="J4" end="420" vehsPerHour="24.02549916086162" departLane="free"/>
  <flow id="JF229833" begin="360" fromJunction="J5" toJunction="J7" end="420" vehsPerHour="58.53727122332237" departLane="free"/>
  <flow id="JF229834" begin="360" fromJunction="J6" toJunction="J0" end="420" vehsPerHour="42.35200790780503" departLane="free"/>
  <flow id="JF229835" begin="360" fromJunction="J6" toJunction="J3" end="420" vehsPerHour="42.61004994623231" departLane="free"/>
  <flow id="JF229836" begin="360" fromJunction="J7" toJunction="J0" end="420" vehsPerHour="67.69908291936567" departLane="free"/>
  <flow id="JF229837" begin="360" fromJunction="J7" toJunction="J3" end="420" vehsPerHour="60.86757375374946" departLane="free"/>
  <flow id="JF229838" begin="360" fromJunction="J7" toJunction="J4" end="420" vehsPerHour="13.58524735518103" departLane="free"/>
  <flow id="JF229839" begin="360" fromJunction="J7" toJunction="J5" end="420" vehsPerHour="62.82697877832388" departLane="free"/>
  <flow id="JF229840" begin="360" fromJunction="J7" toJunction="J6" end="420" vehsPerHour="30.726966754853215" departLane="free"/>
  <flow id="JF229841" begin="420" fromJunction="J0" toJunction="J4" end="480" vehsPerHour="52.65233568720939" departLane="free"/>
  <flow id="JF229842" begin="420" fromJunction="J0" toJunction="J5" end="480" vehsPerHour="38.22347238804905" departLane="free"/>
  <flow id="JF229843" begin="420" fromJunction="J0" toJunction="J6" end="480" vehsPerHour="63.202945574438324" departLane="free"/>
  <flow id="JF229844" begin="420" fromJunction="J0" toJunction="J7" end="480" vehsPerHour="112.54044634786524" departLane="free"/>
  <flow id="JF229845" begin="420" fromJunction="J3" toJunction="J4" end="480" vehsPerHour="115.70223200254456" departLane="free"/>
  <flow id="JF229846" begin="420" fromJunction="J3" toJunction="J7" end="480" vehsPerHour="119.14805259515381" departLane="free"/>
  <flow id="JF229847" begin="420" fromJunction="J4" toJunction="J0" end="480" vehsPerHour="17.1252605105668" departLane="free"/>
  <flow id="JF229848" begin="420" fromJunction="J4" toJunction="J3" end="480" vehsPerHour="56.923800700682044" departLane="free"/>
  <flow id="JF229849" begin="420" fromJunction="J4" toJunction="J7" end="480" vehsPerHour="55.90631008507522" departLane="free"/>
  <flow id="JF229850" begin="420" fromJunction="J5" toJunction="J4" end="480" vehsPerHour="57.394501032534656" departLane="free"/>
  <flow id="JF229851" begin="420" fromJunction="J5" toJunction="J6" end="480" vehsPerHour="40.78559959195374" departLane="free"/>
  <flow id="JF229852" begin="420" fromJunction="J5" toJunction="J7" end="480" vehsPerHour="56.52735807337293" departLane="free"/>
  <flow id="JF229853" begin="420" fromJunction="J6" toJunction="J0" end="480" vehsPerHour="52.14484124569896" departLane="free"/>
  <flow id="JF229854" begin="420" fromJunction="J6" toJunction="J3" end="480" vehsPerHour="6.556416743361211" departLane="free"/>
  <flow id="JF229855" begin="420" fromJunction="J6" toJunction="J4" end="480" vehsPerHour="40.56421888614823" departLane="free"/>
  <flow id="JF229856" begin="420" fromJunction="J6" toJunction="J5" end="480" vehsPerHour="31.62002990129589" departLane="free"/>
  <flow id="JF229857" begin="420" fromJunction="J6" toJunction="J7" end="480" vehsPerHour="31.70279207795956" departLane="free"/>
  <flow id="JF229858" begin="420" fromJunction="J7" toJunction="J0" end="480" vehsPerHour="38.6658519454569" departLane="free"/>
  <flow id="JF229859" begin="420" fromJunction="J7" toJunction="J3" end="480" vehsPerHour="31.86701606758872" departLane="free"/>
  <flow id="JF229860" begin="420" fromJunction="J7" toJunction="J4" end="480" vehsPerHour="32.674933913483216" departLane="free"/>
  <flow id="JF229861" begin="420" fromJunction="J7" toJunction="J5" end="480" vehsPerHour="53.72714715453542" departLane="free"/>
  <flow id="JF229862" begin="420" fromJunction="J7" toJunction="J6" end="480" vehsPerHour="53.669491893593985" departLane="free"/>
  <flow id="JF229863" begin="480" fromJunction="J0" toJunction="J5" end="540" vehsPerHour="18.616695088494765" departLane="free"/>
  <flow id="JF229864" begin="480" fromJunction="J0" toJunction="J7" end="540" vehsPerHour="29.426318982161668" departLane="free"/>
  <flow id="JF229865" begin="480" fromJunction="J3" toJunction="J0" end="540" vehsPerHour="73.8866430639852" departLane="free"/>
  <flow id="JF229866" begin="480" fromJunction="J3" toJunction="J5" end="540" vehsPerHour="105.60356137403562" departLane="free"/>
  <flow id="JF229867" begin="480" fromJunction="J3" toJunction="J6" end="540" vehsPerHour="22.608048248311082" departLane="free"/>
  <flow id="JF229868" begin="480" fromJunction="J3" toJunction="J7" end="540" vehsPerHour="13.572804156906063" departLane="free"/>
  <flow id="JF229869" begin="480" fromJunction="J4" toJunction="J0" end="540" vehsPerHour="0.1699994544863694" departLane="free"/>
  <flow id="JF229870" begin="480" fromJunction="J4" toJunction="J3" end="540" vehsPerHour="68.00429897061878" departLane="free"/>
  <flow id="JF229871" begin="480" fromJunction="J4" toJunction="J5" end="540" vehsPerHour="55.70501969343024" departLane="free"/>
  <flow id="JF229872" begin="480" fromJunction="J4" toJunction="J6" end="540" vehsPerHour="4.429144147458615" departLane="free"/>
  <flow id="JF229873" begin="480" fromJunction="J4" toJunction="J7" end="540" vehsPerHour="21.305979844439104" departLane="free"/>
  <flow id="JF229874" begin="480" fromJunction="J5" toJunction="J0" end="540" vehsPerHour="15.966047792798982" departLane="free"/>
  <flow id="JF229875" begin="480" fromJunction="J5" toJunction="J3" end="540" vehsPerHour="17.387303333221475" departLane="free"/>
  <flow id="JF229876" begin="480" fromJunction="J5" toJunction="J4" end="540" vehsPerHour="48.56411189382893" departLane="free"/>
  <flow id="JF229877" begin="480" fromJunction="J5" toJunction="J6" end="540" vehsPerHour="55.72212612195145" departLane="free"/>
  <flow id="JF229878" begin="480" fromJunction="J5" toJunction="J7" end="540" vehsPerHour="8.053765460388638" departLane="free"/>
  <flow id="JF229879" begin="480" fromJunction="J6" toJunction="J3" end="540" vehsPerHour="67.97576272964925" departLane="free"/>
  <flow id="JF229880" begin="480" fromJunction="J6" toJunction="J4" end="540" vehsPerHour="14.130427598406035" departLane="free"/>
  <flow id="JF229881" begin="480" fromJunction="J6" toJunction="J5" end="540" vehsPerHour="52.75417720156362" departLane="free"/>
  <flow id="JF229882" begin="480" fromJunction="J6" toJunction="J7" end="540" vehsPerHour="66.45674720047964" departLane="free"/>
  <flow id="JF229883" begin="480" fromJunction="J7" toJunction="J0" end="540" vehsPerHour="47.030618529425595" departLane="free"/>
  <flow id="JF229884" begin="480" fromJunction="J7" toJunction="J3" end="540" vehsPerHour="49.1742627799296" departLane="free"/>
  <flow id="JF229885" begin="480" fromJunction="J7" toJunction="J4" end="540" vehsPerHour="19.25017365597355" departLane="free"/>
  <flow id="JF229886" begin="480" fromJunction="J7" toJunction="J6" end="540" vehsPerHour="7.385083228502768" departLane="free"/>
  <flow id="JF229887" begin="540" fromJunction="J0" toJunction="J3" end="600" vehsPerHour="34.39572753458142" departLane="free"/>
  <flow id="JF229888" begin="540" fromJunction="J0" toJunction="J4" end="600" vehsPerHour="40.26836732372354" departLane="free"/>
  <flow id="JF229889" begin="540" fromJunction="J0" toJunction="J5" end="600" vehsPerHour="82.18945216212416" departLane="free"/>
  <flow id="JF229890" begin="540" fromJunction="J0" toJunction="J6" end="600" vehsPerHour="117.47756128608593" departLane="free"/>
  <flow id="JF229891" begin="540" fromJunction="J0" toJunction="J7" end="600" vehsPerHour="25.353400697265773" departLane="free"/>
  <flow id="JF229892" begin="540" fromJunction="J3" toJunction="J0" end="600" vehsPerHour="132.68178836358015" departLane="free"/>
  <flow id="JF229893" begin="540" fromJunction="J3" toJunction="J4" end="600" vehsPerHour="0.041752926545761064" departLane="free"/>
  <flow id="JF229894" begin="540" fromJunction="J3" toJunction="J5" end="600" vehsPerHour="78.11844227179434" departLane="free"/>
  <flow id="JF229895" begin="540" fromJunction="J3" toJunction="J6" end="600" vehsPerHour="59.94577373626948" departLane="free"/>
  <flow id="JF229896" begin="540" fromJunction="J3" toJunction="J7" end="600" vehsPerHour="84.12340571614021" departLane="free"/>
  <flow id="JF229897" begin="540" fromJunction="J4" toJunction="J0" end="600" vehsPerHour="34.9459111264871" departLane="free"/>
  <flow id="JF229898" begin="540" fromJunction="J4" toJunction="J3" end="600" vehsPerHour="28.41406242791049" departLane="free"/>
  <flow id="JF229899" begin="540" fromJunction="J4" toJunction="J5" end="600" vehsPerHour="23.63464243062331" departLane="free"/>
  <flow id="JF229900" begin="540" fromJunction="J5" toJunction="J0" end="600" vehsPerHour="10.361276451828534" departLane="free"/>
  <flow id="JF229901" begin="540" fromJunction="J5" toJunction="J3" end="600" vehsPerHour="43.73177663908223" departLane="free"/>
  <flow id="JF229902" begin="540" fromJunction="J5" toJunction="J4" end="600" vehsPerHour="33.106075244193" departLane="free"/>
  <flow id="JF229903" begin="540" fromJunction="J5" toJunction="J6" end="600" vehsPerHour="52.31470660355306" departLane="free"/>
  <flow id="JF229904" begin="540" fromJunction="J5" toJunction="J7" end="600" vehsPerHour="29.551115412533346" departLane="free"/>
  <flow id="JF229905" begin="540" fromJunction="J6" toJunction="J4" end="600" vehsPerHour="60.42435199706358" departLane="free"/>
  <flow id="JF229906" begin="540" fromJunction="J6" toJunction="J7" end="600" vehsPerHour="65.44969549409849" departLane="free"/>
  <flow id="JF229907" begin="540" fromJunction="J7" toJunction="J3" end="600" vehsPerHour="25.982964248272093" departLane="free"/>
  <flow id="JF229908" begin="540" fromJunction="J7" toJunction="J6" end="600" vehsPerHour="50.431265324547226" departLane="free"/>
  <flow id="JF229909" begin="600" fromJunction="J0" toJunction="J4" end="660" vehsPerHour="127.60277442193917" departLane="free"/>
  <flow id="JF229910" begin="600" fromJunction="J0" toJunction="J5" end="660" vehsPerHour="11.734413811039692" departLane="free"/>
  <flow id="JF229911" begin="600" fromJunction="J0" toJunction="J6" end="660" vehsPerHour="0.8665477319741707" departLane="free"/>
  <flow id="JF229912" begin="600" fromJunction="J0" toJunction="J7" end="660" vehsPerHour="12.508468249909894" departLane="free"/>
  <flow id="JF229913" begin="600" fromJunction="J3" toJunction="J0" end="660" vehsPerHour="95.71438550719621" departLane="free"/>
  <flow id="JF229914" begin="600" fromJunction="J3" toJunction="J4" end="660" vehsPerHour="39.01151935978897" departLane="free"/>
  <flow id="JF229915" begin="600" fromJunction="J3" toJunction="J5" end="660" vehsPerHour="127.47632421162473" departLane="free"/>
  <flow id="JF229916" begin="600" fromJunction="J3" toJunction="J6" end="660" vehsPerHour="62.94763706403524" departLane="free"/>
  <flow id="JF229917" begin="600" fromJunction="J3" toJunction="J7" end="660" vehsPerHour="21.05449937495409" departLane="free"/>
  <flow id="JF229918" begin="600" fromJunction="J4" toJunction="J3" end="660" vehsPerHour="24.230917148684302" departLane="free"/>
  <flow id="JF229919" begin="600" fromJunction="J5" toJunction="J0" end="660" vehsPerHour="48.31617548529435" departLane="free"/>
  <flow id="JF229920" begin="600" fromJunction="J5" toJunction="J3" end="660" vehsPerHour="2.71727490299734" departLane="free"/>
  <flow id="JF229921" begin="600" fromJunction="J5" toJunction="J6" end="660" vehsPerHour="50.495636433562304" departLane="free"/>
  <flow id="JF229922" begin="600" fromJunction="J6" toJunction="J3" end="660" vehsPerHour="45.759576422193135" departLane="free"/>
  <flow id="JF229923" begin="600" fromJunction="J6" toJunction="J4" end="660" vehsPerHour="19.06203522101257" departLane="free"/>
  <flow id="JF229924" begin="600" fromJunction="J6" toJunction="J7" end="660" vehsPerHour="27.970792931211083" departLane="free"/>
  <flow id="JF229925" begin="600" fromJunction="J7" toJunction="J0" end="660" vehsPerHour="9.79592061615245" departLane="free"/>
  <flow id="JF229926" begin="600" fromJunction="J7" toJunction="J3" end="660" vehsPerHour="40.43309617101917" departLane="free"/>
  <flow id="JF229927" begin="600" fromJunction="J7" toJunction="J4" end="660" vehsPerHour="39.570439668063905" departLane="free"/>