<?xml version="1.0" encoding="UTF-8"?>
<routes xmlns:xsi="http://www.w3.org/2001/XMLSchema-instance" xsi:noNamespaceSchemaLocation="http://sumo.dlr.de/xsd/routes_file.xsd">
  <flow id="JF225899" begin="0" fromJunction="J0" toJunction="J3" end="60" vehsPerHour="24.095999281946877" departLane="free"/>
  <flow id="JF225900" begin="0" fromJunction="J0" toJunction="J4" end="60" vehsPerHour="117.10165727683511" departLane="free"/>
  <flow id="JF225901" begin="0" fromJunction="J0" toJunction="J5" end="60" vehsPerHour="58.58653551785641" departLane="free"/>
  <flow id="JF225902" begin="0" fromJunction="J0" toJunction="J6" end="60" vehsPerHour="64.13980529511744" departLane="free"/>
  <flow id="JF225903" begin="0" fromJunction="J0" toJunction="J7" end="60" vehsPerHour="9.897598293359195" departLane="free"/>
  <flow id="JF225904" begin="0" fromJunction="J3" toJunction="J0" end="60" vehsPerHour="76.68151163421534" departLane="free"/>
  <flow id="JF225905" begin="0" fromJunction="J3" toJunction="J4" end="60" vehsPerHour="60.2102959661261" departLane="free"/>
  <flow id="JF225906" begin="0" fromJunction="J3" toJunction="J6" end="60" vehsPerHour="41.88598148764838" departLane="free"/>
  <flow id="JF225907" begin="0" fromJunction="J4" toJunction="J0" end="60" vehsPerHour="21.83654670398793" departLane="free"/>
  <flow id="JF225908" begin="0" fromJunction="J4" toJunction="J3" end="60" vehsPerHour="8.262321150800236" departLane="free"/>
  <flow id="JF225909" begin="0" fromJunction="J4" toJunction="J5" end="60" vehsPerHour="18.447018340862517" departLane="free"/>
  <flow id="JF225910" begin="0" fromJunction="J4" toJunction="J6" end="60" vehsPerHour="56.46054735778635" departLane="free"/>
  <flow id="JF225911" begin="0" fromJunction="J4" toJunction="J7" end="60" vehsPerHour="17.543601127353853" departLane="free"/>
  <flow id="JF225912" begin="0" fromJunction="J5" toJunction="J3" end="60" vehsPerHour="0.6995617665947969" departLane="free"/>
  <flow id="JF225913" begin="0" fromJunction="J6" toJunction="J0" end="60" vehsPerHour="21.40934721347672" departLane="free"/>
  <flow id="JF225914" begin="0" fromJunction="J6" toJunction="J3" end="60" vehsPerHour="56.618721170355386" departLane="free"/>
  <flow id="JF225915" begin="0" fromJunction="J6" toJunction="J4" end="60" vehsPerHour="65.88097737249481" departLane="free"/>
  <flow id="JF225916" begin="0" fromJunction="J6" toJunction="J5" end="60" vehsPerHour="14.499404930151785" departLane="free"/>
  <flow id="JF225917" begin="0" fromJunction="J7" toJunction="J0" end="60" vehsPerHour="25.394896278584255" departLane="free"/>
  <flow id="JF225918" begin="0" fromJunction="J7" toJunction="J4" end="60" vehsPerHour="12.417238075162027" departLane="free"/>
  <flow id="JF225919" begin="0" fromJunction="J7" toJunction="J6" end="60" vehsPerHour="35.434197649135605" departLane="free"/>
  <flow id="JF225920" begin="60" fromJunction="J0" toJunction="J4" end="120" vehsPerHour="53.41419714492757" departLane="free"/>
  <flow id="JF225921" begin="60" fromJunction="J0" toJunction="J6" end="120" vehsPerHour="52.005465191702115" departLane="free"/>
  <flow id="JF225922" begin="60" fromJunction="J0" toJunction="J7" end="120" vehsPerHour="76.99962073452414" departLane="free"/>
  <flow id="JF225923" begin="60" fromJunction="J3" toJunction="J0" end="120" vehsPerHour="97.33171496388537" departLane="free"/>
  <flow id="JF225924" begin="60" fromJunction="J3" toJunction="J5" end="120" vehsPerHour="56.04519634697304" departLane="free"/>
  <flow id="JF225925" begin="60" fromJunction="J3" toJunction="J6" end="120" vehsPerHour="91.1858547540993" departLane="free"/>
  <flow id="JF225926" begin="60" fromJunction="J4" toJunction="J0" end="120" vehsPerHour="19.265825441691273" departLane="free"/>
  <flow id="JF225927" begin="60" fromJunction="J4" toJunction="J5" end="120" vehsPerHour="55.27888359463894" departLane="free"/>
  <flow id="JF225928" begin="60" fromJunction="J4" toJunction="J7" end="120" vehsPerHour="24.995858391984253" departLane="free"/>
  <flow id="JF225929" begin="60" fromJunction="J5" toJunction="J3" end="120" vehsPerHour="65.14451030794253" departLane="free"/>
  <flow id="JF225930" begin="60" fromJunction="J5" toJunction="J4" end="120" vehsPerHour="45.300890288675554" departLane="free"/>
  <flow id="JF225931" begin="60" fromJunction="J5" toJunction="J6" end="120" vehsPerHour="67.70454064996416" departLane="free"/>
  <flow id="JF225932" begin="60" fromJunction="J5" toJunction="J7" end="120" vehsPerHour="61.3275728102622" departLane="free"/>
  <flow id="JF225933" begin="60" fromJunction="J6" toJunction="J0" end="120" vehsPerHour="8.329771158859126" departLane="free"/>
  <flow id="JF225934" begin="60" fromJunction="J6" toJunction="J3" end="120" vehsPerHour="24.866197230961887" departLane="free"/>
  <flow id="JF225935" begin="60" fromJunction="J6" toJunction="J5" end="120" vehsPerHour="18.168067894427857" departLane="free"/>
  <flow id="JF225936" begin="60" fromJunction="J6" toJunction="J7" end="120" vehsPerHour="25.589234219272342" departLane="free"/>
  <flow id="JF225937" begin="60" fromJunction="J7" toJunction="J0" end="120" vehsPerHour="60.58019187065262" departLane="free"/>
  <flow id="JF225938" begin="60" fromJunction="J7" toJunction="J3" end="120" vehsPerHour="6.613209030263301" departLane="free"/>
  <flow id="JF225939" begin="60" fromJunction="J7" toJunction="J4" end="120" vehsPerHour="26.145919656586567" departLane="free"/>
  <flow id="JF225940" begin="60" fromJunction="J7" toJunction="J5" end="120" vehsPerHour="3.8966020503733634" departLane="free"/>
  <flow id="JF225941" begin="60" fromJunction="J7" toJunction="J6" end="120" vehsPerHour="36.84401836368712" departLane="free"/>
  <flow id="JF225942" begin="120" fromJunction="J0" toJunction="J4" end="180" vehsPerHour="100.64061243331432" departLane="free"/>
  <flow id="JF225943" begin="120" fromJunction="J0" toJunction="J5" end="180" vehsPerHour="13.566447618547924" departLane="free"/>
  <flow id="JF225944" begin="120" fromJunction="J0" toJunction="J7" end="180" vehsPerHour="68.73523248091472" departLane="free"/>
  <flow id="JF225945" begin="120" fromJunction="J3" toJunction="J4" end="180" vehsPerHour="24.755068662979077" departLane="free"/>
  <flow id="JF225946" begin="120" fromJunction="J3" toJunction="J5" end="180" vehsPerHour="80.70813497863276" departLane="free"/>
  <flow id="JF225947" begin="120" fromJunction="J3" toJunction="J7" end="180" vehsPerHour="113.00228483234731" departLane="free"/>
  <flow id="JF225948" begin="120" fromJunction="J4" toJunction="J5" end="180" vehsPerHour="49.151368678460216" departLane="free"/>
  <flow id="JF225949" begin="120" fromJunction="J4" toJunction="J7" end="180" vehsPerHour="30.476714982285323" departLane="free"/>
  <flow id="JF225950" begin="120" fromJunction="J5" toJunction="J0" end="180" vehsPerHour="40.73038675523741" departLane="free"/>
  <flow id="JF225951" begin="120" fromJunction="J5" toJunction="J4" end="180" vehsPerHour="6.267473273514797" departLane="free"/>
  <flow id="JF225952" begin="120" fromJunction="J5" toJunction="J6" end="180" vehsPerHour="5.644958737749411" departLane="free"/>
  <flow id="JF225953" begin="120" fromJunction="J5" toJunction="J7" end="180" vehsPerHour="64.90505113220244" departLane="free"/>
  <flow id="JF225954" begin="120" fromJunction="J6" toJunction="J0" end="180" vehsPerHour="34.01165276041386" departLane="free"/>
  <flow id="JF225955" begin="120" fromJunction="J6" toJunction="J3" end="180" vehsPerHour="8.371138643578197" departLane="free"/>
  <flow id="JF225956" begin="120" fromJunction="J6" toJunction="J4" end="180" vehsPerHour="16.949266706994774" departLane="free"/>
  <flow id="JF225957" begin="120" fromJunction="J6" toJunction="J5" end="180" vehsPerHour="21.212228687892445" departLane="free"/>
  <flow id="JF225958" begin="120" fromJunction="J7" toJunction="J0" end="180" vehsPerHour="48.387990714961816" departLane="free"/>
  <flow id="JF225959" begin="120" fromJunction="J7" toJunction="J3" end="180" vehsPerHour="62.878736037050615" departLane="free"/>
  <flow id="JF225960" begin="120" fromJunction="J7" toJunction="J5" end="180" vehsPerHour="6.296100606698229" departLane="free"/>
  <flow id="JF225961" begin="120" fromJunction="J7" toJunction="J6" end="180" vehsPerHour="25.15626432866185" departLane="free"/>
  <flow id="JF225962" begin="180" fromJunction="J0" toJunction="J3" end="240" vehsPerHour="135.07286008206523" departLane="free"/>
  <flow id="JF225963" begin="180" fromJunction="J0" toJunction="J4" end="240" vehsPerHour="5.803480921665496" departLane="free"/>
  <flow id="JF225964" begin="180" fromJunction="J0" toJunction="J5" end="240" vehsPerHour="72.61947938297284" departLane="free"/>
  <flow id="JF225965" begin="180" fromJunction="J0" toJunction="J7" end="240" vehsPerHour="17.86939843726233" departLane="free"/>
  <flow id="JF225966" begin="180" fromJunction="J3" toJunction="J0" end="240" vehsPerHour="131.0519545365623" departLane="free"/>
  <flow id="JF225967" begin="180" fromJunction="J3" toJunction="J5" end="240" vehsPerHour="16.12876381734883" departLane="free"/>
  <flow id="JF225968" begin="180" fromJunction="J3" toJunction="J6" end="240" vehsPerHour="22.39585645682706" departLane="free"/>
  <flow id="JF225969" begin="180" fromJunction="J3" toJunction="J7" end="240" vehsPerHour="39.29011096622959" departLane="free"/>
  <flow id="JF225970" begin="180" fromJunction="J4" toJunction="J3" end="240" vehsPerHour="8.643924143942149" departLane="free"/>
  <flow id="JF225971" begin="180" fromJunction="J4" toJunction="J5" end="240" vehsPerHour="2.14308381579904" departLane="free"/>
  <flow id="JF225972" begin="180" fromJunction="J5" toJunction="J0" end="240" vehsPerHour="33.60434885405052" departLane="free"/>
  <flow id="JF225973" begin="180" fromJunction="J5" toJunction="J3" end="240" vehsPerHour="22.107885406898305" departLane="free"/>
  <flow id="JF225974" begin="180" fromJunction="J5" toJunction="J7" end="240" vehsPerHour="27.974527837053326" departLane="free"/>
  <flow id="JF225975" begin="180" fromJunction="J6" toJunction="J0" end="240" vehsPerHour="54.508935362653226" departLane="free"/>
  <flow id="JF225976" begin="180" fromJunction="J6" toJunction="J3" end="240" vehsPerHour="63.80685006490864" departLane="free"/>
  <flow id="JF225977" begin="180" fromJunction="J6" toJunction="J4" end="240" vehsPerHour="52.23636721225663" departLane="free"/>
  <flow id="JF225978" begin="180" fromJunction="J6" toJunction="J5" end="240" vehsPerHour="37.97352366445657" departLane="free"/>
  <flow id="JF225979" begin="180" fromJunction="J6" toJunction="J7" end="240" vehsPerHour="64.46658130529508" departLane="free"/>
  <flow id="JF225980" begin="180" fromJunction="J7" toJunction="J0" end="240" vehsPerHour="59.47768008556529" departLane="free"/>
  <flow id="JF225981" begin="180" fromJunction="J7" toJunction="J3" end="240" vehsPerHour="47.58671346127918" departLane="free"/>
  <flow id="JF225982" begin="180" fromJunction="J7" toJunction="J5" end="240" vehsPerHour="18.725520184796377" departLane="free"/>
  <flow id="JF225983" begin="180" fromJunction="J7" toJunction="J6" end="240" vehsPerHour="19.56296790967749" departLane="free"/>
  <flow id="JF225984" begin="240" fromJunction="J0" toJunction="J4" end="300" vehsPerHour="19.194538927223682" departLane="free"/>
  <flow id="JF225985" begin="240" fromJunction="J0" toJunction="J5" end="300" vehsPerHour="25.31931288316693" departLane="free"/>
  <flow id="JF225986" begin="240" fromJunction="J3" toJunction="J0" end="300" vehsPerHour="46.33812968248281" departLane="free"/>
  <flow id="JF225987" begin="240" fromJunction="J3" toJunction="J4" end="300" vehsPerHour="26.1077446947848" departLane="free"/>
  <flow id="JF225988" begin="240" fromJunction="J3" toJunction="J5" end="300" vehsPerHour="129.25248640513917" departLane="free"/>
  <flow id="JF225989" begin="240" fromJunction="J3" toJunction="J7" end="300" vehsPerHour="107.6959453518792" departLane="free"/>
  <flow id="JF225990" begin="240" fromJunction="J4" toJunction="J5" end="300" vehsPerHour="25.044378452024286" departLane="free"/>
  <flow id="JF225991" begin="240" fromJunction="J4" toJunction="J7" end="300" vehsPerHour="28.69178080148444" departLane="free"/>
  <flow id="JF225992" begin="240" fromJunction="J5" toJunction="J0" end="300" vehsPerHour="11.583897479179168" departLane="free"/>
  <flow id="JF225993" begin="240" fromJunction="J5" toJunction="J3" end="300" vehsPerHour="5.959862902646877" departLane="free"/>
  <flow id="JF225994" begin="240" fromJunction="J5" toJunction="J4" end="300" vehsPerHour="42.906051010927136" departLane="free"/>
  <flow id="JF225995" begin="240" fromJunction="J5" toJunction="J7" end="300" vehsPerHour="33.92765732427568" departLane="free"/>
  <flow id="JF225996" begin="240" fromJunction="J6" toJunction="J0" end="300" vehsPerHour="12.462807083249379" departLane="free"/>
  <flow id="JF225997" begin="240" fromJunction="J6" toJunction="J3" end="300" vehsPerHour="55.154056202778676" departLane="free"/>
  <flow id="JF225998" begin="240" fromJunction="J6" toJunction="J4" end="300" vehsPerHour="7.4773086152621815" departLane="free"/>
  <flow id="JF225999" begin="240" fromJunction="J6" toJunction="J5" end="300" vehsPerHour="36.175246483488735" departLane="free"/>
  <flow id="JF226000" begin="240" fromJunction="J6" toJunction="J7" end="300" vehsPerHour="24.755319847820477" departLane="free"/>
  <flow id="JF226001" begin="240" fromJunction="J7" toJunction="J3" end="300" vehsPerHour="11.882719086207189" departLane="free"/>
  <flow id="JF226002" begin="240" fromJunction="J7" toJunction="J4" end="300" vehsPerHour="5.038937238539035" departLane="free"/>
  <flow id="JF226003" begin="240" fromJunction="J7" toJunction="J5" end="300" vehsPerHour="55.60052079886771" departLane="free"/>
  <flow id="JF226004" begin="240" fromJunction="J7" toJunction="J6" end="300" vehsPerHour="57.71523090031784" departLane="free"/>
  <flow id="JF226005" begin="300" fromJunction="J0" toJunction="J3" end="360" vehsPerHour="41.52774826585507" departLane="free"/>
  <flow id="JF226006" begin="300" fromJunction="J0" toJunction="J5" end="360" vehsPerHour="98.9974538455028" departLane="free"/>
  <flow id="JF226007" begin="300" fromJunction="J0" toJunction="J6" end="360" vehsPerHour="82.83366052021535" departLane="free"/>
  <flow id="JF226008" begin="300" fromJunction="J0" toJunction="J7" end="360" vehsPerHour="52.89476553561658" departLane="free"/>
  <flow id="JF226009" begin="300" fromJunction="J3" toJunction="J0" end="360" vehsPerHour="38.36241082948379" departLane="free"/>
  <flow id="JF226010" begin="300" fromJunction="J3" toJunction="J4" end="360" vehsPerHour="37.346402068236394" departLane="free"/>
  <flow id="JF226011" begin="300" fromJunction="J3" toJunction="J6" end="360" vehsPerHour="35.383784061565926" departLane="free"/>
  <flow id="JF226012" begin="300" fromJunction="J3" toJunction="J7" end="360" vehsPerHour="46.02318320085843" departLane="free"/>
  <flow id="JF226013" begin="300" fromJunction="J4" toJunction="J3" end="360" vehsPerHour="60.15089352341052" departLane="free"/>
  <flow id="JF226014" begin="300" fromJunction="J4" toJunction="J7" end="360" vehsPerHour="2.3959739244655767" departLane="free"/>
  <flow id="JF226015" begin="300" fromJunction="J5" toJunction="J3" end="360" vehsPerHour="51.9047804504695" departLane="free"/>
  <flow id="JF226016" begin="300" fromJunction="J5" toJunction="J4" end="360" vehsPerHour="28.753181388030136" departLane="free"/>
  <flow id="JF226017" begin="300" fromJunction="J5" toJunction="J6" end="360" vehsPerHour="38.982797888526505" departLane="free"/>
  <flow id="JF226018" begin="300" fromJunction="J5" toJunction="J7" end="360" vehsPerHour="20.337000537614518" departLane="free"/>
  <flow id="JF226019" begin="300" fromJunction="J6" toJunction="J0" end="360" vehsPerHour="67.6733193279973" departLane="free"/>
  <flow id="JF226020" begin="300" fromJunction="J6" toJunction="J7" end="360" vehsPerHour="27.844988293693344" departLane="free"/>
  <flow id="JF226021" begin="300" fromJunction="J7" toJunction="J0" end="360" vehsPerHour="46.29907649352956" departLane="free"/>
  <flow id="JF226022" begin="300" fromJunction="J7" toJunction="J4" end="360" vehsPerHour="10.38513832361719" departLane="free"/>
  <flow id="JF226023" begin="300" fromJunction="J7" toJunction="J6" end="360" vehsPerHour="10.261310439558033" departLane="free"/>
  <flow id="JF226024" begin="360" fromJunction="J0" toJunction="J4" end="420" vehsPerHour="5.97679561591313" departLane="free"/>
  <flow id="JF226025" begin="360" fromJunction="J0" toJunction="J5" end="420" vehsPerHour="13.920648132007535" departLane="free"/>
  <flow id="JF226026" begin="360" fromJunction="J0" toJunction="J6" end="420" vehsPerHour="76.24201705118446" departLane="free"/>
  <flow id="JF226027" begin="360" fromJunction="J3" toJunction="J0" end="420" vehsPerHour="16.159243520650815" departLane="free"/>
  <flow id="JF226028" begin="360" fromJunction="J3" toJunction="J4" end="420" vehsPerHour="101.77009945964959" departLane="free"/>
  <flow id="JF226029" begin="360" fromJunction="J3" toJunction="J5" end="420" vehsPerHour="110.48703975280631" departLane="free"/>
  <flow id="JF226030" begin="360" fromJunction="J3" toJunction="J7" end="420" vehsPerHour="128.83299142107555" departLane="free"/>
  <flow id="JF226031" begin="360" fromJunction="J4" toJunction="J0" end="420" vehsPerHour="66.65049881908213" departLane="free"/>
  <flow id="JF226032" begin="360" fromJunction="J4" toJunction="J5" end="420" vehsPerHour="42.363533396921014" departLane="free"/>
  <flow id="JF226033" begin="360" fromJunction="J4" toJunction="J6" end="420" vehsPerHour="24.5897576537561" departLane="free"/>
  <flow id="JF226034" begin="360" fromJunction="J5" toJunction="J0" end="420" vehsPerHour="1.2405907688263544" departLane="free"/>
  <flow id="JF226035" begin="360" fromJunction="J5" toJunction="J3" end="420" vehsPerHour="44.679556655399324" departLane="free"/>
  <flow id="JF226036" begin="360" fromJunction="J5" toJunction="J6" end="420" vehsPerHour="65.43157289787396" departLane="free"/>
  <flow id="JF226037" begin="360" fromJunction="J5" toJunction="J7" end="420" vehsPerHour="60.54183178964426" departLane="free"/>
  <flow id="JF226038" begin="360" fromJunction="J6" toJunction="J0" end="420" vehsPerHour="34.183871978186424" departLane="free"/>
  <flow id="JF226039" begin="360" fromJunction="J6" toJunction="J4" end="420" vehsPerHour="57.042564537746784" departLane="free"/>
  <flow id="JF226040" begin="360" fromJunction="J6" toJunction="J5" end="420" vehsPerHour="64.52306999200644" departLane="free"/>
  <flow id="JF226041" begin="360" fromJunction="J6" toJunction="J7" end="420" vehsPerHour="23.380501650561445" departLane="free"/>
  <flow id="JF226042" begin="360" fromJunction="J7" toJunction="J4" end="420" vehsPerHour="28.906780307880066" departLane="free"/>
  <flow id="JF226043" begin="360" fromJunction="J7" toJunction="J5" end="420" vehsPerHour="55.58925607249766" departLane="free"/>
  <flow id="JF226044" begin="360" fromJunction="J7" toJunction="J6" end="420" vehsPerHour="4.202025933022613" departLane="free"/>
  <flow id="JF226045" begin="420" fromJunction="J0" toJunction="J4" end="480" vehsPerHour="62.16107187124459" departLane="free"/>
  <flow id="JF226046" begin="420" fromJunction="J0" toJunction="J5" end="480" vehsPerHour="121.4334528807359" departLane="free"/>
  <flow id="JF226047" begin="420" fromJunction="J0" toJunction="J6" end="480" vehsPerHour="81.42706067730076" departLane="free"/>
  <flow id="JF226048" begin="420" fromJunction="J3" toJunction="J4" end="480" vehsPerHour="72.0934639607067" departLane="free"/>
  <flow id="JF226049" begin="420" fromJunction="J3" toJunction="J5" end="480" vehsPerHour="31.854509069675" departLane="free"/>
  <flow id="JF226050" begin="420" fromJunction="J3" toJunction="J7" end="480" vehsPerHour="43.31142186152324" departLane="free"/>
  <flow id="JF226051" begin="420" fromJunction="J4" toJunction="J0" end="480" vehsPerHour="45.26587559857808" departLane="free"/>
  <flow id="JF226052" begin="420" fromJunction="J4" toJunction="J3" end="480" vehsPerHour="13.507765904195733" departLane="free"/>
  <flow id="JF226053" begin="420" fromJunction="J4" toJunction="J5" end="480" vehsPerHour="49.08502839595777" departLane="free"/>
  <flow id="JF226054" begin="420" fromJunction="J4" toJunction="J6" end="480" vehsPerHour="22.32590758767283" departLane="free"/>
  <flow id="JF226055" begin="420" fromJunction="J4" toJunction="J7" end="480" vehsPerHour="37.742084274710315" departLane="free"/>
  <flow id="JF226056" begin="420" fromJunction="J5" toJunction="J0" end="480" vehsPerHour="46.6850324303202" departLane="free"/>
  <flow id="JF226057" begin="420" fromJunction="J5" toJunction="J4" end="480" vehsPerHour="21.882615673458435" departLane="free"/>
  <flow id="JF226058" begin="420" fromJunction="J5" toJunction="J7" end="480" vehsPerHour="44.823603911815034" departLane="free"/>
  <flow id="JF226059" begin="420" fromJunction="J6" toJunction="J0" end="480" vehsPerHour="66.98448116321582" departLane="free"/>
  <flow id="JF226060" begin="420" fromJunction="J6" toJunction="J3" end="480" vehsPerHour="21.830591456998484" departLane="free"/>
  <flow id="JF226061" begin="420" fromJunction="J6" toJunction="J4" end="480" vehsPerHour="29.319934872578006" departLane="free"/>
  <flow id="JF226062" begin="420" fromJunction="J6" toJunction="J7" end="480" vehsPerHour="10.037252191249673" departLane="free"/>
  <flow id="JF226063" begin="420" fromJunction="J7" toJunction="J0" end="480" vehsPerHour="55.251512392107806" departLane="free"/>
  <flow id="JF226064" begin="420" fromJunction="J7" toJunction="J3" end="480" vehsPerHour="6.771534069953446" departLane="free"/>
  <flow id="JF226065" begin="420" fromJunction="J7" toJunction="J6" end="480" vehsPerHour="54.03441951622896" departLane="free"/>
  <flow id="JF226066" begin="480" fromJunction="J0" toJunction="J3" end="540" vehsPerHour="16.43753228068354" departLane="free"/>
  <flow id="JF226067" begin="480" fromJunction="J0" toJunction="J4" end="540" vehsPerHour="28.638872014057128" departLane="free"/>
  <flow id="JF226068" begin="480" fromJunction="J0" toJunction="J5" end="540" vehsPerHour="4.570269675620122" departLane="free"/>
  <flow id="JF226069" begin="480" fromJunction="J0" toJunction="J7" end="540" vehsPerHour="107.24268490189897" departLane="free"/>
  <flow id="JF226070" begin="480" fromJunction="J3" toJunction="J0" end="540" vehsPerHour="79.47537934688701" departLane="free"/>
  <flow id="JF226071" begin="480" fromJunction="J3" toJunction="J4" end="540" vehsPerHour="40.17666248919712" departLane="free"/>
  <flow id="JF226072" begin="480" fromJunction="J3" toJunction="J5" end="540" vehsPerHour="134.66320833620668" departLane="free"/>
  <flow id="JF226073" begin="480" fromJunction="J3" toJunction="J6" end="540" vehsPerHour="69.66792384874118" departLane="free"/>
  <flow id="JF226074" begin="480" fromJunction="J3" toJunction="J7" end="540" vehsPerHour="11.609430034419507" departLane="free"/>
  <flow id="JF226075" begin="480" fromJunction="J4" toJunction="J3" end="540" vehsPerHour="64.6876695826319" departLane="free"/>
  <flow id="JF226076" begin="480" fromJunction="J4" toJunction="J6" end="540" vehsPerHour="58.777576650785576" departLane="free"/>
  <flow id="JF226077" begin="480" fromJunction="J4" toJunction="J7" end="540" vehsPerHour="29.240610195815297" departLane="free"/>
  <flow id="JF226078" begin="480" fromJunction="J5" toJunction="J0" end="540" vehsPerHour="7.933761586239422" departLane="free"/>
  <flow id="JF226079" begin="480" fromJunction="J5" toJunction="J3" end="540" vehsPerHour="54.637722998012144" departLane="free"/>
  <flow id="JF226080" begin="480" fromJunction="J5" toJunction="J7" end="540" vehsPerHour="7.819941791380295" departLane="free"/>
  <flow id="JF226081" begin="480" fromJunction="J6" toJunction="J3" end="540" vehsPerHour="64.52324579668019" departLane="free"/>
  <flow id="JF226082" begin="480" fromJunction="J6" toJunction="J5" end="540" vehsPerHour="32.87184033556976" departLane="free"/>
  <flow id="JF226083" begin="480" fromJunction="J6" toJunction="J7" end="540" vehsPerHour="66.81383469855994" departLane="free"/>
  <flow id="JF226084" begin="480" fromJunction="J7" toJunction="J0" end="540" vehsPerHour="50.7214054779068" departLane="free"/>
  <flow id="JF226085" begin="480" fromJunction="J7" toJunction="J3" end="540" vehsPerHour="61.578676413736694" departLane="free"/>
  <flow id="JF226086" begin="480" fromJunction="J7" toJunction="J5" end="540" vehsPerHour="23.285417891401757" departLane="free"/>
  <flow id="JF226087" begin="540" fromJunction="J0" toJunction="J4" end="600" vehsPerHour="85.15771831444268" departLane="free"/>
  <flow id="JF226088" begin="540" fromJunction="J0" toJunction="J5" end="600" vehsPerHour="136.0645121770042" departLane="free"/>
  <flow id="JF226089" begin="540" fromJunction="J0" toJunction="J6" end="600" vehsPerHour="123.35706472351275" departLane="free"/>
  <flow id="JF226090" begin="540" fromJunction="J3" toJunction="J0" end="600" vehsPerHour="5.91470896443918" departLane="free"/>
  <flow id="JF226091" begin="540" fromJunction="J3" toJunction="J4" end="600" vehsPerHour="56.79188109711207" departLane="free"/>
  <flow id="JF226092" begin="540" fromJunction="J3" toJunction="J5" end="600" vehsPerHour="53.20396906553082" departLane="free"/>
  <flow id="JF226093" begin="540" fromJunction="J3" toJunction="J6" end="600" vehsPerHour="101.62032766421673" departLane="free"/>
  <flow id="JF226094" begin="540" fromJunction="J3" toJunction="J7" end="600" vehsPerHour="81.75133444260473" departLane="free"/>
  <flow id="JF226095" begin="540" fromJunction="J4" toJunction="J0" end="600" vehsPerHour="8.467819530528272" departLane="free"/>
  <flow id="JF226096" begin="540" fromJunction="J4" toJunction="J3" end="600" vehsPerHour="65.5631279985484" departLane="free"/>
  <flow id="JF226097" begin="540" fromJunction="J4" toJunction="J7" end="600" vehsPerHour="28.644575500733172" departLane="free"/>
  <flow id="JF226098" begin="540" fromJunction="J5" toJunction="J0" end="600" vehsPerHour="3.2118370915520886" departLane="free"/>
  <flow id="JF226099" begin="540" fromJunction="J5" toJunction="J3" end="600" vehsPerHour="53.694286052961644" departLane="free"/>
  <flow id="JF226100" begin="540" fromJunction="J5" toJunction="J4" end="600" vehsPerHour="6.735443268902065" departLane="free"/>
  <flow id="JF226101" begin="540" fromJunction="J5" toJunction="J6" end="600" vehsPerHour="12.988238892532221" departLane="free"/>
  <flow id="JF226102" begin="540" fromJunction="J5" toJunction="J7" end="600" vehsPerHour="38.025628045763625" departLane="free"/>
  <flow id="JF226103" begin="540" fromJunction="J6" toJunction="J3" end="600" vehsPerHour="21.570422886747743" departLane="free"/>
  <flow id="JF226104" begin="540" fromJunction="J6" toJunction="J4" end="600" vehsPerHour="11.955832016439878" departLane="free"/>
  <flow id="JF226105" begin="540" fromJunction="J7" toJunction="J0" end="600" vehsPerHour="67.70162695886434" departLane="free"/>
  <flow id="JF226106" begin="540" fromJunction="J7" toJunction="J3" end="600" vehsPerHour="60.77506507583985" departLane="free"/>
  <flow id="JF226107" begin="540" fromJunction="J7" toJunction="J4" end="600" vehsPerHour="58.92969270621209" departLane="free"/>
  <flow id="JF226108" begin="540" fromJunction="J7" toJunction="J5" end="600" vehsPerHour="40.58390276123727" departLane="free"/>
  <flow id="JF226109" begin="540" fromJunction="J7" toJunction="J6" end="600" vehsPerHour="65.7980500980985" departLane="free"/>
  <flow id="JF226110" begin="600" fromJunction="J0" toJunction="J3" end="660" vehsPerHour="106.5635573506403" departLane="free"/>
  <flow id="JF226111" begin="600" fromJunction="J0" toJunction="J4" end="660" vehsPerHour="20.443049133528074" departLane="free"/>
  <flow id="JF226112" begin="600" fromJunction="J0" toJunction="J6" end="660" vehsPerHour="3.3028347856160734" departLane="free"/>
  <flow id="JF226113" begin="600" fromJunction="J0" toJunction="J7" end="660" vehsPerHour="122.19895245708045" departLane="free"/>
  <flow id="JF226114" begin="600" fromJunction="J3" toJunction="J0" end="660" vehsPerHour="133.46409305986617" departLane="free"/>
  <flow id="JF226115" begin="600" fromJunction="J3" toJunction="J4" end="660" vehsPerHour="10.692945625502269" departLane="free"/>
  <flow id="JF226116" begin="600" fromJunction="J3" toJunction="J5" end="660" vehsPerHour="82.57372330490159" departLane="free"/>
  <flow id="JF226117" begin="600" fromJunction="J3" toJunction="J6" end="660" vehsPerHour="12.96850864183865" departLane="free"/>
  <flow id="JF226118" begin="600" fromJunction="J3" toJunction="J7" end="660" vehsPerHour="134.32062520490388" departLane="free"/>
  <flow id="JF226119" begin="600" fromJunction="J4" toJunction="J0" end="660" vehsPerHour="16.081229718475235" departLane="free"/>
  <flow id="JF226120" begin="600" fromJunction="J4" toJunction="J5" end="660" vehsPerHour="51.03350061313914" departLane="free"/>
  <flow id="JF226121" begin="600" fromJunction="J4" toJunction="J7" end="660" vehsPerHour="18.42621223599349" departLane="free"/>
  <flow id="JF226122" begin="600" fromJunction="J5" toJunction="J0" end="660" vehsPerHour="66.25641334320505" departLane="free"/>
  <flow id="JF226123" begin="600" fromJunction="J5" toJunction="J4" end="660" vehsPerHour="9.407430893797104" departLane="free"/>
  <flow id="JF226124" begin="600" fromJunction="J5" toJunction="J6" end="660" vehsPerHour="36.74008013331935" departLane="free"/>
  <flow id="JF226125" begin="600" fromJunction="J5" toJunction="J7" end="660" vehsPerHour="17.625262594932874" departLane="free"/>
  <flow id="JF226126" begin="600" fromJunction="J6" toJunction="J0" end="660" vehsPerHour="18.84302520672898" departLane="free"/>
  <flow id="JF226127" begin="600" fromJunction="J6" toJunction="J5" end="660" vehsPerHour="51.077760156870845" departLane="free"/>