<?xml version="1.0" encoding="UTF-8"?>
<routes xmlns:xsi="http://www.w3.org/2001/XMLSchema-instance" xsi:noNamespaceSchemaLocation="http://sumo.dlr.de/xsd/routes_file.xsd">
  <flow id="JF218463" begin="0" fromJunction="J0" toJunction="J3" end="60" vehsPerHour="95.69235959700872" departLane="free"/>
  <flow id="JF218464" begin="0" fromJunction="J0" toJunction="J4" end="60" vehsPerHour="25.351935678552188" departLane="free"/>
  <flow id="JF218465" begin="0" fromJunction="J0" toJunction="J5" end="60" vehsPerHour="90.86093445694308" departLane="free"/>
  <flow id="JF218466" begin="0" fromJunction="J0" toJunction="J6" end="60" vehsPerHour="62.451523339291356" departLane="free"/>
  <flow id="JF218467" begin="0" fromJunction="J3" toJunction="J4" end="60" vehsPerHour="28.02685776326173" departLane="free"/>
  <flow id="JF218468" begin="0" fromJunction="J3" toJunction="J5" end="60" vehsPerHour="70.68303567589744" departLane="free"/>
  <flow id="JF218469" begin="0" fromJunction="J3" toJunction="J7" end="60" vehsPerHour="106.36659625864834" departLane="free"/>
  <flow id="JF218470" begin="0" fromJunction="J4" toJunction="J0" end="60" vehsPerHour="26.015831721152594" departLane="free"/>
  <flow id="JF218471" begin="0" fromJunction="J4" toJunction="J3" end="60" vehsPerHour="21.17865051516903" departLane="free"/>
  <flow id="JF218472" begin="0" fromJunction="J4" toJunction="J6" end="60" vehsPerHour="51.14747115914425" departLane="free"/>
  <flow id="JF218473" begin="0" fromJunction="J5" toJunction="J3" end="60" vehsPerHour="34.565883353375824" departLane="free"/>
  <flow id="JF218474" begin="0" fromJunction="J5" toJunction="J6" end="60" vehsPerHour="32.87246401334329" departLane="free"/>
  <flow id="JF218475" begin="0" fromJunction="J6" toJunction="J0" end="60" vehsPerHour="19.8513389476941" departLane="free"/>
  <flow id="JF218476" begin="0" fromJunction="J6" toJunction="J3" end="60" vehsPerHour="60.84661965994623" departLane="free"/>
  <flow id="JF218477" begin="0" fromJunction="J6" toJunction="J4" end="60" vehsPerHour="15.280576155431621" departLane="free"/>
  <flow id="JF218478" begin="0" fromJunction="J7" toJunction="J0" end="60" vehsPerHour="19.906214238193098" departLane="free"/>
  <flow id="JF218479" begin="0" fromJunction="J7" toJunction="J4" end="60" vehsPerHour="6.021262610549785" departLane="free"/>
  <flow id="JF218480" begin="0" fromJunction="J7" toJunction="J5" end="60" vehsPerHour="27.150735276519793" departLane="free"/>
  <flow id="JF218481" begin="0" fromJunction="J7" toJunction="J6" end="60" vehsPerHour="52.68068752069094" departLane="free"/>
  <flow id="JF218482" begin="60" fromJunction="J0" toJunction="J3" end="120" vehsPerHour="29.809785212199298" departLane="free"/>
  <flow id="JF218483" begin="60" fromJunction="J0" toJunction="J5" end="120" vehsPerHour="24.656117087864786" departLane="free"/>
  <flow id="JF218484" begin="60" fromJunction="J0" toJunction="J6" end="120" vehsPerHour="98.31839483607683" departLane="free"/>
  <flow id="JF218485" begin="60" fromJunction="J0" toJunction="J7" end="120" vehsPerHour="28.61021335452589" departLane="free"/>
  <flow id="JF218486" begin="60" fromJunction="J3" toJunction="J0" end="120" vehsPerHour="86.77673846044715" departLane="free"/>
  <flow id="JF218487" begin="60" fromJunction="J3" toJunction="J4" end="120" vehsPerHour="60.19441716042264" departLane="free"/>
  <flow id="JF218488" begin="60" fromJunction="J3" toJunction="J5" end="120" vehsPerHour="122.72767555150635" departLane="free"/>
  <flow id="JF218489" begin="60" fromJunction="J3" toJunction="J6" end="120" vehsPerHour="61.68027607695552" departLane="free"/>
  <flow id="JF218490" begin="60" fromJunction="J3" toJunction="J7" end="120" vehsPerHour="107.00415886769295" departLane="free"/>
  <flow id="JF218491" begin="60" fromJunction="J4" toJunction="J5" end="120" vehsPerHour="36.53821004028631" departLane="free"/>
  <flow id="JF218492" begin="60" fromJunction="J4" toJunction="J7" end="120" vehsPerHour="34.91036447647859" departLane="free"/>
  <flow id="JF218493" begin="60" fromJunction="J5" toJunction="J0" end="120" vehsPerHour="34.279645504605085" departLane="free"/>
  <flow id="JF218494" begin="60" fromJunction="J5" toJunction="J3" end="120" vehsPerHour="31.478779423606603" departLane="free"/>
  <flow id="JF218495" begin="60" fromJunction="J5" toJunction="J4" end="120" vehsPerHour="67.82978439722702" departLane="free"/>
  <flow id="JF218496" begin="60" fromJunction="J5" toJunction="J7" end="120" vehsPerHour="2.0347462602613327" departLane="free"/>
  <flow id="JF218497" begin="60" fromJunction="J6" toJunction="J0" end="120" vehsPerHour="17.316626924393493" departLane="free"/>
  <flow id="JF218498" begin="60" fromJunction="J6" toJunction="J3" end="120" vehsPerHour="48.29134730959091" departLane="free"/>
  <flow id="JF218499" begin="60" fromJunction="J6" toJunction="J4" end="120" vehsPerHour="16.654297054817263" departLane="free"/>
  <flow id="JF218500" begin="60" fromJunction="J6" toJunction="J5" end="120" vehsPerHour="3.8145633342135756" departLane="free"/>
  <flow id="JF218501" begin="60" fromJunction="J6" toJunction="J7" end="120" vehsPerHour="37.2538464880583" departLane="free"/>
  <flow id="JF218502" begin="60" fromJunction="J7" toJunction="J0" end="120" vehsPerHour="20.89271448106518" departLane="free"/>
  <flow id="JF218503" begin="60" fromJunction="J7" toJunction="J3" end="120" vehsPerHour="42.59144916257905" departLane="free"/>
  <flow id="JF218504" begin="60" fromJunction="J7" toJunction="J5" end="120" vehsPerHour="9.223144933258576" departLane="free"/>
  <flow id="JF218505" begin="120" fromJunction="J0" toJunction="J3" end="180" vehsPerHour="45.203948350410286" departLane="free"/>
  <flow id="JF218506" begin="120" fromJunction="J0" toJunction="J4" end="180" vehsPerHour="67.89661433486718" departLane="free"/>
  <flow id="JF218507" begin="120" fromJunction="J0" toJunction="J5" end="180" vehsPerHour="111.76299922414279" departLane="free"/>
  <flow id="JF218508" begin="120" fromJunction="J0" toJunction="J6" end="180" vehsPerHour="68.53191314638866" departLane="free"/>
  <flow id="JF218509" begin="120" fromJunction="J3" toJunction="J4" end="180" vehsPerHour="134.78222790662014" departLane="free"/>
  <flow id="JF218510" begin="120" fromJunction="J3" toJunction="J5" end="180" vehsPerHour="128.4854763528203" departLane="free"/>
  <flow id="JF218511" begin="120" fromJunction="J3" toJunction="J6" end="180" vehsPerHour="5.907314098857275" departLane="free"/>
  <flow id="JF218512" begin="120" fromJunction="J4" toJunction="J0" end="180" vehsPerHour="11.183621008830022" departLane="free"/>
  <flow id="JF218513" begin="120" fromJunction="J4" toJunction="J3" end="180" vehsPerHour="35.82830818303049" departLane="free"/>
  <flow id="JF218514" begin="120" fromJunction="J4" toJunction="J6" end="180" vehsPerHour="15.90510936929956" departLane="free"/>
  <flow id="JF218515" begin="120" fromJunction="J4" toJunction="J7" end="180" vehsPerHour="33.45400479186041" departLane="free"/>
  <flow id="JF218516" begin="120" fromJunction="J5" toJunction="J3" end="180" vehsPerHour="51.70107520854989" departLane="free"/>
  <flow id="JF218517" begin="120" fromJunction="J5" toJunction="J6" end="180" vehsPerHour="29.547514097729596" departLane="free"/>
  <flow id="JF218518" begin="120" fromJunction="J5" toJunction="J7" end="180" vehsPerHour="48.289192585317814" departLane="free"/>
  <flow id="JF218519" begin="120" fromJunction="J6" toJunction="J0" end="180" vehsPerHour="63.631312839309324" departLane="free"/>
  <flow id="JF218520" begin="120" fromJunction="J6" toJunction="J3" end="180" vehsPerHour="5.7236255468673125" departLane="free"/>
  <flow id="JF218521" begin="120" fromJunction="J6" toJunction="J4" end="180" vehsPerHour="12.449600297191612" departLane="free"/>
  <flow id="JF218522" begin="120" fromJunction="J6" toJunction="J5" end="180" vehsPerHour="48.144492756452244" departLane="free"/>
  <flow id="JF218523" begin="120" fromJunction="J6" toJunction="J7" end="180" vehsPerHour="50.32891636605637" departLane="free"/>
  <flow id="JF218524" begin="120" fromJunction="J7" toJunction="J0" end="180" vehsPerHour="66.00415139200368" departLane="free"/>
  <flow id="JF218525" begin="120" fromJunction="J7" toJunction="J3" end="180" vehsPerHour="6.912876280439608" departLane="free"/>
  <flow id="JF218526" begin="120" fromJunction="J7" toJunction="J5" end="180" vehsPerHour="19.32997656186554" departLane="free"/>
  <flow id="JF218527" begin="180" fromJunction="J0" toJunction="J5" end="240" vehsPerHour="135.063088203616" departLane="free"/>
  <flow id="JF218528" begin="180" fromJunction="J0" toJunction="J6" end="240" vehsPerHour="81.19870327563095" departLane="free"/>
  <flow id="JF218529" begin="180" fromJunction="J0" toJunction="J7" end="240" vehsPerHour="117.85230760418162" departLane="free"/>
  <flow id="JF218530" begin="180" fromJunction="J3" toJunction="J0" end="240" vehsPerHour="135.78805184678268" departLane="free"/>
  <flow id="JF218531" begin="180" fromJunction="J3" toJunction="J5" end="240" vehsPerHour="6.131044192163758" departLane="free"/>
  <flow id="JF218532" begin="180" fromJunction="J3" toJunction="J7" end="240" vehsPerHour="44.48343943541027" departLane="free"/>
  <flow id="JF218533" begin="180" fromJunction="J4" toJunction="J0" end="240" vehsPerHour="10.651997834930095" departLane="free"/>
  <flow id="JF218534" begin="180" fromJunction="J4" toJunction="J5" end="240" vehsPerHour="19.5262736206502" departLane="free"/>
  <flow id="JF218535" begin="180" fromJunction="J4" toJunction="J7" end="240" vehsPerHour="57.850225982592995" departLane="free"/>
  <flow id="JF218536" begin="180" fromJunction="J5" toJunction="J0" end="240" vehsPerHour="44.48042486078972" departLane="free"/>
  <flow id="JF218537" begin="180" fromJunction="J5" toJunction="J4" end="240" vehsPerHour="49.347664287034895" departLane="free"/>
  <flow id="JF218538" begin="180" fromJunction="J5" toJunction="J7" end="240" vehsPerHour="7.57463446643705" departLane="free"/>
  <flow id="JF218539" begin="180" fromJunction="J6" toJunction="J3" end="240" vehsPerHour="24.583249794161937" departLane="free"/>
  <flow id="JF218540" begin="180" fromJunction="J6" toJunction="J4" end="240" vehsPerHour="34.16725127794538" departLane="free"/>
  <flow id="JF218541" begin="180" fromJunction="J6" toJunction="J5" end="240" vehsPerHour="41.425836494645615" departLane="free"/>
  <flow id="JF218542" begin="180" fromJunction="J6" toJunction="J7" end="240" vehsPerHour="23.215711076914012" departLane="free"/>
  <flow id="JF218543" begin="180" fromJunction="J7" toJunction="J0" end="240" vehsPerHour="44.47677853216088" departLane="free"/>
  <flow id="JF218544" begin="180" fromJunction="J7" toJunction="J3" end="240" vehsPerHour="11.616021968052307" departLane="free"/>
  <flow id="JF218545" begin="180" fromJunction="J7" toJunction="J4" end="240" vehsPerHour="34.9312736461507" departLane="free"/>
  <flow id="JF218546" begin="180" fromJunction="J7" toJunction="J5" end="240" vehsPerHour="29.270725404246765" departLane="free"/>
  <flow id="JF218547" begin="180" fromJunction="J7" toJunction="J6" end="240" vehsPerHour="30.417229771031447" departLane="free"/>
  <flow id="JF218548" begin="240" fromJunction="J3" toJunction="J4" end="300" vehsPerHour="25.20163542982854" departLane="free"/>
  <flow id="JF218549" begin="240" fromJunction="J3" toJunction="J5" end="300" vehsPerHour="14.183216805550225" departLane="free"/>
  <flow id="JF218550" begin="240" fromJunction="J3" toJunction="J6" end="300" vehsPerHour="32.798351009455885" departLane="free"/>
  <flow id="JF218551" begin="240" fromJunction="J3" toJunction="J7" end="300" vehsPerHour="59.54245228601299" departLane="free"/>
  <flow id="JF218552" begin="240" fromJunction="J4" toJunction="J3" end="300" vehsPerHour="1.5439744359870715" departLane="free"/>
  <flow id="JF218553" begin="240" fromJunction="J4" toJunction="J5" end="300" vehsPerHour="26.7736570594726" departLane="free"/>
  <flow id="JF218554" begin="240" fromJunction="J4" toJunction="J6" end="300" vehsPerHour="40.19013301567274" departLane="free"/>
  <flow id="JF218555" begin="240" fromJunction="J4" toJunction="J7" end="300" vehsPerHour="40.84003534765159" departLane="free"/>
  <flow id="JF218556" begin="240" fromJunction="J5" toJunction="J4" end="300" vehsPerHour="44.290555625622275" departLane="free"/>
  <flow id="JF218557" begin="240" fromJunction="J5" toJunction="J6" end="300" vehsPerHour="27.430737081282633" departLane="free"/>
  <flow id="JF218558" begin="240" fromJunction="J5" toJunction="J7" end="300" vehsPerHour="52.77551451066072" departLane="free"/>
  <flow id="JF218559" begin="240" fromJunction="J6" toJunction="J3" end="300" vehsPerHour="10.219862165283503" departLane="free"/>
  <flow id="JF218560" begin="240" fromJunction="J6" toJunction="J7" end="300" vehsPerHour="3.565281921915509" departLane="free"/>
  <flow id="JF218561" begin="240" fromJunction="J7" toJunction="J0" end="300" vehsPerHour="46.378940253376804" departLane="free"/>
  <flow id="JF218562" begin="240" fromJunction="J7" toJunction="J3" end="300" vehsPerHour="46.269479422066816" departLane="free"/>
  <flow id="JF218563" begin="240" fromJunction="J7" toJunction="J4" end="300" vehsPerHour="48.28589252373207" departLane="free"/>
  <flow id="JF218564" begin="240" fromJunction="J7" toJunction="J5" end="300" vehsPerHour="41.591748840418646" departLane="free"/>
  <flow id="JF218565" begin="240" fromJunction="J7" toJunction="J6" end="300" vehsPerHour="32.03803780889577" departLane="free"/>
  <flow id="JF218566" begin="300" fromJunction="J0" toJunction="J4" end="360" vehsPerHour="47.17776680724477" departLane="free"/>
  <flow id="JF218567" begin="300" fromJunction="J0" toJunction="J5" end="360" vehsPerHour="5.018823534341804" departLane="free"/>
  <flow id="JF218568" begin="300" fromJunction="J0" toJunction="J6" end="360" vehsPerHour="122.92557914708622" departLane="free"/>
  <flow id="JF218569" begin="300" fromJunction="J0" toJunction="J7" end="360" vehsPerHour="83.26162826917631" departLane="free"/>
  <flow id="JF218570" begin="300" fromJunction="J3" toJunction="J4" end="360" vehsPerHour="16.253228488261517" departLane="free"/>
  <flow id="JF218571" begin="300" fromJunction="J3" toJunction="J6" end="360" vehsPerHour="102.67687052501418" departLane="free"/>
  <flow id="JF218572" begin="300" fromJunction="J3" toJunction="J7" end="360" vehsPerHour="97.44532976278414" departLane="free"/>
  <flow id="JF218573" begin="300" fromJunction="J4" toJunction="J0" end="360" vehsPerHour="19.36158915637967" departLane="free"/>
  <flow id="JF218574" begin="300" fromJunction="J4" toJunction="J3" end="360" vehsPerHour="59.031439483639936" departLane="free"/>
  <flow id="JF218575" begin="300" fromJunction="J4" toJunction="J5" end="360" vehsPerHour="26.394130604741353" departLane="free"/>
  <flow id="JF218576" begin="300" fromJunction="J5" toJunction="J3" end="360" vehsPerHour="7.889863944820427" departLane="free"/>
  <flow id="JF218577" begin="300" fromJunction="J5" toJunction="J4" end="360" vehsPerHour="34.40903973578413" departLane="free"/>
  <flow id="JF218578" begin="300" fromJunction="J5" toJunction="J6" end="360" vehsPerHour="53.076005668965976" departLane="free"/>
  <flow id="JF218579" begin="300" fromJunction="J6" toJunction="J3" end="360" vehsPerHour="21.354814437922865" departLane="free"/>
  <flow id="JF218580" begin="300" fromJunction="J6" toJunction="J5" end="360" vehsPerHour="0.2721542103544566" departLane="free"/>
  <flow id="JF218581" begin="300" fromJunction="J6" toJunction="J7" end="360" vehsPerHour="15.076921477960607" departLane="free"/>
  <flow id="JF218582" begin="300" fromJunction="J7" toJunction="J0" end="360" vehsPerHour="1.7722153696223188" departLane="free"/>
  <flow id="JF218583" begin="300" fromJunction="J7" toJunction="J3" end="360" vehsPerHour="29.485074818191894" departLane="free"/>
  <flow id="JF218584" begin="300" fromJunction="J7" toJunction="J4" end="360" vehsPerHour="46.5182571150609" departLane="free"/>
  <flow id="JF218585" begin="300" fromJunction="J7" toJunction="J6" end="360" vehsPerHour="45.79755137750459" departLane="free"/>
  <flow id="JF218586" begin="360" fromJunction="J0" toJunction="J3" end="420" vehsPerHour="79.71945571645335" departLane="free"/>
  <flow id="JF218587" begin="360" fromJunction="J0" toJunction="J4" end="420" vehsPerHour="44.60123035070114" departLane="free"/>
  <flow id="JF218588" begin="360" fromJunction="J0" toJunction="J6" end="420" vehsPerHour="125.56087871982686" departLane="free"/>
  <flow id="JF218589" begin="360" fromJunction="J0" toJunction="J7" end="420" vehsPerHour="37.53114609646759" departLane="free"/>
  <flow id="JF218590" begin="360" fromJunction="J3" toJunction="J6" end="420" vehsPerHour="90.5631540298316" departLane="free"/>
  <flow id="JF218591" begin="360" fromJunction="J4" toJunction="J0" end="420" vehsPerHour="8.743637985787739" departLane="free"/>
  <flow id="JF218592" begin="360" fromJunction="J4" toJunction="J3" end="420" vehsPerHour="43.33484394888423" departLane="free"/>
  <flow id="JF218593" begin="360" fromJunction="J4" toJunction="J5" end="420" vehsPerHour="40.18577937088755" departLane="free"/>
  <flow id="JF218594" begin="360" fromJunction="J4" toJunction="J7" end="420" vehsPerHour="47.84651636827017" departLane="free"/>
  <flow id="JF218595" begin="360" fromJunction="J5" toJunction="J3" end="420" vehsPerHour="16.6684829661872" departLane="free"/>
  <flow id="JF218596" begin="360" fromJunction="J5" toJunction="J7" end="420" vehsPerHour="36.995941709683166" departLane="free"/>
  <flow id="JF218597" begin="360" fromJunction="J6" toJunction="J0" end="420" vehsPerHour="65.96812522896552" departLane="free"/>
  <flow id="JF218598" begin="360" fromJunction="J6" toJunction="J3" end="420" vehsPerHour="23.796242215052096" departLane="free"/>
  <flow id="JF218599" begin="360" fromJunction="J6" toJunction="J4" end="420" vehsPerHour="8.919166594330932" departLane="free"/>
  <flow id="JF218600" begin="360" fromJunction="J6" toJunction="J5" end="420" vehsPerHour="44.9785077456378" departLane="free"/>
  <flow id="JF218601" begin="360" fromJunction="J7" toJunction="J0" end="420" vehsPerHour="11.285642704305456" departLane="free"/>
  <flow id="JF218602" begin="360" fromJunction="J7" toJunction="J3" end="420" vehsPerHour="2.748892567693809" departLane="free"/>
  <flow id="JF218603" begin="360" fromJunction="J7" toJunction="J4" end="420" vehsPerHour="2.566366179755239" departLane="free"/>
  <flow id="JF218604" begin="360" fromJunction="J7" toJunction="J5" end="420" vehsPerHour="21.592559608607786" departLane="free"/>
  <flow id="JF218605" begin="360" fromJunction="J7" toJunction="J6" end="420" vehsPerHour="40.97385223030289" departLane="free"/>
  <flow id="JF218606" begin="420" fromJunction="J0" toJunction="J3" end="480" vehsPerHour="59.56160450081039" departLane="free"/>
  <flow id="JF218607" begin="420" fromJunction="J0" toJunction="J6" end="480" vehsPerHour="31.28154708525711" departLane="free"/>
  <flow id="JF218608" begin="420" fromJunction="J0" toJunction="J7" end="480" vehsPerHour="89.93290153225328" departLane="free"/>
  <flow id="JF218609" begin="420" fromJunction="J3" toJunction="J5" end="480" vehsPerHour="81.15045206874764" departLane="free"/>
  <flow id="JF218610" begin="420" fromJunction="J3" toJunction="J6" end="480" vehsPerHour="113.01445447805611" departLane="free"/>
  <flow id="JF218611" begin="420" fromJunction="J3" toJunction="J7" end="480" vehsPerHour="23.184207647821445" departLane="free"/>
  <flow id="JF218612" begin="420" fromJunction="J4" toJunction="J0" end="480" vehsPerHour="18.015612180323433" departLane="free"/>
  <flow id="JF218613" begin="420" fromJunction="J4" toJunction="J3" end="480" vehsPerHour="36.78573046157813" departLane="free"/>
  <flow id="JF218614" begin="420" fromJunction="J4" toJunction="J6" end="480" vehsPerHour="7.630565637864477" departLane="free"/>
  <flow id="JF218615" begin="420" fromJunction="J4" toJunction="J7" end="480" vehsPerHour="26.58651363482392" departLane="free"/>
  <flow id="JF218616" begin="420" fromJunction="J5" toJunction="J0" end="480" vehsPerHour="4.884596625763226" departLane="free"/>
  <flow id="JF218617" begin="420" fromJunction="J5" toJunction="J3" end="480" vehsPerHour="17.30400366974966" departLane="free"/>
  <flow id="JF218618" begin="420" fromJunction="J5" toJunction="J4" end="480" vehsPerHour="44.904107182182564" departLane="free"/>
  <flow id="JF218619" begin="420" fromJunction="J5" toJunction="J6" end="480" vehsPerHour="52.841900446047525" departLane="free"/>
  <flow id="JF218620" begin="420" fromJunction="J6" toJunction="J3" end="480" vehsPerHour="29.272040711952293" departLane="free"/>
  <flow id="JF218621" begin="420" fromJunction="J6" toJunction="J4" end="480" vehsPerHour="14.25177072035247" departLane="free"/>
  <flow id="JF218622" begin="420" fromJunction="J6" toJunction="J5" end="480" vehsPerHour="0.5451909835378921" departLane="free"/>
  <flow id="JF218623" begin="420" fromJunction="J6" toJunction="J7" end="480" vehsPerHour="57.37919724609247" departLane="free"/>
  <flow id="JF218624" begin="420" fromJunction="J7" toJunction="J0" end="480" vehsPerHour="54.26737284128314" departLane="free"/>
  <flow id="JF218625" begin="420" fromJunction="J7" toJunction="J3" end="480" vehsPerHour="48.13139914903919" departLane="free"/>
  <flow id="JF218626" begin="420" fromJunction="J7" toJunction="J6" end="480" vehsPerHour="3.1231058800718396" departLane="free"/>
  <flow id="JF218627" begin="480" fromJunction="J0" toJunction="J4" end="540" vehsPerHour="42.961389293596454" departLane="free"/>
  <flow id="JF218628" begin="480" fromJunction="J0" toJunction="J5" end="540" vehsPerHour="80.9608377656615" departLane="free"/>
  <flow id="JF218629" begin="480" fromJunction="J0" toJunction="J7" end="540" vehsPerHour="3.583993448123198" departLane="free"/>
  <flow id="JF218630" begin="480" fromJunction="J3" toJunction="J0" end="540" vehsPerHour="122.91435078017865" departLane="free"/>
  <flow id="JF218631" begin="480" fromJunction="J3" toJunction="J4" end="540" vehsPerHour="99.45561480346862" departLane="free"/>
  <flow id="JF218632" begin="480" fromJunction="J3" toJunction="J5" end="540" vehsPerHour="60.18354602915015" departLane="free"/>
  <flow id="JF218633" begin="480" fromJunction="J3" toJunction="J6" end="540" vehsPerHour="137.32826461498516" departLane="free"/>
  <flow id="JF218634" begin="480" fromJunction="J3" toJunction="J7" end="540" vehsPerHour="51.26996181142887" departLane="free"/>
  <flow id="JF218635" begin="480" fromJunction="J4" toJunction="J0" end="540" vehsPerHour="14.647136685063396" departLane="free"/>
  <flow id="JF218636" begin="480" fromJunction="J4" toJunction="J6" end="540" vehsPerHour="44.3197621505911" departLane="free"/>
  <flow id="JF218637" begin="480" fromJunction="J5" toJunction="J4" end="540" vehsPerHour="21.161461675882588" departLane="free"/>
  <flow id="JF218638" begin="480" fromJunction="J5" toJunction="J6" end="540" vehsPerHour="32.9468008342894" departLane="free"/>
  <flow id="JF218639" begin="480" fromJunction="J5" toJunction="J7" end="540" vehsPerHour="51.27932858629943" departLane="free"/>
  <flow id="JF218640" begin="480" fromJunction="J6" toJunction="J0" end="540" vehsPerHour="31.34200823510509" departLane="free"/>
  <flow id="JF218641" begin="480" fromJunction="J6" toJunction="J3" end="540" vehsPerHour="17.155590284839345" departLane="free"/>
  <flow id="JF218642" begin="480" fromJunction="J6" toJunction="J4" end="540" vehsPerHour="60.96634786993689" departLane="free"/>
  <flow id="JF218643" begin="480" fromJunction="J6" toJunction="J5" end="540" vehsPerHour="4.900239298278195" departLane="free"/>
  <flow id="JF218644" begin="480" fromJunction="J6" toJunction="J7" end="540" vehsPerHour="16.876451088454537" departLane="free"/>
  <flow id="JF218645" begin="480" fromJunction="J7" toJunction="J0" end="540" vehsPerHour="48.0742070291758" departLane="free"/>
  <flow id="JF218646" begin="480" fromJunction="J7" toJunction="J4" end="540" vehsPerHour="52.97467069066341" departLane="free"/>
  <flow id="JF218647" begin="480" fromJunction="J7" toJunction="J5" end="540" vehsPerHour="43.660269596089286" departLane="free"/>
  <flow id="JF218648" begin="480" fromJunction="J7" toJunction="J6" end="540" vehsPerHour="65.70388443106916" departLane="free"/>
  <flow id="JF218649" begin="540" fromJunction="J0" toJunction="J4" end="600" vehsPerHour="17.808811314058634" departLane="free"/>
  <flow id="JF218650" begin="540" fromJunction="J0" toJunction="J5" end="600" vehsPerHour="35.253095385014674" departLane="free"/>
  <flow id="JF218651" begin="540" fromJunction="J0" toJunction="J6" end="600" vehsPerHour="35.31251889672676" departLane="free"/>
  <flow id="JF218652" begin="540" fromJunction="J0" toJunction="J7" end="600" vehsPerHour="123.33807667821355" departLane="free"/>
  <flow id="JF218653" begin="540" fromJunction="J3" toJunction="J4" end="600" vehsPerHour="93.88490158927569" departLane="free"/>
  <flow id="JF218654" begin="540" fromJunction="J3" toJunction="J5" end="600" vehsPerHour="90.69359565188523" departLane="free"/>
  <flow id="JF218655" begin="540" fromJunction="J3" toJunction="J6" end="600" vehsPerHour="60.796558571846184" departLane="free"/>
  <flow id="JF218656" begin="540" fromJunction="J3" toJunction="J7" end="600" vehsPerHour="114.55374531961282" departLane="free"/>
  <flow id="JF218657" begin="540" fromJunction="J4" toJunction="J0" end="600" vehsPerHour="43.92483449681444" departLane="free"/>
  <flow id="JF218658" begin="540" fromJunction="J4" toJunction="J5" end="600" vehsPerHour="49.35589630182667" departLane="free"/>
  <flow id="JF218659" begin="540" fromJunction="J4" toJunction="J6" end="600" vehsPerHour="54.69047153527494" departLane="free"/>
  <flow id="JF218660" begin="540" fromJunction="J4" toJunction="J7" end="600" vehsPerHour="30.432525277989004" departLane="free"/>
  <flow id="JF218661" begin="540" fromJunction="J5" toJunction="J0" end="600" vehsPerHour="45.1449222865446" departLane="free"/>
  <flow id="JF218662" begin="540" fromJunction="J5" toJunction="J3" end="600" vehsPerHour="50.12808972289213" departLane="free"/>
  <flow id="JF218663" begin="540" fromJunction="J5" toJunction="J4" end="600" vehsPerHour="63.200280757781954" departLane="free"/>
  <flow id="JF218664" begin="540" fromJunction="J5" toJunction="J6" end="600" vehsPerHour="51.75660476052193" departLane="free"/>
  <flow id="JF218665" begin="540" fromJunction="J5" toJunction="J7" end="600" vehsPerHour="44.75044244767853" departLane="free"/>
  <flow id="JF218666" begin="540" fromJunction="J6" toJunction="J0" end="600" vehsPerHour="40.94239048410283" departLane="free"/>
  <flow id="JF218667" begin="540" fromJunction="J6" toJunction="J3" end="600" vehsPerHour="36.64548921033242" departLane="free"/>
  <flow id="JF218668" begin="540" fromJunction="J6" toJunction="J4" end="600" vehsPerHour="24.657507478396806" departLane="free"/>
  <flow id="JF218669" begin="540" fromJunction="J6" toJunction="J5" end="600" vehsPerHour="58.68047916139136" departLane="free"/>
  <flow id="JF218670" begin="540" fromJunction="J6" toJunction="J7" end="600" vehsPerHour="25.353567542092424" departLane="free"/>
  <flow id="JF218671" begin="540" fromJunction="J7" toJunction="J3" end="600" vehsPerHour="48.093423414765766" departLane="free"/>
  <flow id="JF218672" begin="540" fromJunction="J7" toJunction="J4" end="600" vehsPerHour="7.000568793374666" departLane="free"/>
  <flow id="JF218673" begin="540" fromJunction="J7" toJunction="J5" end="600" vehsPerHour="2.1302526741831387" departLane="free"/>
  <flow id="JF218674" begin="540" fromJunction="J7" toJunction="J6" end="600" vehsPerHour="21.468718406732076" departLane="free"/>
  <flow id="JF218675" begin="600" fromJunction="J0" toJunction="J3" end="660" vehsPerHour="20.581841769060294" departLane="free"/>
  <flow id="JF218676" begin="600" fromJunction="J0" toJunction="J4" end="660" vehsPerHour="53.67831161253228" departLane="free"/>
  <flow id="JF218677" begin="600" fromJunction="J0" toJunction="J6" end="660" vehsPerHour="5.892060140631023" departLane="free"/>
  <flow id="JF218678" begin="600" fromJunction="J0" toJunction="J7" end="660" vehsPerHour="122.79845588821316" departLane="free"/>
  <flow id="JF218679" begin="600" fromJunction="J3" toJunction="J0" end="660" vehsPerHour="16.3551010580412" departLane="free"/>
  <flow id="JF218680" begin="600" fromJunction="J3" toJunction="J4" end="660" vehsPerHour="14.97226880307758" departLane="free"/>
  <flow id="JF218681" begin="600" fromJunction="J3" toJunction="J6" end="660" vehsPerHour="25.70427264739395" departLane="free"/>
  <flow id="JF218682" begin="600" fromJunction="J3" toJunction="J7" end="660" vehsPerHour="0.8326951360702556" departLane="free"/>
  <flow id="JF218683" begin="600" fromJunction="J4" toJunction="J3" end="660" vehsPerHour="0.42477570023426586" departLane="free"/>
  <flow id="JF218684" begin="600" fromJunction="J4" toJunction="J5" end="660" vehsPerHour="28.854864679246763" departLane="free"/>
  <flow id="JF218685" begin="600" fromJunction="J4" toJunction="J7" end="660" vehsPerHour="65.79875993092307" departLane="free"/>
  <flow id="JF218686" begin="600" fromJunction="J5" toJunction="J0" end="660" vehsPerHour="24.7274021095732" departLane="free"/>
  <flow id="JF218687" begin="600" fromJunction="J5" toJunction="J3" end="660" vehsPerHour="16.4785697071746" departLane="free"/>
  <flow id="JF218688" begin="600" fromJunction="J5" toJunction="J4" end="660" vehsPerHour="55.85505710983736" departLane="free"/>
  <flow id="JF218689" begin="600" fromJunction="J6" toJunction="J0" end="660" vehsPerHour="4.94652171399445" departLane="free"/>
  <flow id="JF218690" begin="600" fromJunction="J6" toJunction="J5" end="660" vehsPerHour="23.025188743315532" departLane="free"/>
  <flow id="JF218691" begin="600" fromJunction="J7" toJunction="J4" end="660" vehsPerHour="30.068167058093998" departLane="free"/>