<?xml version="1.0" encoding="UTF-8"?>
<routes xmlns:xsi="http://www.w3.org/2001/XMLSchema-instance" xsi:noNamespaceSchemaLocation="http://sumo.dlr.de/xsd/routes_file.xsd">
  <flow id="JF68973" begin="0" fromJunction="J3" toJunction="J0" end="60" vehsPerHour="338.8515279967475"/>
  <flow id="JF68974" begin="0" fromJunction="J0" toJunction="J3" end="60" vehsPerHour="196.94344731596885"/>
  <flow id="JF68975" begin="0" fromJunction="J3" toJunction="J4" end="60" vehsPerHour="6.153782346221307"/>
  <flow id="JF68976" begin="0" fromJunction="J3" toJunction="J2" end="60" vehsPerHour="81.91772683549372"/>
  <flow id="JF68977" begin="0" fromJunction="J0" toJunction="J4" end="60" vehsPerHour="32.39863952470926"/>
  <flow id="JF68978" begin="0" fromJunction="J0" toJunction="J2" end="60" vehsPerHour="72.90213024015361"/>
  <flow id="JF68979" begin="0" fromJunction="J4" toJunction="J2" end="60" vehsPerHour="87.12094682032253"/>
  <flow id="JF68980" begin="0" fromJunction="J2" toJunction="J4" end="60" vehsPerHour="101.44705968764391"/>
  <flow id="JF68981" begin="0" fromJunction="J4" toJunction="J3" end="60" vehsPerHour="76.2720070661301"/>
  <flow id="JF68982" begin="0" fromJunction="J4" toJunction="J0" end="60" vehsPerHour="10.058319881800676"/>
  <flow id="JF68983" begin="0" fromJunction="J2" toJunction="J3" end="60" vehsPerHour="55.49218916697761"/>
  <flow id="JF68984" begin="0" fromJunction="J2" toJunction="J0" end="60" vehsPerHour="54.96097670702188"/>
  <flow id="JF68985" begin="60" fromJunction="J3" toJunction="J0" end="120" vehsPerHour="543.1885328662997"/>
  <flow id="JF68986" begin="60" fromJunction="J0" toJunction="J3" end="120" vehsPerHour="438.37067795498245"/>
  <flow id="JF68987" begin="60" fromJunction="J3" toJunction="J4" end="120" vehsPerHour="35.3813021375887"/>
  <flow id="JF68988" begin="60" fromJunction="J3" toJunction="J2" end="120" vehsPerHour="1.3594335263578237"/>
  <flow id="JF68989" begin="60" fromJunction="J0" toJunction="J4" end="120" vehsPerHour="47.780405574368665"/>
  <flow id="JF68990" begin="60" fromJunction="J0" toJunction="J2" end="120" vehsPerHour="105.6963279083408"/>
  <flow id="JF68991" begin="60" fromJunction="J4" toJunction="J2" end="120" vehsPerHour="73.95735225047956"/>
  <flow id="JF68992" begin="60" fromJunction="J2" toJunction="J4" end="120" vehsPerHour="65.79804774155477"/>
  <flow id="JF68993" begin="60" fromJunction="J4" toJunction="J3" end="120" vehsPerHour="33.31110925416813"/>
  <flow id="JF68994" begin="60" fromJunction="J4" toJunction="J0" end="120" vehsPerHour="132.44248032107782"/>
  <flow id="JF68995" begin="60" fromJunction="J2" toJunction="J3" end="120" vehsPerHour="104.99643777683309"/>
  <flow id="JF68996" begin="60" fromJunction="J2" toJunction="J0" end="120" vehsPerHour="13.45770890636159"/>
  <flow id="JF68997" begin="120" fromJunction="J3" toJunction="J0" end="180" vehsPerHour="179.11155105548022"/>
  <flow id="JF68998" begin="120" fromJunction="J0" toJunction="J3" end="180" vehsPerHour="62.65637878141159"/>
  <flow id="JF68999" begin="120" fromJunction="J3" toJunction="J4" end="180" vehsPerHour="26.52158904818366"/>
  <flow id="JF69000" begin="120" fromJunction="J3" toJunction="J2" end="180" vehsPerHour="50.90585082663257"/>
  <flow id="JF69001" begin="120" fromJunction="J0" toJunction="J4" end="180" vehsPerHour="73.74117385959403"/>
  <flow id="JF69002" begin="120" fromJunction="J0" toJunction="J2" end="180" vehsPerHour="32.26801065618543"/>
  <flow id="JF69003" begin="120" fromJunction="J4" toJunction="J2" end="180" vehsPerHour="11.450950252263672"/>
  <flow id="JF69004" begin="120" fromJunction="J2" toJunction="J4" end="180" vehsPerHour="83.02687768165794"/>
  <flow id="JF69005" begin="120" fromJunction="J4" toJunction="J3" end="180" vehsPerHour="75.05825617497104"/>
  <flow id="JF69006" begin="120" fromJunction="J4" toJunction="J0" end="180" vehsPerHour="78.19488852377563"/>
  <flow id="JF69007" begin="120" fromJunction="J2" toJunction="J3" end="180" vehsPerHour="0.5890899803905937"/>
  <flow id="JF69008" begin="120" fromJunction="J2" toJunction="J0" end="180" vehsPerHour="56.82755183590289"/>
  <flow id="JF69009" begin="180" fromJunction="J3" toJunction="J0" end="240" vehsPerHour="177.2608545324302"/>
  <flow id="JF69010" begin="180" fromJunction="J0" toJunction="J3" end="240" vehsPerHour="299.999918825917"/>
  <flow id="JF69011" begin="180" fromJunction="J3" toJunction="J4" end="240" vehsPerHour="67.42494339788554"/>
  <flow id="JF69012" begin="180" fromJunction="J3" toJunction="J2" end="240" vehsPerHour="75.42692438865252"/>
  <flow id="JF69013" begin="180" fromJunction="J0" toJunction="J4" end="240" vehsPerHour="9.508982228648572"/>
  <flow id="JF69014" begin="180" fromJunction="J0" toJunction="J2" end="240" vehsPerHour="24.810579008274004"/>
  <flow id="JF69015" begin="180" fromJunction="J4" toJunction="J2" end="240" vehsPerHour="59.25506420407895"/>
  <flow id="JF69016" begin="180" fromJunction="J2" toJunction="J4" end="240" vehsPerHour="42.38165624762227"/>
  <flow id="JF69017" begin="180" fromJunction="J4" toJunction="J3" end="240" vehsPerHour="118.05769322075452"/>
  <flow id="JF69018" begin="180" fromJunction="J4" toJunction="J0" end="240" vehsPerHour="19.724156233910527"/>
  <flow id="JF69019" begin="180" fromJunction="J2" toJunction="J3" end="240" vehsPerHour="85.66367078509019"/>
  <flow id="JF69020" begin="180" fromJunction="J2" toJunction="J0" end="240" vehsPerHour="123.12584897808324"/>
  <flow id="JF69021" begin="240" fromJunction="J3" toJunction="J0" end="300" vehsPerHour="206.6168930422374"/>
  <flow id="JF69022" begin="240" fromJunction="J0" toJunction="J3" end="300" vehsPerHour="380.099178840346"/>
  <flow id="JF69023" begin="240" fromJunction="J3" toJunction="J4" end="300" vehsPerHour="117.20419989699873"/>
  <flow id="JF69024" begin="240" fromJunction="J3" toJunction="J2" end="300" vehsPerHour="78.01334765966801"/>
  <flow id="JF69025" begin="240" fromJunction="J0" toJunction="J4" end="300" vehsPerHour="25.864838496323618"/>
  <flow id="JF69026" begin="240" fromJunction="J0" toJunction="J2" end="300" vehsPerHour="32.0306765738826"/>
  <flow id="JF69027" begin="240" fromJunction="J4" toJunction="J2" end="300" vehsPerHour="82.61622195390682"/>
  <flow id="JF69028" begin="240" fromJunction="J2" toJunction="J4" end="300" vehsPerHour="135.95047014047867"/>
  <flow id="JF69029" begin="240" fromJunction="J4" toJunction="J3" end="300" vehsPerHour="136.97080706511156"/>
  <flow id="JF69030" begin="240" fromJunction="J4" toJunction="J0" end="300" vehsPerHour="103.8247096353518"/>
  <flow id="JF69031" begin="240" fromJunction="J2" toJunction="J3" end="300" vehsPerHour="105.21707717602888"/>
  <flow id="JF69032" begin="240" fromJunction="J2" toJunction="J0" end="300" vehsPerHour="68.6314000442075"/>
  <flow id="JF69033" begin="300" fromJunction="J3" toJunction="J0" end="360" vehsPerHour="398.851008415464"/>
  <flow id="JF69034" begin="300" fromJunction="J0" toJunction="J3" end="360" vehsPerHour="161.6398964549372"/>
  <flow id="JF69035" begin="300" fromJunction="J3" toJunction="J4" end="360" vehsPerHour="132.20105598884453"/>
  <flow id="JF69036" begin="300" fromJunction="J3" toJunction="J2" end="360" vehsPerHour="125.41733035296507"/>
  <flow id="JF69037" begin="300" fromJunction="J0" toJunction="J4" end="360" vehsPerHour="32.919033573022254"/>
  <flow id="JF69038" begin="300" fromJunction="J0" toJunction="J2" end="360" vehsPerHour="120.28582700365051"/>
  <flow id="JF69039" begin="300" fromJunction="J4" toJunction="J2" end="360" vehsPerHour="129.14055362130065"/>
  <flow id="JF69040" begin="300" fromJunction="J2" toJunction="J4" end="360" vehsPerHour="77.69094914489267"/>
  <flow id="JF69041" begin="300" fromJunction="J4" toJunction="J3" end="360" vehsPerHour="79.84346503322588"/>
  <flow id="JF69042" begin="300" fromJunction="J4" toJunction="J0" end="360" vehsPerHour="130.87695626484404"/>
  <flow id="JF69043" begin="300" fromJunction="J2" toJunction="J3" end="360" vehsPerHour="77.19211004618242"/>
  <flow id="JF69044" begin="300" fromJunction="J2" toJunction="J0" end="360" vehsPerHour="71.36592994224712"/>
  <flow id="JF69045" begin="360" fromJunction="J3" toJunction="J0" end="420" vehsPerHour="195.35918397088622"/>
  <flow id="JF69046" begin="360" fromJunction="J0" toJunction="J3" end="420" vehsPerHour="483.30657765400167"/>
  <flow id="JF69047" begin="360" fromJunction="J3" toJunction="J4" end="420" vehsPerHour="93.37161713018556"/>
  <flow id="JF69048" begin="360" fromJunction="J3" toJunction="J2" end="420" vehsPerHour="3.770959961930518"/>
  <flow id="JF69049" begin="360" fromJunction="J0" toJunction="J4" end="420" vehsPerHour="87.86483626464911"/>
  <flow id="JF69050" begin="360" fromJunction="J0" toJunction="J2" end="420" vehsPerHour="2.3429390419460554"/>
  <flow id="JF69051" begin="360" fromJunction="J4" toJunction="J2" end="420" vehsPerHour="75.81866197954977"/>
  <flow id="JF69052" begin="360" fromJunction="J2" toJunction="J4" end="420" vehsPerHour="17.629402205618312"/>
  <flow id="JF69053" begin="360" fromJunction="J4" toJunction="J3" end="420" vehsPerHour="8.065986783357431"/>
  <flow id="JF69054" begin="360" fromJunction="J4" toJunction="J0" end="420" vehsPerHour="10.18304327133133"/>
  <flow id="JF69055" begin="360" fromJunction="J2" toJunction="J3" end="420" vehsPerHour="41.79857969624719"/>
  <flow id="JF69056" begin="360" fromJunction="J2" toJunction="J0" end="420" vehsPerHour="127.35590554773097"/>
  <flow id="JF69057" begin="420" fromJunction="J3" toJunction="J0" end="480" vehsPerHour="155.00529314503285"/>
  <flow id="JF69058" begin="420" fromJunction="J0" toJunction="J3" end="480" vehsPerHour="244.558739256552"/>
  <flow id="JF69059" begin="420" fromJunction="J3" toJunction="J4" end="480" vehsPerHour="14.268153008190152"/>
  <flow id="JF69060" begin="420" fromJunction="J3" toJunction="J2" end="480" vehsPerHour="20.608096576793706"/>
  <flow id="JF69061" begin="420" fromJunction="J0" toJunction="J4" end="480" vehsPerHour="99.63046566024182"/>
  <flow id="JF69062" begin="420" fromJunction="J0" toJunction="J2" end="480" vehsPerHour="49.88677765146532"/>
  <flow id="JF69063" begin="480" fromJunction="J3" toJunction="J0" end="540" vehsPerHour="68.61807581931009"/>
  <flow id="JF69064" begin="480" fromJunction="J0" toJunction="J3" end="540" vehsPerHour="4.67701786743351"/>
  <flow id="JF69065" begin="480" fromJunction="J3" toJunction="J4" end="540" vehsPerHour="117.40125034189579"/>
  <flow id="JF69066" begin="480" fromJunction="J3" toJunction="J2" end="540" vehsPerHour="97.14809419364772"/>
  <flow id="JF69067" begin="480" fromJunction="J0" toJunction="J4" end="540" vehsPerHour="78.58242457757324"/>
  <flow id="JF69068" begin="480" fromJunction="J0" toJunction="J2" end="540" vehsPerHour="71.42257041547225"/>
  <flow id="JF69069" begin="480" fromJunction="J4" toJunction="J2" end="540" vehsPerHour="90.29341852087036"/>
  <flow id="JF69070" begin="480" fromJunction="J2" toJunction="J4" end="540" vehsPerHour="53.99427391660744"/>
  <flow id="JF69071" begin="480" fromJunction="J4" toJunction="J3" end="540" vehsPerHour="135.47263711519426"/>
  <flow id="JF69072" begin="480" fromJunction="J4" toJunction="J0" end="540" vehsPerHour="111.3792564883876"/>
  <flow id="JF69073" begin="480" fromJunction="J2" toJunction="J3" end="540" vehsPerHour="30.4974094103803"/>
  <flow id="JF69074" begin="480" fromJunction="J2" toJunction="J0" end="540" vehsPerHour="86.81669429784327"/>
  <flow id="JF69075" begin="540" fromJunction="J3" toJunction="J0" end="600" vehsPerHour="217.25266879940412"/>
  <flow id="JF69076" begin="540" fromJunction="J0" toJunction="J3" end="600" vehsPerHour="306.1059937493901"/>
  <flow id="JF69077" begin="540" fromJunction="J3" toJunction="J4" end="600" vehsPerHour="132.59379849805055"/>
  <flow id="JF69078" begin="540" fromJunction="J3" toJunction="J2" end="600" vehsPerHour="34.48453353110332"/>
  <flow id="JF69079" begin="540" fromJunction="J0" toJunction="J4" end="600" vehsPerHour="103.92795545435898"/>
  <flow id="JF69080" begin="540" fromJunction="J0" toJunction="J2" end="600" vehsPerHour="13.831201915156962"/>
  <flow id="JF69081" begin="540" fromJunction="J4" toJunction="J2" end="600" vehsPerHour="28.22071774257952"/>
  <flow id="JF69082" begin="540" fromJunction="J2" toJunction="J4" end="600" vehsPerHour="41.394201306743845"/>
  <flow id="JF69083" begin="540" fromJunction="J4" toJunction="J3" end="600" vehsPerHour="77.26518851200116"/>
  <flow id="JF69084" begin="540" fromJunction="J4" toJunction="J0" end="600" vehsPerHour="75.07728217284648"/>
  <flow id="JF69085" begin="540" fromJunction="J2" toJunction="J3" end="600" vehsPerHour="62.876660941089526"/>
  <flow id="JF69086" begin="540" fromJunction="J2" toJunction="J0" end="600" vehsPerHour="104.24456689942392"/>
  <flow id="JF69087" begin="600" fromJunction="J3" toJunction="J0" end="660" vehsPerHour="383.4476594470412"/>
  <flow id="JF69088" begin="600" fromJunction="J0" toJunction="J3" end="660" vehsPerHour="186.41306350243303"/>
  <flow id="JF69089" begin="600" fromJunction="J3" toJunction="J4" end="660" vehsPerHour="110.82876149837435"/>
  <flow id="JF69090" begin="600" fromJunction="J3" toJunction="J2" end="660" vehsPerHour="53.217922420193695"/>
  <flow id="JF69091" begin="600" fromJunction="J0" toJunction="J4" end="660" vehsPerHour="117.37968292361528"/>
  <flow id="JF69092" begin="600" fromJunction="J0" toJunction="J2" end="660" vehsPerHour="109.49492330386279"/>
  <flow id="JF69093" begin="600" fromJunction="J4" toJunction="J2" end="660" vehsPerHour="7.450204477953463"/>
  <flow id="JF69094" begin="600" fromJunction="J2" toJunction="J4" end="660" vehsPerHour="131.78348128398014"/>
  <flow id="JF69095" begin="600" fromJunction="J4" toJunction="J3" end="660" vehsPerHour="135.5129707654342"/>
  <flow id="JF69096" begin="600" fromJunction="J4" toJunction="J0" end="660" vehsPerHour="93.17536279521276"/>
  <flow id="JF69097" begin="600" fromJunction="J2" toJunction="J3" end="660" vehsPerHour="68.01944849276556"/>
  <flow id="JF69098" begin="600" fromJunction="J2" toJunction="J0" end="660" vehsPerHour="62.994945279336015"/>
  <flow id="JF69099" begin="660" fromJunction="J3" toJunction="J0" end="720" vehsPerHour="169.1125674370042"/>
  <flow id="JF69100" begin="660" fromJunction="J0" toJunction="J3" end="720" vehsPerHour="527.7026828170851"/>
  <flow id="JF69101" begin="660" fromJunction="J3" toJunction="J4" end="720" vehsPerHour="91.33433950887937"/>
  <flow id="JF69102" begin="660" fromJunction="J3" toJunction="J2" end="720" vehsPerHour="81.77768575160103"/>
  <flow id="JF69103" begin="660" fromJunction="J0" toJunction="J4" end="720" vehsPerHour="86.00356701170668"/>
  <flow id="JF69104" begin="660" fromJunction="J0" toJunction="J2" end="720" vehsPerHour="39.054527871349656"/>
  <flow id="JF69105" begin="660" fromJunction="J4" toJunction="J2" end="720" vehsPerHour="14.618119195037234"/>
  <flow id="JF69106" begin="660" fromJunction="J2" toJunction="J4" end="720" vehsPerHour="34.695953780241396"/>
  <flow id="JF69107" begin="660" fromJunction="J4" toJunction="J3" end="720" vehsPerHour="81.14199782586925"/>
  <flow id="JF69108" begin="660" fromJunction="J4" toJunction="J0" end="720" vehsPerHour="95.80799583453577"/>
  <flow id="JF69109" begin="660" fromJunction="J2" toJunction="J3" end="720" vehsPerHour="88.47627163415623"/>
  <flow id="JF69110" begin="660" fromJunction="J2" toJunction="J0" end="720" vehsPerHour="15.523897989466468"/>
  <flow id="JF69111" begin="720" fromJunction="J3" toJunction="J0" end="780" vehsPerHour="317.4762664906059"/>
  <flow id="JF69112" begin="720" fromJunction="J0" toJunction="J3" end="780" vehsPerHour="430.7241659068096"/>
  <flow id="JF69113" begin="720" fromJunction="J3" toJunction="J4" end="780" vehsPerHour="13.220011449149496"/>
  <flow id="JF69114" begin="720" fromJunction="J3" toJunction="J2" end="780" vehsPerHour="137.25741663478257"/>
  <flow id="JF69115" begin="720" fromJunction="J0" toJunction="J4" end="780" vehsPerHour="63.922623423504845"/>
  <flow id="JF69116" begin="720" fromJunction="J0" toJunction="J2" end="780" vehsPerHour="133.31314925526792"/>
  <flow id="JF69117" begin="780" fromJunction="J3" toJunction="J0" end="840" vehsPerHour="65.04442359025477"/>
  <flow id="JF69118" begin="780" fromJunction="J0" toJunction="J3" end="840" vehsPerHour="63.67686461049878"/>
  <flow id="JF69119" begin="780" fromJunction="J3" toJunction="J4" end="840" vehsPerHour="68.10361324826445"/>
  <flow id="JF69120" begin="780" fromJunction="J3" toJunction="J2" end="840" vehsPerHour="32.96590966692643"/>
  <flow id="JF69121" begin="780" fromJunction="J0" toJunction="J4" end="840" vehsPerHour="127.50047872802647"/>
  <flow id="JF69122" begin="780" fromJunction="J0" toJunction="J2" end="840" vehsPerHour="47.06547932848399"/>
  <flow id="JF69123" begin="780" fromJunction="J4" toJunction="J2" end="840" vehsPerHour="41.81329511454355"/>
  <flow id="JF69124" begin="780" fromJunction="J2" toJunction="J4" end="840" vehsPerHour="1.9479903209616336"/>
  <flow id="JF69125" begin="780" fromJunction="J4" toJunction="J3" end="840" vehsPerHour="37.278934898834734"/>
  <flow id="JF69126" begin="780" fromJunction="J4" toJunction="J0" end="840" vehsPerHour="63.45862455194903"/>
  <flow id="JF69127" begin="780" fromJunction="J2" toJunction="J3" end="840" vehsPerHour="130.13990292015538"/>
  <flow id="JF69128" begin="780" fromJunction="J2" toJunction="J0" end="840" vehsPerHour="11.618526988643785"/>
  <flow id="JF69129" begin="840" fromJunction="J3" toJunction="J0" end="900" vehsPerHour="227.97072723274923"/>
  <flow id="JF69130" begin="840" fromJunction="J0" toJunction="J3" end="900" vehsPerHour="152.88684049777817"/>
  <flow id="JF69131" begin="840" fromJunction="J3" toJunction="J4" end="900" vehsPerHour="98.01036266871607"/>
  <flow id="JF69132" begin="840" fromJunction="J3" toJunction="J2" end="900" vehsPerHour="20.786465222032735"/>
  <flow id="JF69133" begin="840" fromJunction="J0" toJunction="J4" end="900" vehsPerHour="1.2665110406467726"/>
  <flow id="JF69134" begin="840" fromJunction="J0" toJunction="J2" end="900" vehsPerHour="73.70853711374878"/>
  <flow id="JF69135" begin="900" fromJunction="J3" toJunction="J0" end="960" vehsPerHour="368.7283761319513"/>
  <flow id="JF69136" begin="900" fromJunction="J0" toJunction="J3" end="960" vehsPerHour="183.79657208529423"/>
  <flow id="JF69137" begin="900" fromJunction="J3" toJunction="J4" end="960" vehsPerHour="5.713028802882429"/>
  <flow id="JF69138" begin="900" fromJunction="J3" toJunction="J2" end="960" vehsPerHour="42.39059100598599"/>
  <flow id="JF69139" begin="900" fromJunction="J0" toJunction="J4" end="960" vehsPerHour="83.63800128095097"/>
  <flow id="JF69140" begin="900" fromJunction="J0" toJunction="J2" end="960" vehsPerHour="92.49064077237702"/>
  <flow id="JF69141" begin="960" fromJunction="J3" toJunction="J0" end="1020" vehsPerHour="536.7425971966543"/>
  <flow id="JF69142" begin="960" fromJunction="J0" toJunction="J3" end="1020" vehsPerHour="208.92070333426972"/>
  <flow id="JF69143" begin="960" fromJunction="J3" toJunction="J4" end="1020" vehsPerHour="64.57850853981513"/>
  <flow id="JF69144" begin="960" fromJunction="J3" toJunction="J2" end="1020" vehsPerHour="54.27850850664149"/>
  <flow id="JF69145" begin="960" fromJunction="J0" toJunction="J4" end="1020" vehsPerHour="114.18258410339"/>
  <flow id="JF69146" begin="960" fromJunction="J0" toJunction="J2" end="1020" vehsPerHour="118.27743546365491"/>
  <flow id="JF69147" begin="960" fromJunction="J4" toJunction="J2" end="1020" vehsPerHour="47.803660922982814"/>
  <flow id="JF69148" begin="960" fromJunction="J2" toJunction="J4" end="1020" vehsPerHour="21.714767930516725"/>
  <flow id="JF69149" begin="960" fromJunction="J4" toJunction="J3" end="1020" vehsPerHour="19.60900182228851"/>
  <flow id="JF69150" begin="960" fromJunction="J4" toJunction="J0" end="1020" vehsPerHour="19.69578459643576"/>
  <flow id="JF69151" begin="960" fromJunction="J2" toJunction="J3" end="1020" vehsPerHour="105.57625827821872"/>
  <flow id="JF69152" begin="960" fromJunction="J2" toJunction="J0" end="1020" vehsPerHour="43.07044385757652"/>
  <flow id="JF69153" begin="1020" fromJunction="J3" toJunction="J0" end="1080" vehsPerHour="269.08857077730414"/>
  <flow id="JF69154" begin="1020" fromJunction="J0" toJunction="J3" end="1080" vehsPerHour="200.51370983497995"/>
  <flow id="JF69155" begin="1020" fromJunction="J3" toJunction="J4" end="1080" vehsPerHour="67.28892575283734"/>
  <flow id="JF69156" begin="1020" fromJunction="J3" toJunction="J2" end="1080" vehsPerHour="45.41792772174004"/>
  <flow id="JF69157" begin="1020" fromJunction="J0" toJunction="J4" end="1080" vehsPerHour="121.3534660797429"/>
  <flow id="JF69158" begin="1020" fromJunction="J0" toJunction="J2" end="1080" vehsPerHour="130.0959921073484"/>
  <flow id="JF69159" begin="1080" fromJunction="J3" toJunction="J0" end="1140" vehsPerHour="549.3947606048933"/>
  <flow id="JF69160" begin="1080" fromJunction="J0" toJunction="J3" end="1140" vehsPerHour="435.1663030960073"/>
  <flow id="JF69161" begin="1080" fromJunction="J3" toJunction="J4" end="1140" vehsPerHour="92.43774225598247"/>
  <flow id="JF69162" begin="1080" fromJunction="J3" toJunction="J2" end="1140" vehsPerHour="56.15501086139343"/>
  <flow id="JF69163" begin="1080" fromJunction="J0" toJunction="J4" end="1140" vehsPerHour="43.89093716793657"/>
  <flow id="JF69164" begin="1080" fromJunction="J0" toJunction="J2" end="1140" vehsPerHour="96.95321318417385"/>
  <flow id="JF69165" begin="1080" fromJunction="J4" toJunction="J2" end="1140" vehsPerHour="79.75681488579126"/>
  <flow id="JF69166" begin="1080" fromJunction="J2" toJunction="J4" end="1140" vehsPerHour="108.90839307342142"/>
  <flow id="JF69167" begin="1080" fromJunction="J4" toJunction="J3" end="1140" vehsPerHour="114.31522600613988"/>
  <flow id="JF69168" begin="1080" fromJunction="J4" toJunction="J0" end="1140" vehsPerHour="37.2623745455345"/>
  <flow id="JF69169" begin="1080" fromJunction="J2" toJunction="J3" end="1140" vehsPerHour="64.1612678082765"/>
  <flow id="JF69170" begin="1080" fromJunction="J2" toJunction="J0" end="1140" vehsPerHour="74.23629429503112"/>
  <flow id="JF69171" begin="1140" fromJunction="J3" toJunction="J0" end="1200" vehsPerHour="447.1512529738322"/>
  <flow id="JF69172" begin="1140" fromJunction="J0" toJunction="J3" end="1200" vehsPerHour="163.2169753630362"/>
  <flow id="JF69173" begin="1140" fromJunction="J3" toJunction="J4" end="1200" vehsPerHour="6.263219599713272"/>
  <flow id="JF69174" begin="1140" fromJunction="J3" toJunction="J2" end="1200" vehsPerHour="44.95674134228646"/>
  <flow id="JF69175" begin="1140" fromJunction="J0" toJunction="J4" end="1200" vehsPerHour="102.21433519354296"/>
  <flow id="JF69176" begin="1140" fromJunction="J0" toJunction="J2" end="1200" vehsPerHour="117.49370248452293"/>
  <flow id="JF69177" begin="1140" fromJunction="J4" toJunction="J2" end="1200" vehsPerHour="128.1506112221154"/>
  <flow id="JF69178" begin="1140" fromJunction="J2" toJunction="J4" end="1200" vehsPerHour="124.92793420600513"/>
  <flow id="JF69179" begin="1140" fromJunction="J4" toJunction="J3" end="1200" vehsPerHour="53.84613554508632"/>
  <flow id="JF69180" begin="1140" fromJunction="J4" toJunction="J0" end="1200" vehsPerHour="5.079186901825385"/>
  <flow id="JF69181" begin="1140" fromJunction="J2" toJunction="J3" end="1200" vehsPerHour="82.10798659804914"/>
  <flow id="JF69182" begin="1140" fromJunction="J2" toJunction="J0" end="1200" vehsPerHour="118.17794257794522"/>
  <flow id="JF69183" begin="1200" fromJunction="J3" toJunction="J0" end="1260" vehsPerHour="72.42578951265095"/>
  <flow id="JF69184" begin="1200" fromJunction="J0" toJunction="J3" end="1260" vehsPerHour="533.4079439831487"/>
  <flow id="JF69185" begin="1200" fromJunction="J3" toJunction="J4" end="1260" vehsPerHour="110.0964995129539"/>
  <flow id="JF69186" begin="1200" fromJunction="J3" toJunction="J2" end="1260" vehsPerHour="45.89970959371516"/>
  <flow id="JF69187" begin="1200" fromJunction="J0" toJunction="J4" end="1260" vehsPerHour="77.58487994294349"/>
  <flow id="JF69188" begin="1200" fromJunction="J0" toJunction="J2" end="1260" vehsPerHour="121.85759115738139"/>
  <flow id="JF69189" begin="1260" fromJunction="J3" toJunction="J0" end="1320" vehsPerHour="204.00262281353412"/>
  <flow id="JF69190" begin="1260" fromJunction="J0" toJunction="J3" end="1320" vehsPerHour="407.1235710390484"/>
  <flow id="JF69191" begin="1260" fromJunction="J3" toJunction="J4" end="1320" vehsPerHour="76.28200717149055"/>
  <flow id="JF69192" begin="1260" fromJunction="J3" toJunction="J2" end="1320" vehsPerHour="4.361568028551969"/>
  <flow id="JF69193" begin="1260" fromJunction="J0" toJunction="J4" end="1320" vehsPerHour="48.44437886055971"/>
  <flow id="JF69194" begin="1260" fromJunction="J0" toJunction="J2" end="1320" vehsPerHour="64.0441704096199"/>
  <flow id="JF69195" begin="1260" fromJunction="J4" toJunction="J2" end="1320" vehsPerHour="49.93886230554717"/>
  <flow id="JF69196" begin="1260" fromJunction="J2" toJunction="J4" end="1320" vehsPerHour="65.64766007034375"/>
  <flow id="JF69197" begin="1260" fromJunction="J4" toJunction="J3" end="1320" vehsPerHour="41.26578847634138"/>
  <flow id="JF69198" begin="1260" fromJunction="J4" toJunction="J0" end="1320" vehsPerHour="16.593430110289926"/>
  <flow id="JF69199" begin="1260" fromJunction="J2" toJunction="J3" end="1320" vehsPerHour="37.58769238596454"/>
  <flow id="JF69200" begin="1260" fromJunction="J2" toJunction="J0" end="1320" vehsPerHour="20.152584563501133"/>
  <flow id="JF69201" begin="1320" fromJunction="J3" toJunction="J0" end="1380" vehsPerHour="347.3265984201595"/>
  <flow id="JF69202" begin="1320" fromJunction="J0" toJunction="J3" end="1380" vehsPerHour="305.2034847164197"/>
  <flow id="JF69203" begin="1320" fromJunction="J3" toJunction="J4" end="1380" vehsPerHour="126.20390604592752"/>
  <flow id="JF69204" begin="1320" fromJunction="J3" toJunction="J2" end="1380" vehsPerHour="39.721443035368424"/>
  <flow id="JF69205" begin="1320" fromJunction="J0" toJunction="J4" end="1380" vehsPerHour="28.13128543780648"/>
  <flow id="JF69206" begin="1320" fromJunction="J0" toJunction="J2" end="1380" vehsPerHour="63.64485971846522"/>
  <flow id="JF69207" begin="1320" fromJunction="J4" toJunction="J2" end="1380" vehsPerHour="30.10189485920289"/>
  <flow id="JF69208" begin="1320" fromJunction="J2" toJunction="J4" end="1380" vehsPerHour="129.20726164170276"/>
  <flow id="JF69209" begin="1320" fromJunction="J4" toJunction="J3" end="1380" vehsPerHour="48.26059712125839"/>
  <flow id="JF69210" begin="1320" fromJunction="J4" toJunction="J0" end="1380" vehsPerHour="17.445845610901827"/>
  <flow id="JF69211" begin="1320" fromJunction="J2" toJunction="J3" end="1380" vehsPerHour="20.17889243796246"/>
  <flow id="JF69212" begin="1320" fromJunction="J2" toJunction="J0" end="1380" vehsPerHour="79.50847986571216"/>
  <flow id="JF69213" begin="1380" fromJunction="J3" toJunction="J0" end="1440" vehsPerHour="368.8055450692222"/>
  <flow id="JF69214" begin="1380" fromJunction="J0" toJunction="J3" end="1440" vehsPerHour="398.87289281548055"/>
  <flow id="JF69215" begin="1380" fromJunction="J3" toJunction="J4" end="1440" vehsPerHour="136.02002274093795"/>
  <flow id="JF69216" begin="1380" fromJunction="J3" toJunction="J2" end="1440" vehsPerHour="63.70754240018742"/>
  <flow id="JF69217" begin="1380" fromJunction="J0" toJunction="J4" end="1440" vehsPerHour="111.61296571658883"/>
  <flow id="JF69218" begin="1380" fromJunction="J0" toJunction="J2" end="1440" vehsPerHour="134.11191355133226"/>
  <flow id="JF69219" begin="1380" fromJunction="J4" toJunction="J2" end="1440" vehsPerHour="126.73870510440214"/>
  <flow id="JF69220" begin="1380" fromJunction="J2" toJunction="J4" end="1440" vehsPerHour="66.76301052044491"/>
  <flow id="JF69221" begin="1380" fromJunction="J4" toJunction="J3" end="1440" vehsPerHour="6.339332843376869"/>
  <flow id="JF69222" begin="1380" fromJunction="J4" toJunction="J0" end="1440" vehsPerHour="41.87342881375895"/>
  <flow id="JF69223" begin="1380" fromJunction="J2" toJunction="J3" end="1440" vehsPerHour="58.38878750860738"/>
  <flow id="JF69224" begin="1380" fromJunction="J2" toJunction="J0" end="1440" vehsPerHour="33.08296252390309"/>
  <flow id="JF69225" begin="1440" fromJunction="J3" toJunction="J0" end="1500" vehsPerHour="117.80551173083113"/>
  <flow id="JF69226" begin="1440" fromJunction="J0" toJunction="J3" end="1500" vehsPerHour="20.089741607689408"/>
  <flow id="JF69227" begin="1440" fromJunction="J3" toJunction="J4" end="1500" vehsPerHour="11.438436428833068"/>
  <flow id="JF69228" begin="1440" fromJunction="J3" toJunction="J2" end="1500" vehsPerHour="20.86235590871837"/>
  <flow id="JF69229" begin="1440" fromJunction="J0" toJunction="J4" end="1500" vehsPerHour="35.891571234907154"/>
  <flow id="JF69230" begin="1440" fromJunction="J0" toJunction="J2" end="1500" vehsPerHour="128.33510681284307"/>
  <flow id="JF69231" begin="1440" fromJunction="J4" toJunction="J2" end="1500" vehsPerHour="96.32697001457842"/>
  <flow id="JF69232" begin="1440" fromJunction="J2" toJunction="J4" end="1500" vehsPerHour="50.78978863618863"/>
  <flow id="JF69233" begin="1440" fromJunction="J4" toJunction="J3" end="1500" vehsPerHour="89.08341111839557"/>
  <flow id="JF69234" begin="1440" fromJunction="J4" toJunction="J0" end="1500" vehsPerHour="97.02624738739486"/>
  <flow id="JF69235" begin="1440" fromJunction="J2" toJunction="J3" end="1500" vehsPerHour="52.65138828286599"/>
  <flow id="JF69236" begin="1440" fromJunction="J2" toJunction="J0" end="1500" vehsPerHour="17.27688170972"/>
  <flow id="JF69237" begin="1500" fromJunction="J3" toJunction="J0" end="1560" vehsPerHour="468.4699740688849"/>
  <flow id="JF69238" begin="1500" fromJunction="J0" toJunction="J3" end="1560" vehsPerHour="303.7625071870923"/>